MODEL 1
REMARK VINA RESULT:      -9.1      0.000      0.000
REMARK  2 active torsions:
REMARK  status: ('A' for Active; 'I' for Inactive)
REMARK    1  A    between atoms: C7_12  and  C8_13 
REMARK    2  A    between atoms: C14_20  and  N6_21 
ROOT
HETATM    1  C1  UNL     1      20.518   1.798  48.887  1.00  0.00     0.176 C 
HETATM    2  N1  UNL     1      20.226   1.899  50.303  1.00  0.00    -0.274 N 
HETATM    3  N2  UNL     1      19.123   2.225  51.069  1.00  0.00    -0.075 NA
HETATM    4  N3  UNL     1      18.581   1.473  51.926  1.00  0.00    -0.163 NA
HETATM    5  C2  UNL     1      18.931   0.181  52.316  1.00  0.00     0.185 C 
HETATM    6  C3  UNL     1      19.550  -0.830  52.889  1.00  0.00     0.006 C 
HETATM    7  C4  UNL     1      20.591  -1.364  53.761  1.00  0.00     0.017 C 
HETATM    8  C5  UNL     1      21.554  -1.775  54.560  1.00  0.00     0.117 C 
HETATM    9  N4  UNL     1      22.572  -1.066  55.309  1.00  0.00    -0.254 NA
HETATM   10  C6  UNL     1      23.701  -0.757  54.846  1.00  0.00     0.232 C 
HETATM   11  N5  UNL     1      24.910  -0.475  54.224  1.00  0.00    -0.243 NA
HETATM   12  C7  UNL     1      25.340   0.090  53.206  1.00  0.00     0.080 C 
HETATM   13  C14 UNL     1      24.727   0.715  52.048  1.00  0.00     0.290 C 
HETATM   14  C15 UNL     1      23.348   1.152  52.270  1.00  0.00     0.142 A 
HETATM   15 CL2  UNL     1      23.675   2.953  52.859  1.00  0.00    -0.121 Cl
HETATM   16  O1  UNL     1      22.610   1.485  51.139  1.00  0.00     0.000 OA
HETATM   17  C16 UNL     1      21.236   1.694  51.264  1.00  0.00     0.148 A 
HETATM   18  O2  UNL     1      22.408   1.502  51.278  1.00  0.00     0.000 OA
ENDROOT
BRANCH  12  19
HETATM   19  C8  UNL     1      26.785  -0.123  53.397  1.00  0.00    -0.008 A 
HETATM   20  C9  UNL     1      27.483  -1.250  53.041  1.00  0.00     0.013 A 
HETATM   21  C10 UNL     1      28.862  -1.389  53.223  1.00  0.00     0.003 A 
HETATM   22  C11 UNL     1      29.610  -0.383  53.784  1.00  0.00     0.024 A 
HETATM   23  C12 UNL     1      28.966   0.762  54.159  1.00  0.00     0.035 A 
HETATM   24 CL1  UNL     1      29.858   2.072  54.889  1.00  0.00    -0.084 Cl
HETATM   25  C13 UNL     1      27.606   0.833  53.950  1.00  0.00     0.037 A 
ENDBRANCH  12  19
BRANCH  13  26
HETATM   26  N6  UNL     1      25.501   1.815  51.526  1.00  0.00     0.090 N 
HETATM   27  H14 UNL     1      24.923   2.666  51.379  1.00  0.00     0.313 HD
HETATM   28  H15 UNL     1      25.918   1.594  50.586  1.00  0.00     0.313 HD
ENDBRANCH  13  26
TORSDOF 2
ENDMDL
MODEL 2
REMARK VINA RESULT:      -8.9      1.606      1.867
REMARK  2 active torsions:
REMARK  status: ('A' for Active; 'I' for Inactive)
REMARK    1  A    between atoms: C7_12  and  C8_13 
REMARK    2  A    between atoms: C14_20  and  N6_21 
ROOT
HETATM    1  C1  UNL     1      21.163   4.101  49.211  1.00  0.00     0.176 C 
HETATM    2  N1  UNL     1      20.782   3.799  50.577  1.00  0.00    -0.274 N 
HETATM    3  N2  UNL     1      19.651   3.968  51.352  1.00  0.00    -0.075 NA
HETATM    4  N3  UNL     1      19.006   3.041  51.917  1.00  0.00    -0.163 NA
HETATM    5  C2  UNL     1      19.248   1.668  51.914  1.00  0.00     0.185 C 
HETATM    6  C3  UNL     1      19.763   0.486  52.183  1.00  0.00     0.006 C 
HETATM    7  C4  UNL     1      20.708  -0.364  52.901  1.00  0.00     0.017 C 
HETATM    8  C5  UNL     1      21.587  -1.069  53.582  1.00  0.00     0.117 C 
HETATM    9  N4  UNL     1      22.593  -0.699  54.558  1.00  0.00    -0.254 NA
HETATM   10  C6  UNL     1      23.767  -0.357  54.263  1.00  0.00     0.232 C 
HETATM   11  N5  UNL     1      25.031   0.001  53.813  1.00  0.00    -0.243 NA
HETATM   12  C7  UNL     1      25.564   0.807  53.035  1.00  0.00     0.080 C 
HETATM   13  C14 UNL     1      25.072   1.796  52.091  1.00  0.00     0.290 C 
HETATM   14  C15 UNL     1      23.710   2.254  52.370  1.00  0.00     0.142 A 
HETATM   15 CL2  UNL     1      24.106   3.767  53.490  1.00  0.00    -0.121 Cl
HETATM   16  O1  UNL     1      23.072   2.967  51.360  1.00  0.00     0.000 OA
HETATM   17  C16 UNL     1      21.709   3.238  51.477  1.00  0.00     0.148 A 
HETATM   18  O2  UNL     1      22.863   2.957  51.487  1.00  0.00     0.000 OA
ENDROOT
BRANCH  12  19
HETATM   19  C8  UNL     1      26.976   0.433  53.220  1.00  0.00    -0.008 A 
HETATM   20  C9  UNL     1      28.002   1.296  53.515  1.00  0.00     0.013 A 
HETATM   21  C10 UNL     1      29.324   0.883  53.706  1.00  0.00     0.003 A 
HETATM   22  C11 UNL     1      29.676  -0.441  53.601  1.00  0.00     0.024 A 
HETATM   23  C12 UNL     1      28.694  -1.344  53.308  1.00  0.00     0.035 A 
HETATM   24 CL1  UNL     1      29.080  -3.039  53.150  1.00  0.00    -0.084 Cl
HETATM   25  C13 UNL     1      27.413  -0.869  53.134  1.00  0.00     0.037 A 
ENDBRANCH  12  19
BRANCH  13  26
HETATM   26  N6  UNL     1      25.945   2.935  51.963  1.00  0.00     0.090 N 
HETATM   27  H14 UNL     1      26.881   2.762  52.381  1.00  0.00     0.313 HD
HETATM   28  H15 UNL     1      25.568   3.781  52.462  1.00  0.00     0.313 HD
ENDBRANCH  13  26
TORSDOF 2
ENDMDL
MODEL 3
REMARK VINA RESULT:      -8.6      2.044      2.553
REMARK  2 active torsions:
REMARK  status: ('A' for Active; 'I' for Inactive)
REMARK    1  A    between atoms: C7_12  and  C8_13 
REMARK    2  A    between atoms: C14_20  and  N6_21 
ROOT
HETATM    1  C1  UNL     1      22.147   3.796  47.114  1.00  0.00     0.176 C 
HETATM    2  N1  UNL     1      21.486   3.775  48.403  1.00  0.00    -0.274 N 
HETATM    3  N2  UNL     1      20.217   4.056  48.873  1.00  0.00    -0.075 NA
HETATM    4  N3  UNL     1      19.465   3.243  49.479  1.00  0.00    -0.163 NA
HETATM    5  C2  UNL     1      19.698   1.913  49.824  1.00  0.00     0.185 C 
HETATM    6  C3  UNL     1      20.141   0.838  50.444  1.00  0.00     0.006 C 
HETATM    7  C4  UNL     1      20.910   0.201  51.509  1.00  0.00     0.017 C 
HETATM    8  C5  UNL     1      21.623  -0.305  52.493  1.00  0.00     0.117 C 
HETATM    9  N4  UNL     1      22.402   0.308  53.551  1.00  0.00    -0.254 NA
HETATM   10  C6  UNL     1      23.614   0.629  53.438  1.00  0.00     0.232 C 
HETATM   11  N5  UNL     1      24.945   0.937  53.192  1.00  0.00    -0.243 NA
HETATM   12  C7  UNL     1      25.632   1.581  52.385  1.00  0.00     0.080 C 
HETATM   13  C14 UNL     1      25.353   2.325  51.169  1.00  0.00     0.290 C 
HETATM   14  C15 UNL     1      23.965   2.773  51.054  1.00  0.00     0.142 A 
HETATM   15 CL2  UNL     1      24.120   4.505  51.877  1.00  0.00    -0.121 Cl
HETATM   16  O1  UNL     1      23.557   3.227  49.804  1.00  0.00     0.000 OA
HETATM   17  C16 UNL     1      22.200   3.458  49.575  1.00  0.00     0.148 A 
HETATM   18  O2  UNL     1      23.326   3.235  49.884  1.00  0.00     0.000 OA
ENDROOT
BRANCH  12  19
HETATM   19  C8  UNL     1      26.973   1.316  52.934  1.00  0.00    -0.008 A 
HETATM   20  C9  UNL     1      27.793   2.242  53.530  1.00  0.00     0.013 A 
HETATM   21  C10 UNL     1      29.049   1.929  54.058  1.00  0.00     0.003 A 
HETATM   22  C11 UNL     1      29.542   0.648  54.006  1.00  0.00     0.024 A 
HETATM   23  C12 UNL     1      28.768  -0.314  53.424  1.00  0.00     0.035 A 
HETATM   24 CL1  UNL     1      29.345  -1.958  53.316  1.00  0.00    -0.084 Cl
HETATM   25  C13 UNL     1      27.541   0.063  52.924  1.00  0.00     0.037 A 
ENDBRANCH  12  19
BRANCH  13  26
HETATM   26  N6  UNL     1      26.238   3.447  50.980  1.00  0.00     0.090 N 
HETATM   27  H14 UNL     1      26.669   3.762  51.872  1.00  0.00     0.313 HD
HETATM   28  H15 UNL     1      25.734   4.288  50.601  1.00  0.00     0.313 HD
ENDBRANCH  13  26
TORSDOF 2
ENDMDL
MODEL 4
REMARK VINA RESULT:      -8.3      4.024      7.562
REMARK  2 active torsions:
REMARK  status: ('A' for Active; 'I' for Inactive)
REMARK    1  A    between atoms: C7_12  and  C8_13 
REMARK    2  A    between atoms: C14_20  and  N6_21 
ROOT
HETATM    1  C1  UNL     1      28.849   1.861  53.996  1.00  0.00     0.176 C 
HETATM    2  N1  UNL     1      28.081   0.936  53.186  1.00  0.00    -0.274 N 
HETATM    3  N2  UNL     1      28.038  -0.435  53.017  1.00  0.00    -0.075 NA
HETATM    4  N3  UNL     1      27.024  -1.163  53.209  1.00  0.00    -0.163 NA
HETATM    5  C2  UNL     1      25.742  -0.803  53.620  1.00  0.00     0.185 C 
HETATM    6  C3  UNL     1      24.507  -0.345  53.615  1.00  0.00     0.006 C 
HETATM    7  C4  UNL     1      23.368   0.255  52.926  1.00  0.00     0.017 C 
HETATM    8  C5  UNL     1      22.383   0.798  52.243  1.00  0.00     0.117 C 
HETATM    9  N4  UNL     1      22.262   1.206  50.857  1.00  0.00    -0.254 NA
HETATM   10  C6  UNL     1      22.588   2.343  50.427  1.00  0.00     0.232 C 
HETATM   11  N5  UNL     1      22.980   3.627  50.075  1.00  0.00    -0.243 NA
HETATM   12  C7  UNL     1      23.973   4.367  50.152  1.00  0.00     0.080 C 
HETATM   13  C14 UNL     1      25.286   4.255  50.762  1.00  0.00     0.290 C 
HETATM   14  C15 UNL     1      25.719   2.875  50.988  1.00  0.00     0.142 A 
HETATM   15 CL2  UNL     1      26.646   2.558  49.333  1.00  0.00    -0.121 Cl
HETATM   16  O1  UNL     1      26.817   2.695  51.823  1.00  0.00     0.000 OA
HETATM   17  C16 UNL     1      27.140   1.407  52.250  1.00  0.00     0.148 A 
HETATM   18  O2  UNL     1      26.778   2.453  51.820  1.00  0.00     0.000 OA
ENDROOT
BRANCH  12  19
HETATM   19  C8  UNL     1      23.436   5.572  49.498  1.00  0.00    -0.008 A 
HETATM   20  C9  UNL     1      23.060   6.730  50.134  1.00  0.00     0.013 A 
HETATM   21  C10 UNL     1      22.578   7.855  49.460  1.00  0.00     0.003 A 
HETATM   22  C11 UNL     1      22.449   7.863  48.092  1.00  0.00     0.024 A 
HETATM   23  C12 UNL     1      22.808   6.736  47.408  1.00  0.00     0.035 A 
HETATM   24 CL1  UNL     1      22.654   6.679  45.670  1.00  0.00    -0.084 Cl
HETATM   25  C13 UNL     1      23.275   5.664  48.134  1.00  0.00     0.037 A 
ENDBRANCH  12  19
BRANCH  13  26
HETATM   26  N6  UNL     1      26.308   4.966  50.034  1.00  0.00     0.090 N 
HETATM   27  H14 UNL     1      27.261   4.765  50.397  1.00  0.00     0.313 HD
HETATM   28  H15 UNL     1      26.194   6.009  50.111  1.00  0.00     0.313 HD
ENDBRANCH  13  26
TORSDOF 2
ENDMDL
MODEL 5
REMARK VINA RESULT:      -8.2      4.267      6.127
REMARK  2 active torsions:
REMARK  status: ('A' for Active; 'I' for Inactive)
REMARK    1  A    between atoms: C7_12  and  C8_13 
REMARK    2  A    between atoms: C14_20  and  N6_21 
ROOT
HETATM    1  C1  UNL     1      20.219   6.684  49.687  1.00  0.00     0.176 C 
HETATM    2  N1  UNL     1      21.136   6.283  48.638  1.00  0.00    -0.274 N 
HETATM    3  N2  UNL     1      21.291   6.565  47.294  1.00  0.00    -0.075 NA
HETATM    4  N3  UNL     1      22.323   7.068  46.768  1.00  0.00    -0.163 NA
HETATM    5  C2  UNL     1      23.522   7.452  47.365  1.00  0.00     0.185 C 
HETATM    6  C3  UNL     1      24.715   7.408  47.920  1.00  0.00     0.006 C 
HETATM    7  C4  UNL     1      25.883   6.666  48.387  1.00  0.00     0.017 C 
HETATM    8  C5  UNL     1      26.901   5.934  48.787  1.00  0.00     0.117 C 
HETATM    9  N4  UNL     1      27.151   4.506  48.754  1.00  0.00    -0.254 NA
HETATM   10  C6  UNL     1      26.801   3.709  49.662  1.00  0.00     0.232 C 
HETATM   11  N5  UNL     1      26.365   2.932  50.727  1.00  0.00    -0.243 NA
HETATM   12  C7  UNL     1      25.322   2.681  51.350  1.00  0.00     0.080 C 
HETATM   13  C14 UNL     1      23.958   3.178  51.302  1.00  0.00     0.290 C 
HETATM   14  C15 UNL     1      23.597   3.794  50.024  1.00  0.00     0.142 A 
HETATM   15 CL2  UNL     1      22.889   2.254  49.116  1.00  0.00    -0.121 Cl
HETATM   16  O1  UNL     1      22.426   4.544  50.003  1.00  0.00     0.000 OA
HETATM   17  C16 UNL     1      22.144   5.331  48.886  1.00  0.00     0.148 A 
HETATM   18  O2  UNL     1      22.481   4.622  49.778  1.00  0.00     0.000 OA
ENDROOT
BRANCH  12  19
HETATM   19  C8  UNL     1      25.848   1.725  52.339  1.00  0.00    -0.008 A 
HETATM   20  C9  UNL     1      26.095   1.995  53.662  1.00  0.00     0.013 A 
HETATM   21  C10 UNL     1      26.572   1.041  54.565  1.00  0.00     0.003 A 
HETATM   22  C11 UNL     1      26.828  -0.248  54.167  1.00  0.00     0.024 A 
HETATM   23  C12 UNL     1      26.601  -0.573  52.860  1.00  0.00     0.035 A 
HETATM   24 CL1  UNL     1      26.919  -2.191  52.290  1.00  0.00    -0.084 Cl
HETATM   25  C13 UNL     1      26.130   0.415  52.024  1.00  0.00     0.037 A 
ENDBRANCH  12  19
BRANCH  13  26
HETATM   26  N6  UNL     1      22.981   2.174  51.644  1.00  0.00     0.090 N 
HETATM   27  H14 UNL     1      23.280   1.221  51.358  1.00  0.00     0.313 HD
HETATM   28  H15 UNL     1      22.062   2.336  51.159  1.00  0.00     0.313 HD
ENDBRANCH  13  26
TORSDOF 2
ENDMDL
MODEL 6
REMARK VINA RESULT:      -8.1      3.995      5.909
REMARK  2 active torsions:
REMARK  status: ('A' for Active; 'I' for Inactive)
REMARK    1  A    between atoms: C7_12  and  C8_13 
REMARK    2  A    between atoms: C14_20  and  N6_21 
ROOT
HETATM    1  C1  UNL     1      24.739   8.579  50.055  1.00  0.00     0.176 C 
HETATM    2  N1  UNL     1      23.448   7.982  49.774  1.00  0.00    -0.274 N 
HETATM    3  N2  UNL     1      22.273   8.395  49.176  1.00  0.00    -0.075 NA
HETATM    4  N3  UNL     1      21.737   7.857  48.168  1.00  0.00    -0.163 NA
HETATM    5  C2  UNL     1      22.161   6.756  47.424  1.00  0.00     0.185 C 
HETATM    6  C3  UNL     1      22.406   5.519  47.047  1.00  0.00     0.006 C 
HETATM    7  C4  UNL     1      22.343   4.077  47.269  1.00  0.00     0.017 C 
HETATM    8  C5  UNL     1      22.254   2.791  47.536  1.00  0.00     0.117 C 
HETATM    9  N4  UNL     1      21.698   2.062  48.659  1.00  0.00    -0.254 NA
HETATM   10  C6  UNL     1      22.343   1.774  49.700  1.00  0.00     0.232 C 
HETATM   11  N5  UNL     1      23.157   1.516  50.795  1.00  0.00    -0.243 NA
HETATM   12  C7  UNL     1      23.867   2.125  51.610  1.00  0.00     0.080 C 
HETATM   13  C14 UNL     1      24.276   3.509  51.776  1.00  0.00     0.290 C 
HETATM   14  C15 UNL     1      23.381   4.471  51.132  1.00  0.00     0.142 A 
HETATM   15 CL2  UNL     1      22.185   4.824  52.596  1.00  0.00    -0.121 Cl
HETATM   16  O1  UNL     1      23.857   5.772  50.998  1.00  0.00     0.000 OA
HETATM   17  C16 UNL     1      23.149   6.675  50.204  1.00  0.00     0.148 A 
HETATM   18  O2  UNL     1      23.664   5.827  50.858  1.00  0.00     0.000 OA
ENDROOT
BRANCH  12  19
HETATM   19  C8  UNL     1      24.350   0.990  52.415  1.00  0.00    -0.008 A 
HETATM   20  C9  UNL     1      25.613   0.452  52.367  1.00  0.00     0.013 A 
HETATM   21  C10 UNL     1      26.026  -0.612  53.173  1.00  0.00     0.003 A 
HETATM   22  C11 UNL     1      25.170  -1.192  54.077  1.00  0.00     0.024 A 
HETATM   23  C12 UNL     1      23.900  -0.698  54.166  1.00  0.00     0.035 A 
HETATM   24 CL1  UNL     1      22.761  -1.401  55.286  1.00  0.00    -0.084 Cl
HETATM   25  C13 UNL     1      23.559   0.352  53.343  1.00  0.00     0.037 A 
ENDBRANCH  12  19
BRANCH  13  26
HETATM   26  N6  UNL     1      24.465   3.878  53.157  1.00  0.00     0.090 N 
HETATM   27  H14 UNL     1      25.459   3.801  53.451  1.00  0.00     0.313 HD
HETATM   28  H15 UNL     1      23.931   3.250  53.810  1.00  0.00     0.313 HD
ENDBRANCH  13  26
TORSDOF 2
ENDMDL
MODEL 7
REMARK VINA RESULT:      -7.4      3.691      5.519
REMARK  2 active torsions:
REMARK  status: ('A' for Active; 'I' for Inactive)
REMARK    1  A    between atoms: C7_12  and  C8_13 
REMARK    2  A    between atoms: C14_20  and  N6_21 
ROOT
HETATM    1  C1  UNL     1      17.895   4.565  49.640  1.00  0.00     0.176 C 
HETATM    2  N1  UNL     1      19.022   5.123  48.920  1.00  0.00    -0.274 N 
HETATM    3  N2  UNL     1      19.199   6.089  47.948  1.00  0.00    -0.075 NA
HETATM    4  N3  UNL     1      19.913   7.124  48.067  1.00  0.00    -0.163 NA
HETATM    5  C2  UNL     1      20.677   7.550  49.152  1.00  0.00     0.185 C 
HETATM    6  C3  UNL     1      21.652   7.663  50.031  1.00  0.00     0.006 C 
HETATM    7  C4  UNL     1      22.957   7.268  50.550  1.00  0.00     0.017 C 
HETATM    8  C5  UNL     1      24.139   6.861  50.964  1.00  0.00     0.117 C 
HETATM    9  N4  UNL     1      25.058   5.858  50.463  1.00  0.00    -0.254 NA
HETATM   10  C6  UNL     1      25.025   4.644  50.794  1.00  0.00     0.232 C 
HETATM   11  N5  UNL     1      24.886   3.335  51.236  1.00  0.00    -0.243 NA
HETATM   12  C7  UNL     1      24.026   2.443  51.293  1.00  0.00     0.080 C 
HETATM   13  C14 UNL     1      22.614   2.361  50.962  1.00  0.00     0.290 C 
HETATM   14  C15 UNL     1      22.174   3.365  49.993  1.00  0.00     0.142 A 
HETATM   15 CL2  UNL     1      22.441   2.377  48.365  1.00  0.00    -0.121 Cl
HETATM   16  O1  UNL     1      20.801   3.536  49.853  1.00  0.00     0.000 OA
HETATM   17  C16 UNL     1      20.323   4.620  49.116  1.00  0.00     0.148 A 
HETATM   18  O2  UNL     1      20.841   3.733  49.713  1.00  0.00     0.000 OA
ENDROOT
BRANCH  12  19
HETATM   19  C8  UNL     1      24.814   1.382  51.943  1.00  0.00    -0.008 A 
HETATM   20  C9  UNL     1      26.080   0.989  51.585  1.00  0.00     0.013 A 
HETATM   21  C10 UNL     1      26.793  -0.010  52.255  1.00  0.00     0.003 A 
HETATM   22  C11 UNL     1      26.251  -0.670  53.331  1.00  0.00     0.024 A 
HETATM   23  C12 UNL     1      24.992  -0.320  53.730  1.00  0.00     0.035 A 
HETATM   24 CL1  UNL     1      24.244  -1.130  55.082  1.00  0.00    -0.084 Cl
HETATM   25  C13 UNL     1      24.347   0.673  53.027  1.00  0.00     0.037 A 
ENDBRANCH  12  19
BRANCH  13  26
HETATM   26  N6  UNL     1      22.218   1.051  50.510  1.00  0.00     0.090 N 
HETATM   27  H14 UNL     1      22.837   0.303  50.881  1.00  0.00     0.313 HD
HETATM   28  H15 UNL     1      22.269   0.962  49.463  1.00  0.00     0.313 HD
ENDBRANCH  13  26
TORSDOF 2
ENDMDL
MODEL 8
REMARK VINA RESULT:      -7.4      3.229      7.720
REMARK  2 active torsions:
REMARK  status: ('A' for Active; 'I' for Inactive)
REMARK    1  A    between atoms: C7_12  and  C8_13 
REMARK    2  A    between atoms: C14_20  and  N6_21 
ROOT
HETATM    1  C1  UNL     1      25.288   5.678  50.084  1.00  0.00     0.176 C 
HETATM    2  N1  UNL     1      25.560   4.254  50.074  1.00  0.00    -0.274 N 
HETATM    3  N2  UNL     1      26.685   3.459  49.970  1.00  0.00    -0.075 NA
HETATM    4  N3  UNL     1      27.065   2.615  50.828  1.00  0.00    -0.163 NA
HETATM    5  C2  UNL     1      26.483   2.271  52.047  1.00  0.00     0.185 C 
HETATM    6  C3  UNL     1      25.682   1.740  52.948  1.00  0.00     0.006 C 
HETATM    7  C4  UNL     1      24.543   0.903  53.311  1.00  0.00     0.017 C 
HETATM    8  C5  UNL     1      23.504   0.136  53.566  1.00  0.00     0.117 C 
HETATM    9  N4  UNL     1      22.610  -0.616  52.707  1.00  0.00    -0.254 NA
HETATM   10  C6  UNL     1      21.565  -0.142  52.191  1.00  0.00     0.232 C 
HETATM   11  N5  UNL     1      20.440   0.493  51.682  1.00  0.00    -0.243 NA
HETATM   12  C7  UNL     1      20.140   1.501  51.023  1.00  0.00     0.080 C 
HETATM   13  C14 UNL     1      20.880   2.629  50.486  1.00  0.00     0.290 C 
HETATM   14  C15 UNL     1      22.309   2.368  50.308  1.00  0.00     0.142 A 
HETATM   15 CL2  UNL     1      22.293   1.731  48.493  1.00  0.00    -0.121 Cl
HETATM   16  O1  UNL     1      23.121   3.474  50.081  1.00  0.00     0.000 OA
HETATM   17  C16 UNL     1      24.507   3.319  50.122  1.00  0.00     0.148 A 
HETATM   18  O2  UNL     1      23.319   3.332  50.104  1.00  0.00     0.000 OA
ENDROOT
BRANCH  12  19
HETATM   19  C8  UNL     1      18.676   1.342  50.982  1.00  0.00    -0.008 A 
HETATM   20  C9  UNL     1      17.999   0.285  50.426  1.00  0.00     0.013 A 
HETATM   21  C10 UNL     1      16.606   0.174  50.437  1.00  0.00     0.003 A 
HETATM   22  C11 UNL     1      15.821   1.141  51.015  1.00  0.00     0.024 A 
HETATM   23  C12 UNL     1      16.441   2.217  51.583  1.00  0.00     0.035 A 
HETATM   24 CL1  UNL     1      15.498   3.485  52.322  1.00  0.00    -0.084 Cl
HETATM   25  C13 UNL     1      17.817   2.263  51.537  1.00  0.00     0.037 A 
ENDBRANCH  12  19
BRANCH  13  26
HETATM   26  N6  UNL     1      20.326   3.131  49.254  1.00  0.00     0.090 N 
HETATM   27  H14 UNL     1      20.103   2.368  48.584  1.00  0.00     0.313 HD
HETATM   28  H15 UNL     1      20.997   3.761  48.746  1.00  0.00     0.313 HD
ENDBRANCH  13  26
TORSDOF 2
ENDMDL
MODEL 9
REMARK VINA RESULT:      -7.2      4.661      5.726
REMARK  2 active torsions:
REMARK  status: ('A' for Active; 'I' for Inactive)
REMARK    1  A    between atoms: C7_12  and  C8_13 
REMARK    2  A    between atoms: C14_20  and  N6_21 
ROOT
HETATM    1  C1  UNL     1      18.039   4.161  48.368  1.00  0.00     0.176 C 
HETATM    2  N1  UNL     1      18.430   4.294  49.757  1.00  0.00    -0.274 N 
HETATM    3  N2  UNL     1      17.788   4.238  50.979  1.00  0.00    -0.075 NA
HETATM    4  N3  UNL     1      18.061   3.432  51.912  1.00  0.00    -0.163 NA
HETATM    5  C2  UNL     1      19.035   2.436  51.962  1.00  0.00     0.185 C 
HETATM    6  C3  UNL     1      20.195   1.822  52.075  1.00  0.00     0.006 C 
HETATM    7  C4  UNL     1      21.637   1.844  52.298  1.00  0.00     0.017 C 
HETATM    8  C5  UNL     1      22.934   1.938  52.505  1.00  0.00     0.117 C 
HETATM    9  N4  UNL     1      23.804   3.070  52.754  1.00  0.00    -0.254 NA
HETATM   10  C6  UNL     1      24.355   3.748  51.847  1.00  0.00     0.232 C 
HETATM   11  N5  UNL     1      24.905   4.415  50.762  1.00  0.00    -0.243 NA
HETATM   12  C7  UNL     1      24.544   4.989  49.723  1.00  0.00     0.080 C 
HETATM   13  C14 UNL     1      23.269   5.189  49.055  1.00  0.00     0.290 C 
HETATM   14  C15 UNL     1      22.111   5.065  49.942  1.00  0.00     0.142 A 
HETATM   15 CL2  UNL     1      21.925   6.901  50.482  1.00  0.00    -0.121 Cl
HETATM   16  O1  UNL     1      20.867   4.952  49.330  1.00  0.00     0.000 OA
HETATM   17  C16 UNL     1      19.758   4.612  50.105  1.00  0.00     0.148 A 
HETATM   18  O2  UNL     1      20.766   4.902  49.547  1.00  0.00     0.000 OA
ENDROOT
BRANCH  12  19
HETATM   19  C8  UNL     1      25.858   5.388  49.190  1.00  0.00    -0.008 A 
HETATM   20  C9  UNL     1      26.938   4.558  49.017  1.00  0.00     0.013 A 
HETATM   21  C10 UNL     1      28.157   4.986  48.482  1.00  0.00     0.003 A 
HETATM   22  C11 UNL     1      28.344   6.290  48.095  1.00  0.00     0.024 A 
HETATM   23  C12 UNL     1      27.302   7.160  48.246  1.00  0.00     0.035 A 
HETATM   24 CL1  UNL     1      27.482   8.833  47.785  1.00  0.00    -0.084 Cl
HETATM   25  C13 UNL     1      26.129   6.672  48.778  1.00  0.00     0.037 A 
ENDBRANCH  12  19
BRANCH  13  26
HETATM   26  N6  UNL     1      23.197   6.440  48.343  1.00  0.00     0.090 N 
HETATM   27  H14 UNL     1      22.565   6.387  47.519  1.00  0.00     0.313 HD
HETATM   28  H15 UNL     1      24.132   6.730  47.959  1.00  0.00     0.313 HD
ENDBRANCH  13  26
TORSDOF 2
ENDMDL
