MODEL 1
REMARK VINA RESULT:      -8.7      0.000      0.000
REMARK  2 active torsions:
REMARK  status: ('A' for Active; 'I' for Inactive)
REMARK    1  A    between atoms: C1_2  and  C2_3 
REMARK    2  A    between atoms: C2_3  and  N1_4 
ROOT
HETATM    1  N1  UNL     1      26.136   2.981  51.019  1.00  0.00    -0.321 N 
HETATM    2  C3  UNL     1      24.908   3.165  51.707  1.00  0.00     0.103 C 
HETATM    3  C4  UNL     1      24.035   2.318  52.215  1.00  0.00     0.021 C 
HETATM    4  C5  UNL     1      24.143   0.848  52.185  1.00  0.00     0.147 A 
HETATM    5  C6  UNL     1      22.922   0.174  52.718  1.00  0.00    -0.005 A 
HETATM    6  C7  UNL     1      21.591  -0.155  52.545  1.00  0.00     0.012 A 
HETATM    7  C8  UNL     1      20.976  -0.888  53.555  1.00  0.00     0.001 A 
HETATM    8  C9  UNL     1      21.642  -1.291  54.703  1.00  0.00     0.002 A 
HETATM    9  C10 UNL     1      22.970  -0.956  54.859  1.00  0.00     0.030 A 
HETATM   10  C11 UNL     1      23.597  -0.220  53.853  1.00  0.00     0.041 A 
HETATM   11  N2  UNL     1      24.813   0.404  53.392  1.00  0.00    -0.341 N 
HETATM   12  C12 UNL     1      26.228   0.708  53.648  1.00  0.00     0.226 C 
HETATM   13  C13 UNL     1      26.643   0.082  54.951  1.00  0.00     0.054 C 
HETATM   14  C14 UNL     1      28.142  -0.175  54.840  1.00  0.00     0.004 C 
HETATM   15  C15 UNL     1      28.841   1.128  54.592  1.00  0.00     0.004 C 
HETATM   16  C16 UNL     1      28.761   1.583  53.161  1.00  0.00     0.049 C 
HETATM   17  C17 UNL     1      27.510   2.348  52.834  1.00  0.00     0.215 C 
HETATM   18  N3  UNL     1      26.967   1.991  51.541  1.00  0.00    -0.210 NA
HETATM   19  O1  UNL     1      26.464   2.076  53.750  1.00  0.00    -0.345 OA
HETATM   20  H22 UNL     1      27.670   1.619  50.881  1.00  0.00     0.149 HD
ENDROOT
BRANCH   1  21
HETATM   21  C2  UNL     1      26.507   3.756  49.863  1.00  0.00     0.152 C 
BRANCH  21  22
HETATM   22  C1  UNL     1      25.692   5.024  49.732  1.00  0.00     0.101 C 
HETATM   23  I1  UNL     1      26.797   6.468  48.636  1.00  0.00    -0.088 I 
ENDBRANCH  21  22
ENDBRANCH   1  21
TORSDOF 2
ENDMDL
MODEL 2
REMARK VINA RESULT:      -8.2      1.950      4.894
REMARK  2 active torsions:
REMARK  status: ('A' for Active; 'I' for Inactive)
REMARK    1  A    between atoms: C1_2  and  C2_3 
REMARK    2  A    between atoms: C2_3  and  N1_4 
ROOT
HETATM    1  N1  UNL     1      23.160   3.334  51.147  1.00  0.00    -0.321 N 
HETATM    2  C3  UNL     1      24.417   2.795  50.765  1.00  0.00     0.103 C 
HETATM    3  C4  UNL     1      25.463   2.393  51.460  1.00  0.00     0.021 C 
HETATM    4  C5  UNL     1      25.579   2.411  52.930  1.00  0.00     0.147 A 
HETATM    5  C6  UNL     1      26.942   2.025  53.400  1.00  0.00    -0.005 A 
HETATM    6  C7  UNL     1      28.280   2.352  53.524  1.00  0.00     0.012 A 
HETATM    7  C8  UNL     1      29.113   1.422  54.137  1.00  0.00     0.001 A 
HETATM    8  C9  UNL     1      28.654   0.204  54.617  1.00  0.00     0.002 A 
HETATM    9  C10 UNL     1      27.318  -0.107  54.485  1.00  0.00     0.030 A 
HETATM   10  C11 UNL     1      26.473   0.819  53.872  1.00  0.00     0.041 A 
HETATM   11  N2  UNL     1      25.130   1.133  53.449  1.00  0.00    -0.341 N 
HETATM   12  C12 UNL     1      23.724   0.713  53.360  1.00  0.00     0.226 C 
HETATM   13  C13 UNL     1      23.564  -0.629  54.019  1.00  0.00     0.054 C 
HETATM   14  C14 UNL     1      22.120  -0.695  54.503  1.00  0.00     0.004 C 
HETATM   15  C15 UNL     1      21.205  -0.531  53.327  1.00  0.00     0.004 C 
HETATM   16  C16 UNL     1      21.048   0.900  52.891  1.00  0.00     0.049 C 
HETATM   17  C17 UNL     1      22.120   1.371  51.950  1.00  0.00     0.215 C 
HETATM   18  N3  UNL     1      22.558   2.718  52.243  1.00  0.00    -0.210 NA
HETATM   19  O1  UNL     1      23.295   0.584  52.043  1.00  0.00    -0.345 OA
HETATM   20  H22 UNL     1      21.849   3.291  52.729  1.00  0.00     0.149 HD
ENDROOT
BRANCH   1  21
HETATM   21  C2  UNL     1      22.543   4.438  50.458  1.00  0.00     0.152 C 
BRANCH  21  22
HETATM   22  C1  UNL     1      22.527   5.702  51.291  1.00  0.00     0.101 C 
HETATM   23  I1  UNL     1      24.170   6.932  50.745  1.00  0.00    -0.088 I 
ENDBRANCH  21  22
ENDBRANCH   1  21
TORSDOF 2
ENDMDL
MODEL 3
REMARK VINA RESULT:      -8.2      2.501      4.431
REMARK  2 active torsions:
REMARK  status: ('A' for Active; 'I' for Inactive)
REMARK    1  A    between atoms: C1_2  and  C2_3 
REMARK    2  A    between atoms: C2_3  and  N1_4 
ROOT
HETATM    1  N1  UNL     1      26.220   0.410  54.068  1.00  0.00    -0.321 N 
HETATM    2  C3  UNL     1      25.319  -0.624  53.703  1.00  0.00     0.103 C 
HETATM    3  C4  UNL     1      24.023  -0.634  53.462  1.00  0.00     0.021 C 
HETATM    4  C5  UNL     1      23.127   0.536  53.522  1.00  0.00     0.147 A 
HETATM    5  C6  UNL     1      21.693   0.167  53.338  1.00  0.00    -0.005 A 
HETATM    6  C7  UNL     1      20.558  -0.433  53.850  1.00  0.00     0.012 A 
HETATM    7  C8  UNL     1      19.416  -0.429  53.056  1.00  0.00     0.001 A 
HETATM    8  C9  UNL     1      19.381   0.147  51.794  1.00  0.00     0.002 A 
HETATM    9  C10 UNL     1      20.521   0.742  51.298  1.00  0.00     0.030 A 
HETATM   10  C11 UNL     1      21.672   0.744  52.086  1.00  0.00     0.041 A 
HETATM   11  N2  UNL     1      23.056   1.136  52.203  1.00  0.00    -0.341 N 
HETATM   12  C12 UNL     1      24.216   1.798  51.590  1.00  0.00     0.226 C 
HETATM   13  C13 UNL     1      23.820   2.354  50.250  1.00  0.00     0.054 C 
HETATM   14  C14 UNL     1      24.744   3.539  49.992  1.00  0.00     0.004 C 
HETATM   15  C15 UNL     1      26.164   3.060  50.007  1.00  0.00     0.004 C 
HETATM   16  C16 UNL     1      26.713   2.867  51.394  1.00  0.00     0.049 C 
HETATM   17  C17 UNL     1      26.397   1.526  51.993  1.00  0.00     0.215 C 
HETATM   18  N3  UNL     1      26.044   1.617  53.394  1.00  0.00    -0.210 NA
HETATM   19  O1  UNL     1      25.274   0.919  51.380  1.00  0.00    -0.345 OA
HETATM   20  H22 UNL     1      26.439   2.444  53.871  1.00  0.00     0.149 HD
ENDROOT
BRANCH   1  21
HETATM   21  C2  UNL     1      27.247   0.236  55.064  1.00  0.00     0.152 C 
BRANCH  21  22
HETATM   22  C1  UNL     1      28.607   0.686  54.576  1.00  0.00     0.101 C 
HETATM   23  I1  UNL     1      29.553  -0.909  53.542  1.00  0.00    -0.088 I 
ENDBRANCH  21  22
ENDBRANCH   1  21
TORSDOF 2
ENDMDL
MODEL 4
REMARK VINA RESULT:      -8.0      2.479      6.126
REMARK  2 active torsions:
REMARK  status: ('A' for Active; 'I' for Inactive)
REMARK    1  A    between atoms: C1_2  and  C2_3 
REMARK    2  A    between atoms: C2_3  and  N1_4 
ROOT
HETATM    1  N1  UNL     1      25.827   0.415  53.788  1.00  0.00    -0.321 N 
HETATM    2  C3  UNL     1      25.925   1.829  53.705  1.00  0.00     0.103 C 
HETATM    3  C4  UNL     1      25.846   2.670  52.692  1.00  0.00     0.021 C 
HETATM    4  C5  UNL     1      25.616   2.302  51.283  1.00  0.00     0.147 A 
HETATM    5  C6  UNL     1      25.724   3.472  50.362  1.00  0.00    -0.005 A 
HETATM    6  C7  UNL     1      26.528   4.410  49.742  1.00  0.00     0.012 A 
HETATM    7  C8  UNL     1      25.908   5.333  48.906  1.00  0.00     0.001 A 
HETATM    8  C9  UNL     1      24.539   5.341  48.680  1.00  0.00     0.002 A 
HETATM    9  C10 UNL     1      23.752   4.399  49.306  1.00  0.00     0.030 A 
HETATM   10  C11 UNL     1      24.363   3.468  50.147  1.00  0.00     0.041 A 
HETATM   11  N2  UNL     1      24.190   2.332  51.020  1.00  0.00    -0.341 N 
HETATM   12  C12 UNL     1      23.269   1.366  51.635  1.00  0.00     0.226 C 
HETATM   13  C13 UNL     1      21.873   1.625  51.139  1.00  0.00     0.054 C 
HETATM   14  C14 UNL     1      21.139   0.291  51.221  1.00  0.00     0.004 C 
HETATM   15  C15 UNL     1      21.154  -0.184  52.643  1.00  0.00     0.004 C 
HETATM   16  C16 UNL     1      22.457  -0.817  53.046  1.00  0.00     0.049 C 
HETATM   17  C17 UNL     1      23.495   0.166  53.507  1.00  0.00     0.215 C 
HETATM   18  N3  UNL     1      24.817  -0.158  53.017  1.00  0.00    -0.210 NA
HETATM   19  O1  UNL     1      23.244   1.473  53.023  1.00  0.00    -0.345 OA
HETATM   20  H22 UNL     1      24.949  -1.160  52.801  1.00  0.00     0.149 HD
ENDROOT
BRANCH   1  21
HETATM   21  C2  UNL     1      26.705  -0.381  54.608  1.00  0.00     0.152 C 
BRANCH  21  22
HETATM   22  C1  UNL     1      28.062   0.261  54.792  1.00  0.00     0.101 C 
HETATM   23  I1  UNL     1      29.499  -0.766  53.613  1.00  0.00    -0.088 I 
ENDBRANCH  21  22
ENDBRANCH   1  21
TORSDOF 2
ENDMDL
MODEL 5
REMARK VINA RESULT:      -7.9      1.757      2.274
REMARK  2 active torsions:
REMARK  status: ('A' for Active; 'I' for Inactive)
REMARK    1  A    between atoms: C1_2  and  C2_3 
REMARK    2  A    between atoms: C2_3  and  N1_4 
ROOT
HETATM    1  N1  UNL     1      23.546   3.907  50.684  1.00  0.00    -0.321 N 
HETATM    2  C3  UNL     1      22.633   3.783  51.764  1.00  0.00     0.103 C 
HETATM    3  C4  UNL     1      21.943   2.763  52.235  1.00  0.00     0.021 C 
HETATM    4  C5  UNL     1      21.962   1.389  51.700  1.00  0.00     0.147 A 
HETATM    5  C6  UNL     1      20.962   0.502  52.365  1.00  0.00    -0.005 A 
HETATM    6  C7  UNL     1      19.636   0.160  52.554  1.00  0.00     0.012 A 
HETATM    7  C8  UNL     1      19.363  -0.895  53.420  1.00  0.00     0.001 A 
HETATM    8  C9  UNL     1      20.358  -1.598  54.083  1.00  0.00     0.002 A 
HETATM    9  C10 UNL     1      21.675  -1.244  53.884  1.00  0.00     0.030 A 
HETATM   10  C11 UNL     1      21.960  -0.188  53.018  1.00  0.00     0.041 A 
HETATM   11  N2  UNL     1      22.978   0.629  52.403  1.00  0.00    -0.341 N 
HETATM   12  C12 UNL     1      24.409   0.927  52.251  1.00  0.00     0.226 C 
HETATM   13  C13 UNL     1      25.210  -0.052  53.065  1.00  0.00     0.054 C 
HETATM   14  C14 UNL     1      26.568  -0.163  52.382  1.00  0.00     0.004 C 
HETATM   15  C15 UNL     1      27.205   1.194  52.345  1.00  0.00     0.004 C 
HETATM   16  C16 UNL     1      26.667   2.074  51.251  1.00  0.00     0.049 C 
HETATM   17  C17 UNL     1      25.419   2.820  51.627  1.00  0.00     0.215 C 
HETATM   18  N3  UNL     1      24.454   2.858  50.550  1.00  0.00    -0.210 NA
HETATM   19  O1  UNL     1      24.732   2.204  52.702  1.00  0.00    -0.345 OA
HETATM   20  H22 UNL     1      24.873   2.762  49.610  1.00  0.00     0.149 HD
ENDROOT
BRANCH   1  21
HETATM   21  C2  UNL     1      23.541   5.032  49.784  1.00  0.00     0.152 C 
BRANCH  21  22
HETATM   22  C1  UNL     1      24.518   6.109  50.202  1.00  0.00     0.101 C 
HETATM   23  I1  UNL     1      26.223   6.052  48.938  1.00  0.00    -0.088 I 
ENDBRANCH  21  22
ENDBRANCH   1  21
TORSDOF 2
ENDMDL
MODEL 6
REMARK VINA RESULT:      -7.7      7.552     10.366
REMARK  2 active torsions:
REMARK  status: ('A' for Active; 'I' for Inactive)
REMARK    1  A    between atoms: C1_2  and  C2_3 
REMARK    2  A    between atoms: C2_3  and  N1_4 
ROOT
HETATM    1  N1  UNL     1      30.730   9.669  49.039  1.00  0.00    -0.321 N 
HETATM    2  C3  UNL     1      31.663   9.190  48.082  1.00  0.00     0.103 C 
HETATM    3  C4  UNL     1      32.341   8.063  47.984  1.00  0.00     0.021 C 
HETATM    4  C5  UNL     1      32.281   6.937  48.934  1.00  0.00     0.147 A 
HETATM    5  C6  UNL     1      33.276   5.870  48.619  1.00  0.00    -0.005 A 
HETATM    6  C7  UNL     1      34.598   5.466  48.587  1.00  0.00     0.012 A 
HETATM    7  C8  UNL     1      34.866   4.185  48.116  1.00  0.00     0.001 A 
HETATM    8  C9  UNL     1      33.871   3.319  47.689  1.00  0.00     0.002 A 
HETATM    9  C10 UNL     1      32.558   3.736  47.728  1.00  0.00     0.030 A 
HETATM   10  C11 UNL     1      32.277   5.019  48.197  1.00  0.00     0.041 A 
HETATM   11  N2  UNL     1      31.264   6.004  48.488  1.00  0.00    -0.341 N 
HETATM   12  C12 UNL     1      29.836   6.354  48.496  1.00  0.00     0.226 C 
HETATM   13  C13 UNL     1      29.033   5.175  48.021  1.00  0.00     0.054 C 
HETATM   14  C14 UNL     1      27.658   5.310  48.666  1.00  0.00     0.004 C 
HETATM   15  C15 UNL     1      27.050   6.614  48.245  1.00  0.00     0.004 C 
HETATM   16  C16 UNL     1      27.583   7.794  49.010  1.00  0.00     0.049 C 
HETATM   17  C17 UNL     1      28.854   8.361  48.447  1.00  0.00     0.215 C 
HETATM   18  N3  UNL     1      29.797   8.733  49.480  1.00  0.00    -0.210 NA
HETATM   19  O1  UNL     1      29.551   7.421  47.649  1.00  0.00    -0.345 OA
HETATM   20  H22 UNL     1      29.356   8.952  50.389  1.00  0.00     0.149 HD
ENDROOT
BRANCH   1  21
HETATM   21  C2  UNL     1      30.740  11.025  49.527  1.00  0.00     0.152 C 
BRANCH  21  22
HETATM   22  C1  UNL     1      30.503  12.036  48.426  1.00  0.00     0.101 C 
HETATM   23  I1  UNL     1      28.500  12.735  48.525  1.00  0.00    -0.088 I 
ENDBRANCH  21  22
ENDBRANCH   1  21
TORSDOF 2
ENDMDL
MODEL 7
REMARK VINA RESULT:      -7.5      3.040      6.077
REMARK  2 active torsions:
REMARK  status: ('A' for Active; 'I' for Inactive)
REMARK    1  A    between atoms: C1_2  and  C2_3 
REMARK    2  A    between atoms: C2_3  and  N1_4 
ROOT
HETATM    1  N1  UNL     1      21.734   2.283  52.130  1.00  0.00    -0.321 N 
HETATM    2  C3  UNL     1      21.985   2.617  50.774  1.00  0.00     0.103 C 
HETATM    3  C4  UNL     1      22.912   3.354  50.194  1.00  0.00     0.021 C 
HETATM    4  C5  UNL     1      24.003   4.067  50.885  1.00  0.00     0.147 A 
HETATM    5  C6  UNL     1      24.798   4.928  49.961  1.00  0.00    -0.005 A 
HETATM    6  C7  UNL     1      24.865   6.067  49.180  1.00  0.00     0.012 A 
HETATM    7  C8  UNL     1      26.048   6.302  48.488  1.00  0.00     0.001 A 
HETATM    8  C9  UNL     1      27.140   5.448  48.558  1.00  0.00     0.002 A 
HETATM    9  C10 UNL     1      27.058   4.318  49.341  1.00  0.00     0.030 A 
HETATM   10  C11 UNL     1      25.875   4.072  50.039  1.00  0.00     0.041 A 
HETATM   11  N2  UNL     1      25.164   3.200  50.942  1.00  0.00    -0.341 N 
HETATM   12  C12 UNL     1      25.175   1.974  51.753  1.00  0.00     0.226 C 
HETATM   13  C13 UNL     1      26.524   1.317  51.642  1.00  0.00     0.054 C 
HETATM   14  C14 UNL     1      26.720   0.529  52.932  1.00  0.00     0.004 C 
HETATM   15  C15 UNL     1      25.613  -0.473  53.062  1.00  0.00     0.004 C 
HETATM   16  C16 UNL     1      24.325   0.123  53.560  1.00  0.00     0.049 C 
HETATM   17  C17 UNL     1      23.473   0.722  52.479  1.00  0.00     0.215 C 
HETATM   18  N3  UNL     1      22.863   1.970  52.885  1.00  0.00    -0.210 NA
HETATM   19  O1  UNL     1      24.226   1.050  51.325  1.00  0.00    -0.345 OA
HETATM   20  H22 UNL     1      22.743   2.063  53.907  1.00  0.00     0.149 HD
ENDROOT
BRANCH   1  21
HETATM   21  C2  UNL     1      20.409   2.266  52.697  1.00  0.00     0.152 C 
BRANCH  21  22
HETATM   22  C1  UNL     1      19.328   2.332  51.640  1.00  0.00     0.101 C 
HETATM   23  I1  UNL     1      18.427   0.421  51.427  1.00  0.00    -0.088 I 
ENDBRANCH  21  22
ENDBRANCH   1  21
TORSDOF 2
ENDMDL
MODEL 8
REMARK VINA RESULT:      -7.5      3.964      6.570
REMARK  2 active torsions:
REMARK  status: ('A' for Active; 'I' for Inactive)
REMARK    1  A    between atoms: C1_2  and  C2_3 
REMARK    2  A    between atoms: C2_3  and  N1_4 
ROOT
HETATM    1  N1  UNL     1      19.605   1.500  50.870  1.00  0.00    -0.321 N 
HETATM    2  C3  UNL     1      20.654   1.331  49.928  1.00  0.00     0.103 C 
HETATM    3  C4  UNL     1      21.929   1.664  49.944  1.00  0.00     0.021 C 
HETATM    4  C5  UNL     1      22.626   2.352  51.047  1.00  0.00     0.147 A 
HETATM    5  C6  UNL     1      24.031   2.714  50.698  1.00  0.00    -0.005 A 
HETATM    6  C7  UNL     1      24.894   3.511  49.969  1.00  0.00     0.012 A 
HETATM    7  C8  UNL     1      26.258   3.295  50.131  1.00  0.00     0.001 A 
HETATM    8  C9  UNL     1      26.769   2.327  50.983  1.00  0.00     0.002 A 
HETATM    9  C10 UNL     1      25.896   1.541  51.703  1.00  0.00     0.030 A 
HETATM   10  C11 UNL     1      24.525   1.748  51.549  1.00  0.00     0.041 A 
HETATM   11  N2  UNL     1      23.192   1.354  51.935  1.00  0.00    -0.341 N 
HETATM   12  C12 UNL     1      22.343   0.472  52.748  1.00  0.00     0.226 C 
HETATM   13  C13 UNL     1      23.215  -0.418  53.591  1.00  0.00     0.054 C 
HETATM   14  C14 UNL     1      22.393  -0.773  54.825  1.00  0.00     0.004 C 
HETATM   15  C15 UNL     1      21.136  -1.464  54.388  1.00  0.00     0.004 C 
HETATM   16  C16 UNL     1      20.078  -0.518  53.891  1.00  0.00     0.049 C 
HETATM   17  C17 UNL     1      20.220  -0.153  52.441  1.00  0.00     0.215 C 
HETATM   18  N3  UNL     1      19.951   1.247  52.196  1.00  0.00    -0.210 NA
HETATM   19  O1  UNL     1      21.540  -0.353  51.967  1.00  0.00    -0.345 OA
HETATM   20  H22 UNL     1      19.331   1.683  52.899  1.00  0.00     0.149 HD
ENDROOT
BRANCH   1  21
HETATM   21  C2  UNL     1      18.275   1.905  50.493  1.00  0.00     0.152 C 
BRANCH  21  22
HETATM   22  C1  UNL     1      17.488   0.781  49.855  1.00  0.00     0.101 C 
HETATM   23  I1  UNL     1      16.355  -0.225  51.343  1.00  0.00    -0.088 I 
ENDBRANCH  21  22
ENDBRANCH   1  21
TORSDOF 2
ENDMDL
MODEL 9
REMARK VINA RESULT:      -7.4      3.063      4.853
REMARK  2 active torsions:
REMARK  status: ('A' for Active; 'I' for Inactive)
REMARK    1  A    between atoms: C1_2  and  C2_3 
REMARK    2  A    between atoms: C2_3  and  N1_4 
ROOT
HETATM    1  N1  UNL     1      21.990   5.446  50.440  1.00  0.00    -0.321 N 
HETATM    2  C3  UNL     1      22.145   4.921  51.750  1.00  0.00     0.103 C 
HETATM    3  C4  UNL     1      22.538   3.745  52.198  1.00  0.00     0.021 C 
HETATM    4  C5  UNL     1      22.946   2.598  51.365  1.00  0.00     0.147 A 
HETATM    5  C6  UNL     1      23.196   1.367  52.172  1.00  0.00    -0.005 A 
HETATM    6  C7  UNL     1      22.681   0.332  52.930  1.00  0.00     0.012 A 
HETATM    7  C8  UNL     1      23.581  -0.586  53.459  1.00  0.00     0.001 A 
HETATM    8  C9  UNL     1      24.950  -0.499  53.253  1.00  0.00     0.002 A 
HETATM    9  C10 UNL     1      25.449   0.538  52.495  1.00  0.00     0.030 A 
HETATM   10  C11 UNL     1      24.555   1.466  51.960  1.00  0.00     0.041 A 
HETATM   11  N2  UNL     1      24.381   2.656  51.163  1.00  0.00    -0.341 N 
HETATM   12  C12 UNL     1      25.007   3.720  50.366  1.00  0.00     0.226 C 
HETATM   13  C13 UNL     1      26.492   3.487  50.304  1.00  0.00     0.054 C 
HETATM   14  C14 UNL     1      26.968   4.126  49.005  1.00  0.00     0.004 C 
HETATM   15  C15 UNL     1      26.627   5.586  49.028  1.00  0.00     0.004 C 
HETATM   16  C16 UNL     1      25.187   5.865  48.698  1.00  0.00     0.049 C 
HETATM   17  C17 UNL     1      24.262   5.770  49.878  1.00  0.00     0.215 C 
HETATM   18  N3  UNL     1      23.011   5.124  49.546  1.00  0.00    -0.210 NA
HETATM   19  O1  UNL     1      24.807   4.981  50.921  1.00  0.00    -0.345 OA
HETATM   20  H22 UNL     1      22.754   5.197  48.548  1.00  0.00     0.149 HD
ENDROOT
BRANCH   1  21
HETATM   21  C2  UNL     1      20.864   6.255  50.051  1.00  0.00     0.152 C 
BRANCH  21  22
HETATM   22  C1  UNL     1      21.084   7.725  50.333  1.00  0.00     0.101 C 
HETATM   23  I1  UNL     1      19.667   8.876  49.248  1.00  0.00    -0.088 I 
ENDBRANCH  21  22
ENDBRANCH   1  21
TORSDOF 2
ENDMDL
