MODEL 1
REMARK VINA RESULT:      -7.7      0.000      0.000
REMARK  0 active torsions:
REMARK  status: ('A' for Active; 'I' for Inactive)
ROOT
HETATM    1  O1  UNL     1      22.997   3.513  50.328  1.00  0.00    -0.267 OA
HETATM    2  C1  UNL     1      22.545   2.467  50.882  1.00  0.00     0.263 C 
HETATM    3  C2  UNL     1      21.846   1.330  50.231  1.00  0.00     0.079 C 
HETATM    4 BR1  UNL     1      21.521   1.364  48.374  1.00  0.00    -0.045 Br
HETATM    5  C3  UNL     1      21.510   0.359  51.111  1.00  0.00     0.035 C 
HETATM    6  C4  UNL     1      22.130   0.452  52.457  1.00  0.00    -0.021 C 
HETATM    7  C5  UNL     1      22.644  -0.663  52.942  1.00  0.00     0.122 C 
HETATM    8  N1  UNL     1      23.275  -0.762  54.194  1.00  0.00    -0.277 N 
HETATM    9  O2  UNL     1      24.633  -0.878  54.003  1.00  0.00    -0.279 OA
HETATM   10  C6  UNL     1      25.052   0.337  53.490  1.00  0.00     0.225 C 
HETATM   11  C7  UNL     1      26.514   0.491  53.224  1.00  0.00     0.120 C 
HETATM   12  C8  UNL     1      27.269  -0.284  54.251  1.00  0.00    -0.007 C 
HETATM   13  C9  UNL     1      28.558  -0.208  54.571  1.00  0.00    -0.018 C 
HETATM   14  C10 UNL     1      29.415   0.775  53.828  1.00  0.00     0.118 C 
HETATM   15  S1  UNL     1      28.474   2.287  53.494  1.00  0.00    -0.076 SA
HETATM   16  N2  UNL     1      26.771   1.912  53.334  1.00  0.00    -0.229 NA
HETATM   17  C11 UNL     1      26.129   2.733  52.381  1.00  0.00     0.248 C 
HETATM   18  N3  UNL     1      24.748   2.780  52.369  1.00  0.00    -0.285 NA
HETATM   19  C12 UNL     1      23.867   3.644  52.661  1.00  0.00     0.251 C 
HETATM   20  N4  UNL     1      22.876   2.641  52.281  1.00  0.00    -0.317 N 
HETATM   21  C13 UNL     1      22.130   1.760  53.158  1.00  0.00     0.168 C 
HETATM   22  H3  UNL     1      22.413  -0.707  54.777  1.00  0.00     0.193 HD
ENDROOT
TORSDOF 0
ENDMDL
MODEL 2
REMARK VINA RESULT:      -7.6      3.221      6.300
REMARK  0 active torsions:
REMARK  status: ('A' for Active; 'I' for Inactive)
ROOT
HETATM    1  O1  UNL     1      24.095  -0.826  53.236  1.00  0.00    -0.267 OA
HETATM    2  C1  UNL     1      25.000   0.008  52.935  1.00  0.00     0.263 C 
HETATM    3  C2  UNL     1      26.403  -0.281  52.549  1.00  0.00     0.079 C 
HETATM    4 BR1  UNL     1      27.016  -2.064  52.495  1.00  0.00    -0.045 Br
HETATM    5  C3  UNL     1      27.105   0.842  52.272  1.00  0.00     0.035 C 
HETATM    6  C4  UNL     1      26.312   2.087  52.117  1.00  0.00    -0.021 C 
HETATM    7  C5  UNL     1      26.601   2.838  51.071  1.00  0.00     0.122 C 
HETATM    8  N1  UNL     1      25.951   4.046  50.761  1.00  0.00    -0.277 N 
HETATM    9  O2  UNL     1      25.119   3.843  49.684  1.00  0.00    -0.279 OA
HETATM   10  C6  UNL     1      24.113   3.004  50.129  1.00  0.00     0.225 C 
HETATM   11  C7  UNL     1      23.042   2.652  49.150  1.00  0.00     0.120 C 
HETATM   12  C8  UNL     1      22.813   3.822  48.254  1.00  0.00    -0.007 C 
HETATM   13  C9  UNL     1      21.788   4.061  47.441  1.00  0.00    -0.018 C 
HETATM   14  C10 UNL     1      20.683   3.047  47.379  1.00  0.00     0.118 C 
HETATM   15  S1  UNL     1      20.390   2.348  49.025  1.00  0.00    -0.076 SA
HETATM   16  N2  UNL     1      21.875   2.360  49.955  1.00  0.00    -0.229 NA
HETATM   17  C11 UNL     1      21.977   1.244  50.815  1.00  0.00     0.248 C 
HETATM   18  N3  UNL     1      22.915   1.271  51.827  1.00  0.00    -0.285 NA
HETATM   19  C12 UNL     1      22.883   1.349  53.093  1.00  0.00     0.251 C 
HETATM   20  N4  UNL     1      24.342   1.294  53.050  1.00  0.00    -0.317 N 
HETATM   21  C13 UNL     1      25.270   2.405  53.126  1.00  0.00     0.168 C 
HETATM   22  H3  UNL     1      26.390   4.624  51.510  1.00  0.00     0.193 HD
ENDROOT
TORSDOF 0
ENDMDL
MODEL 3
REMARK VINA RESULT:      -7.4      3.378      4.778
REMARK  0 active torsions:
REMARK  status: ('A' for Active; 'I' for Inactive)
ROOT
HETATM    1  O1  UNL     1      21.345   3.821  52.136  1.00  0.00    -0.267 OA
HETATM    2  C1  UNL     1      22.229   2.914  52.195  1.00  0.00     0.263 C 
HETATM    3  C2  UNL     1      22.087   1.488  51.811  1.00  0.00     0.079 C 
HETATM    4 BR1  UNL     1      20.432   0.845  51.174  1.00  0.00    -0.045 Br
HETATM    5  C3  UNL     1      23.233   0.790  51.981  1.00  0.00     0.035 C 
HETATM    6  C4  UNL     1      24.458   1.593  52.226  1.00  0.00    -0.021 C 
HETATM    7  C5  UNL     1      25.525   1.260  51.525  1.00  0.00     0.122 C 
HETATM    8  N1  UNL     1      26.767   1.911  51.619  1.00  0.00    -0.277 N 
HETATM    9  O2  UNL     1      26.955   2.682  50.494  1.00  0.00    -0.279 OA
HETATM   10  C6  UNL     1      26.018   3.696  50.563  1.00  0.00     0.225 C 
HETATM   11  C7  UNL     1      26.033   4.708  49.464  1.00  0.00     0.120 C 
HETATM   12  C8  UNL     1      27.443   4.908  49.020  1.00  0.00    -0.007 C 
HETATM   13  C9  UNL     1      27.954   5.891  48.286  1.00  0.00    -0.018 C 
HETATM   14  C10 UNL     1      27.029   6.975  47.814  1.00  0.00     0.118 C 
HETATM   15  S1  UNL     1      25.802   7.344  49.095  1.00  0.00    -0.076 SA
HETATM   16  N2  UNL     1      25.484   5.912  50.052  1.00  0.00    -0.229 NA
HETATM   17  C11 UNL     1      24.138   5.839  50.473  1.00  0.00     0.248 C 
HETATM   18  N3  UNL     1      23.807   4.956  51.482  1.00  0.00    -0.285 NA
HETATM   19  C12 UNL     1      23.440   5.057  52.692  1.00  0.00     0.251 C 
HETATM   20  N4  UNL     1      23.397   3.597  52.714  1.00  0.00    -0.317 N 
HETATM   21  C13 UNL     1      24.408   2.691  53.223  1.00  0.00     0.168 C 
HETATM   22  H3  UNL     1      27.046   1.522  52.545  1.00  0.00     0.193 HD
ENDROOT
TORSDOF 0
ENDMDL
MODEL 4
REMARK VINA RESULT:      -7.3      2.801      4.175
REMARK  0 active torsions:
REMARK  status: ('A' for Active; 'I' for Inactive)
ROOT
HETATM    1  O1  UNL     1      21.215   3.733  51.013  1.00  0.00    -0.267 OA
HETATM    2  C1  UNL     1      22.214   4.176  50.371  1.00  0.00     0.263 C 
HETATM    3  C2  UNL     1      22.588   5.595  50.147  1.00  0.00     0.079 C 
HETATM    4 BR1  UNL     1      21.500   6.974  50.835  1.00  0.00    -0.045 Br
HETATM    5  C3  UNL     1      23.729   5.723  49.432  1.00  0.00     0.035 C 
HETATM    6  C4  UNL     1      24.534   4.487  49.258  1.00  0.00    -0.021 C 
HETATM    7  C5  UNL     1      25.830   4.598  49.479  1.00  0.00     0.122 C 
HETATM    8  N1  UNL     1      26.744   3.535  49.369  1.00  0.00    -0.277 N 
HETATM    9  O2  UNL     1      27.129   3.144  50.631  1.00  0.00    -0.279 OA
HETATM   10  C6  UNL     1      26.007   2.587  51.219  1.00  0.00     0.225 C 
HETATM   11  C7  UNL     1      26.167   2.042  52.601  1.00  0.00     0.120 C 
HETATM   12  C8  UNL     1      27.542   1.479  52.734  1.00  0.00    -0.007 C 
HETATM   13  C9  UNL     1      28.019   0.659  53.666  1.00  0.00    -0.018 C 
HETATM   14  C10 UNL     1      27.089   0.206  54.754  1.00  0.00     0.118 C 
HETATM   15  S1  UNL     1      25.429  -0.058  54.078  1.00  0.00    -0.076 SA
HETATM   16  N2  UNL     1      25.156   1.012  52.719  1.00  0.00    -0.229 NA
HETATM   17  C11 UNL     1      23.814   1.448  52.642  1.00  0.00     0.248 C 
HETATM   18  N3  UNL     1      23.372   2.026  51.468  1.00  0.00    -0.285 NA
HETATM   19  C12 UNL     1      22.576   1.697  50.538  1.00  0.00     0.251 C 
HETATM   20  N4  UNL     1      22.898   2.981  49.920  1.00  0.00    -0.317 N 
HETATM   21  C13 UNL     1      23.847   3.234  48.854  1.00  0.00     0.168 C 
HETATM   22  H3  UNL     1      26.754   3.481  48.329  1.00  0.00     0.193 HD
ENDROOT
TORSDOF 0
ENDMDL
MODEL 5
REMARK VINA RESULT:      -6.8      2.010      2.636
REMARK  0 active torsions:
REMARK  status: ('A' for Active; 'I' for Inactive)
ROOT
HETATM    1  O1  UNL     1      21.592   4.767  49.901  1.00  0.00    -0.267 OA
HETATM    2  C1  UNL     1      20.879   3.750  50.151  1.00  0.00     0.263 C 
HETATM    3  C2  UNL     1      20.158   2.890  49.179  1.00  0.00     0.079 C 
HETATM    4 BR1  UNL     1      20.228   3.290  47.337  1.00  0.00    -0.045 Br
HETATM    5  C3  UNL     1      19.502   1.870  49.778  1.00  0.00     0.035 C 
HETATM    6  C4  UNL     1      19.842   1.620  51.202  1.00  0.00    -0.021 C 
HETATM    7  C5  UNL     1      20.065   0.364  51.538  1.00  0.00     0.122 C 
HETATM    8  N1  UNL     1      20.405  -0.059  52.834  1.00  0.00    -0.277 N 
HETATM    9  O2  UNL     1      21.738  -0.399  52.860  1.00  0.00    -0.279 OA
HETATM   10  C6  UNL     1      22.438   0.780  52.678  1.00  0.00     0.225 C 
HETATM   11  C7  UNL     1      23.929   0.694  52.702  1.00  0.00     0.120 C 
HETATM   12  C8  UNL     1      24.328  -0.369  53.669  1.00  0.00    -0.007 C 
HETATM   13  C9  UNL     1      25.520  -0.595  54.213  1.00  0.00    -0.018 C 
HETATM   14  C10 UNL     1      26.653   0.315  53.838  1.00  0.00     0.118 C 
HETATM   15  S1  UNL     1      26.048   2.013  53.654  1.00  0.00    -0.076 SA
HETATM   16  N2  UNL     1      24.376   2.001  53.133  1.00  0.00    -0.229 NA
HETATM   17  C11 UNL     1      24.078   3.076  52.266  1.00  0.00     0.248 C 
HETATM   18  N3  UNL     1      22.754   3.387  52.027  1.00  0.00    -0.285 NA
HETATM   19  C12 UNL     1      21.978   4.344  52.329  1.00  0.00     0.251 C 
HETATM   20  N4  UNL     1      20.941   3.625  51.594  1.00  0.00    -0.317 N 
HETATM   21  C13 UNL     1      19.903   2.771  52.137  1.00  0.00     0.168 C 
HETATM   22  H3  UNL     1      19.462   0.063  53.261  1.00  0.00     0.193 HD
ENDROOT
TORSDOF 0
ENDMDL
MODEL 6
REMARK VINA RESULT:      -6.6      8.518      9.952
REMARK  0 active torsions:
REMARK  status: ('A' for Active; 'I' for Inactive)
ROOT
HETATM    1  O1  UNL     1      29.813  10.957  47.199  1.00  0.00    -0.267 OA
HETATM    2  C1  UNL     1      28.973  10.040  47.442  1.00  0.00     0.263 C 
HETATM    3  C2  UNL     1      27.734   9.727  46.687  1.00  0.00     0.079 C 
HETATM    4 BR1  UNL     1      27.253  10.773  45.193  1.00  0.00    -0.045 Br
HETATM    5  C3  UNL     1      27.068   8.669  47.203  1.00  0.00     0.035 C 
HETATM    6  C4  UNL     1      27.805   7.855  48.202  1.00  0.00    -0.021 C 
HETATM    7  C5  UNL     1      27.756   6.547  48.042  1.00  0.00     0.122 C 
HETATM    8  N1  UNL     1      28.397   5.622  48.885  1.00  0.00    -0.277 N 
HETATM    9  O2  UNL     1      29.489   5.100  48.229  1.00  0.00    -0.279 OA
HETATM   10  C6  UNL     1      30.389   6.142  48.095  1.00  0.00     0.225 C 
HETATM   11  C7  UNL     1      31.694   5.828  47.439  1.00  0.00     0.120 C 
HETATM   12  C8  UNL     1      32.083   4.433  47.796  1.00  0.00    -0.007 C 
HETATM   13  C9  UNL     1      33.268   3.843  47.677  1.00  0.00    -0.018 C 
HETATM   14  C10 UNL     1      34.405   4.645  47.114  1.00  0.00     0.118 C 
HETATM   15  S1  UNL     1      34.301   6.358  47.692  1.00  0.00    -0.076 SA
HETATM   16  N2  UNL     1      32.629   6.796  47.976  1.00  0.00    -0.229 NA
HETATM   17  C11 UNL     1      32.369   8.148  47.663  1.00  0.00     0.248 C 
HETATM   18  N3  UNL     1      31.201   8.723  48.125  1.00  0.00    -0.285 NA
HETATM   19  C12 UNL     1      30.901   9.602  48.988  1.00  0.00     0.251 C 
HETATM   20  N4  UNL     1      29.508   9.376  48.613  1.00  0.00    -0.317 N 
HETATM   21  C13 UNL     1      28.533   8.549  49.295  1.00  0.00     0.168 C 
HETATM   22  H3  UNL     1      27.750   5.718  49.696  1.00  0.00     0.193 HD
ENDROOT
TORSDOF 0
ENDMDL
MODEL 7
REMARK VINA RESULT:      -6.6     21.154     23.159
REMARK  0 active torsions:
REMARK  status: ('A' for Active; 'I' for Inactive)
ROOT
HETATM    1  O1  UNL     1      42.883  -1.890  68.324  1.00  0.00    -0.267 OA
HETATM    2  C1  UNL     1      41.668  -1.970  67.973  1.00  0.00     0.263 C 
HETATM    3  C2  UNL     1      40.767  -3.143  68.100  1.00  0.00     0.079 C 
HETATM    4 BR1  UNL     1      41.417  -4.754  68.833  1.00  0.00    -0.045 Br
HETATM    5  C3  UNL     1      39.520  -2.888  67.643  1.00  0.00     0.035 C 
HETATM    6  C4  UNL     1      39.197  -1.462  67.383  1.00  0.00    -0.021 C 
HETATM    7  C5  UNL     1      38.043  -1.028  67.853  1.00  0.00     0.122 C 
HETATM    8  N1  UNL     1      37.575   0.289  67.708  1.00  0.00    -0.277 N 
HETATM    9  O2  UNL     1      37.675   0.936  68.918  1.00  0.00    -0.279 OA
HETATM   10  C6  UNL     1      39.028   1.066  69.173  1.00  0.00     0.225 C 
HETATM   11  C7  UNL     1      39.416   1.778  70.428  1.00  0.00     0.120 C 
HETATM   12  C8  UNL     1      38.412   2.847  70.698  1.00  0.00    -0.007 C 
HETATM   13  C9  UNL     1      38.503   3.885  71.524  1.00  0.00    -0.018 C 
HETATM   14  C10 UNL     1      39.767   4.052  72.315  1.00  0.00     0.118 C 
HETATM   15  S1  UNL     1      41.194   3.565  71.311  1.00  0.00    -0.076 SA
HETATM   16  N2  UNL     1      40.726   2.332  70.159  1.00  0.00    -0.229 NA
HETATM   17  C11 UNL     1      41.759   1.398  69.925  1.00  0.00     0.248 C 
HETATM   18  N3  UNL     1      41.664   0.568  68.825  1.00  0.00    -0.285 NA
HETATM   19  C12 UNL     1      42.275   0.453  67.720  1.00  0.00     0.251 C 
HETATM   20  N4  UNL     1      41.373  -0.659  67.432  1.00  0.00    -0.317 N 
HETATM   21  C13 UNL     1      40.169  -0.633  66.625  1.00  0.00     0.168 C 
HETATM   22  H3  UNL     1      37.333   0.229  66.695  1.00  0.00     0.193 HD
ENDROOT
TORSDOF 0
ENDMDL
MODEL 8
REMARK VINA RESULT:      -6.5      4.483      6.559
REMARK  0 active torsions:
REMARK  status: ('A' for Active; 'I' for Inactive)
ROOT
HETATM    1  O1  UNL     1      26.647   1.910  50.859  1.00  0.00    -0.267 OA
HETATM    2  C1  UNL     1      25.663   2.422  51.473  1.00  0.00     0.263 C 
HETATM    3  C2  UNL     1      25.397   2.396  52.933  1.00  0.00     0.079 C 
HETATM    4 BR1  UNL     1      26.588   1.502  54.091  1.00  0.00    -0.045 Br
HETATM    5  C3  UNL     1      24.263   3.055  53.264  1.00  0.00     0.035 C 
HETATM    6  C4  UNL     1      23.668   3.905  52.202  1.00  0.00    -0.021 C 
HETATM    7  C5  UNL     1      23.302   5.121  52.562  1.00  0.00     0.122 C 
HETATM    8  N1  UNL     1      22.727   6.064  51.692  1.00  0.00    -0.277 N 
HETATM    9  O2  UNL     1      23.660   7.034  51.404  1.00  0.00    -0.279 OA
HETATM   10  C6  UNL     1      24.641   6.411  50.654  1.00  0.00     0.225 C 
HETATM   11  C7  UNL     1      25.770   7.264  50.173  1.00  0.00     0.120 C 
HETATM   12  C8  UNL     1      25.245   8.630  49.887  1.00  0.00    -0.007 C 
HETATM   13  C9  UNL     1      25.811   9.611  49.190  1.00  0.00    -0.018 C 
HETATM   14  C10 UNL     1      27.163   9.361  48.586  1.00  0.00     0.118 C 
HETATM   15  S1  UNL     1      27.271   7.651  47.998  1.00  0.00    -0.076 SA
HETATM   16  N2  UNL     1      26.250   6.614  48.972  1.00  0.00    -0.229 NA
HETATM   17  C11 UNL     1      26.801   5.325  49.142  1.00  0.00     0.248 C 
HETATM   18  N3  UNL     1      25.986   4.311  49.604  1.00  0.00    -0.285 NA
HETATM   19  C12 UNL     1      25.481   3.257  49.113  1.00  0.00     0.251 C 
HETATM   20  N4  UNL     1      24.876   3.035  50.423  1.00  0.00    -0.317 N 
HETATM   21  C13 UNL     1      23.521   3.347  50.834  1.00  0.00     0.168 C 
HETATM   22  H3  UNL     1      21.787   5.619  51.622  1.00  0.00     0.193 HD
ENDROOT
TORSDOF 0
ENDMDL
MODEL 9
REMARK VINA RESULT:      -6.5      4.263      5.660
REMARK  0 active torsions:
REMARK  status: ('A' for Active; 'I' for Inactive)
ROOT
HETATM    1  O1  UNL     1      21.582   5.816  49.905  1.00  0.00    -0.267 OA
HETATM    2  C1  UNL     1      22.244   4.820  50.326  1.00  0.00     0.263 C 
HETATM    3  C2  UNL     1      21.951   3.382  50.104  1.00  0.00     0.079 C 
HETATM    4 BR1  UNL     1      20.426   2.874  49.117  1.00  0.00    -0.045 Br
HETATM    5  C3  UNL     1      22.871   2.573  50.677  1.00  0.00     0.035 C 
HETATM    6  C4  UNL     1      24.116   3.230  51.150  1.00  0.00    -0.021 C 
HETATM    7  C5  UNL     1      25.250   2.638  50.824  1.00  0.00     0.122 C 
HETATM    8  N1  UNL     1      26.522   3.118  51.178  1.00  0.00    -0.277 N 
HETATM    9  O2  UNL     1      27.127   3.649  50.062  1.00  0.00    -0.279 OA
HETATM   10  C6  UNL     1      26.401   4.780  49.734  1.00  0.00     0.225 C 
HETATM   11  C7  UNL     1      26.877   5.576  48.563  1.00  0.00     0.120 C 
HETATM   12  C8  UNL     1      28.366   5.499  48.510  1.00  0.00    -0.007 C 
HETATM   13  C9  UNL     1      29.215   6.262  47.828  1.00  0.00    -0.018 C 
HETATM   14  C10 UNL     1      28.652   7.365  46.980  1.00  0.00     0.118 C 
HETATM   15  S1  UNL     1      27.226   8.115  47.808  1.00  0.00    -0.076 SA
HETATM   16  N2  UNL     1      26.422   6.927  48.813  1.00  0.00    -0.229 NA
HETATM   17  C11 UNL     1      25.022   7.113  48.846  1.00  0.00     0.248 C 
HETATM   18  N3  UNL     1      24.291   6.472  49.827  1.00  0.00    -0.285 NA
HETATM   19  C12 UNL     1      23.651   6.829  50.862  1.00  0.00     0.251 C 
HETATM   20  N4  UNL     1      23.343   5.416  51.059  1.00  0.00    -0.317 N 
HETATM   21  C13 UNL     1      24.011   4.481  51.943  1.00  0.00     0.168 C 
HETATM   22  H3  UNL     1      26.481   2.860  52.187  1.00  0.00     0.193 HD
ENDROOT
TORSDOF 0
ENDMDL
