MODEL 1
REMARK VINA RESULT:      -7.8      0.000      0.000
REMARK  8 active torsions:
REMARK  status: ('A' for Active; 'I' for Inactive)
REMARK    1  A    between atoms: C2_2  and  N1_3 
REMARK    2  A    between atoms: N1_3  and  C3_4 
REMARK    3  A    between atoms: N1_3  and  C5_6 
REMARK    4  A    between atoms: C5_6  and  C6_7 
REMARK    5  A    between atoms: C6_7  and  N2_8 
REMARK       I    between atoms: N2_8  and  C7_9 
REMARK    6  A    between atoms: C7_9  and  C8_11 
REMARK    7  A    between atoms: C8_11  and  C9_12 
REMARK    8  A    between atoms: C9_12  and  P1_13 
ROOT
HETATM    1  P1  UNL     1      23.283   0.320  53.194  1.00  0.00     0.021 P 
HETATM    2  C10 UNL     1      24.803  -0.306  53.288  1.00  0.00     0.036 C 
HETATM    3 CL1  UNL     1      25.099  -0.984  54.882  1.00  0.00    -0.086 Cl
HETATM    4  C11 UNL     1      26.017  -0.444  52.380  1.00  0.00     0.092 C 
HETATM    5  C12 UNL     1      27.043   0.474  52.932  1.00  0.00    -0.044 A 
HETATM    6  C13 UNL     1      27.683  -0.077  54.012  1.00  0.00     0.011 A 
HETATM    7  C14 UNL     1      28.696   0.528  54.766  1.00  0.00     0.043 A 
HETATM    8  C15 UNL     1      29.088   1.811  54.380  1.00  0.00     0.117 A 
HETATM    9  F1  UNL     1      30.060   2.455  55.064  1.00  0.00    -0.206 F 
HETATM   10  C16 UNL     1      28.435   2.346  53.292  1.00  0.00     0.052 A 
HETATM   11  C17 UNL     1      27.422   1.744  52.536  1.00  0.00    -0.025 A 
HETATM   12  C18 UNL     1      26.998   2.610  51.425  1.00  0.00     0.207 C 
HETATM   13  O2  UNL     1      25.765   2.325  50.937  1.00  0.00    -0.383 OA
HETATM   14  C19 UNL     1      24.728   2.527  51.818  1.00  0.00     0.195 C 
HETATM   15  C20 UNL     1      23.446   2.063  51.159  1.00  0.00     0.001 C 
HETATM   16  C21 UNL     1      22.706   1.090  51.670  1.00  0.00     0.022 C 
ENDROOT
BRANCH   1  17
HETATM   17  C9  UNL     1      22.209  -0.818  53.650  1.00  0.00    -0.110 C 
BRANCH  17  18
HETATM   18  C8  UNL     1      21.321  -1.587  54.274  1.00  0.00     0.130 C 
BRANCH  18  19
HETATM   19  C7  UNL     1      20.006  -1.143  53.966  1.00  0.00     0.248 C 
HETATM   20  N2  UNL     1      18.836  -1.881  53.734  1.00  0.00    -0.355 N 
HETATM   21  H15 UNL     1      18.974  -2.916  53.807  1.00  0.00     0.162 HD
HETATM   22  O1  UNL     1      20.024   0.115  53.920  1.00  0.00    -0.268 OA
BRANCH  20  23
HETATM   23  C6  UNL     1      17.548  -1.313  53.421  1.00  0.00     0.153 C 
BRANCH  23  24
HETATM   24  C5  UNL     1      17.534  -0.961  51.949  1.00  0.00     0.292 C 
BRANCH  24  25
HETATM   25  N1  UNL     1      16.946   0.328  51.705  1.00  0.00     0.089 N 
BRANCH  25  26
HETATM   26  C2  UNL     1      15.523   0.300  51.728  1.00  0.00     0.268 C 
HETATM   27  C1  UNL     1      14.874   1.278  52.655  1.00  0.00     0.037 C 
ENDBRANCH  25  26
BRANCH  25  28
HETATM   28  C3  UNL     1      17.515   0.892  50.511  1.00  0.00     0.268 C 
HETATM   29  C4  UNL     1      19.011   0.823  50.548  1.00  0.00     0.037 C 
ENDBRANCH  25  28
ENDBRANCH  24  25
ENDBRANCH  23  24
ENDBRANCH  20  23
ENDBRANCH  18  19
ENDBRANCH  17  18
ENDBRANCH   1  17
TORSDOF 8
ENDMDL
MODEL 2
REMARK VINA RESULT:      -7.8      3.529      7.044
REMARK  8 active torsions:
REMARK  status: ('A' for Active; 'I' for Inactive)
REMARK    1  A    between atoms: C2_2  and  N1_3 
REMARK    2  A    between atoms: N1_3  and  C3_4 
REMARK    3  A    between atoms: N1_3  and  C5_6 
REMARK    4  A    between atoms: C5_6  and  C6_7 
REMARK    5  A    between atoms: C6_7  and  N2_8 
REMARK       I    between atoms: N2_8  and  C7_9 
REMARK    6  A    between atoms: C7_9  and  C8_11 
REMARK    7  A    between atoms: C8_11  and  C9_12 
REMARK    8  A    between atoms: C9_12  and  P1_13 
ROOT
HETATM    1  P1  UNL     1      21.731   1.683  52.414  1.00  0.00     0.021 P 
HETATM    2  C10 UNL     1      22.762   1.814  51.138  1.00  0.00     0.036 C 
HETATM    3 CL1  UNL     1      24.343   1.161  51.544  1.00  0.00    -0.086 Cl
HETATM    4  C11 UNL     1      22.722   2.354  49.714  1.00  0.00     0.092 C 
HETATM    5  C12 UNL     1      23.577   3.566  49.717  1.00  0.00    -0.044 A 
HETATM    6  C13 UNL     1      24.908   3.244  49.646  1.00  0.00     0.011 A 
HETATM    7  C14 UNL     1      25.975   4.151  49.636  1.00  0.00     0.043 A 
HETATM    8  C15 UNL     1      25.650   5.507  49.704  1.00  0.00     0.117 A 
HETATM    9  F1  UNL     1      26.631   6.437  49.699  1.00  0.00    -0.206 F 
HETATM   10  C16 UNL     1      24.309   5.809  49.772  1.00  0.00     0.052 A 
HETATM   11  C17 UNL     1      23.239   4.906  49.782  1.00  0.00    -0.025 A 
HETATM   12  C18 UNL     1      21.947   5.608  49.821  1.00  0.00     0.207 C 
HETATM   13  O2  UNL     1      20.917   4.851  50.276  1.00  0.00    -0.383 OA
HETATM   14  C19 UNL     1      21.022   4.451  51.588  1.00  0.00     0.195 C 
HETATM   15  C20 UNL     1      19.858   3.535  51.901  1.00  0.00     0.001 C 
HETATM   16  C21 UNL     1      20.036   2.279  52.282  1.00  0.00     0.022 C 
ENDROOT
BRANCH   1  17
HETATM   17  C9  UNL     1      21.708   0.135  52.924  1.00  0.00    -0.110 C 
BRANCH  17  18
HETATM   18  C8  UNL     1      21.941  -1.051  53.482  1.00  0.00     0.130 C 
BRANCH  18  19
HETATM   19  C7  UNL     1      23.046  -0.951  54.371  1.00  0.00     0.248 C 
HETATM   20  N2  UNL     1      24.376  -0.581  54.119  1.00  0.00    -0.355 N 
HETATM   21  H15 UNL     1      24.560  -0.344  53.117  1.00  0.00     0.162 HD
HETATM   22  O1  UNL     1      22.645  -1.266  55.522  1.00  0.00    -0.268 OA
BRANCH  20  23
HETATM   23  C6  UNL     1      25.419  -0.521  55.112  1.00  0.00     0.153 C 
BRANCH  23  24
HETATM   24  C5  UNL     1      26.433   0.513  54.668  1.00  0.00     0.292 C 
BRANCH  24  25
HETATM   25  N1  UNL     1      27.480  -0.063  53.869  1.00  0.00     0.089 N 
BRANCH  25  26
HETATM   26  C2  UNL     1      28.721  -0.147  54.561  1.00  0.00     0.268 C 
HETATM   27  C1  UNL     1      29.820  -0.851  53.830  1.00  0.00     0.037 C 
ENDBRANCH  25  26
BRANCH  25  28
HETATM   28  C3  UNL     1      27.543   0.619  52.605  1.00  0.00     0.268 C 
HETATM   29  C4  UNL     1      27.559   2.104  52.798  1.00  0.00     0.037 C 
ENDBRANCH  25  28
ENDBRANCH  24  25
ENDBRANCH  23  24
ENDBRANCH  20  23
ENDBRANCH  18  19
ENDBRANCH  17  18
ENDBRANCH   1  17
TORSDOF 8
ENDMDL
MODEL 3
REMARK VINA RESULT:      -7.6      3.695      7.258
REMARK  8 active torsions:
REMARK  status: ('A' for Active; 'I' for Inactive)
REMARK    1  A    between atoms: C2_2  and  N1_3 
REMARK    2  A    between atoms: N1_3  and  C3_4 
REMARK    3  A    between atoms: N1_3  and  C5_6 
REMARK    4  A    between atoms: C5_6  and  C6_7 
REMARK    5  A    between atoms: C6_7  and  N2_8 
REMARK       I    between atoms: N2_8  and  C7_9 
REMARK    6  A    between atoms: C7_9  and  C8_11 
REMARK    7  A    between atoms: C8_11  and  C9_12 
REMARK    8  A    between atoms: C9_12  and  P1_13 
ROOT
HETATM    1  P1  UNL     1      21.015   1.422  52.219  1.00  0.00     0.021 P 
HETATM    2  C10 UNL     1      22.456   1.824  51.532  1.00  0.00     0.036 C 
HETATM    3 CL1  UNL     1      23.475   2.680  52.679  1.00  0.00    -0.086 Cl
HETATM    4  C11 UNL     1      23.136   1.668  50.178  1.00  0.00     0.092 C 
HETATM    5  C12 UNL     1      23.198   3.031  49.596  1.00  0.00    -0.044 A 
HETATM    6  C13 UNL     1      24.232   3.758  50.125  1.00  0.00     0.011 A 
HETATM    7  C14 UNL     1      24.562   5.079  49.797  1.00  0.00     0.043 A 
HETATM    8  C15 UNL     1      23.762   5.710  48.843  1.00  0.00     0.117 A 
HETATM    9  F1  UNL     1      24.023   6.986  48.479  1.00  0.00    -0.206 F 
HETATM   10  C16 UNL     1      22.730   4.962  48.322  1.00  0.00     0.052 A 
HETATM   11  C17 UNL     1      22.397   3.642  48.647  1.00  0.00    -0.025 A 
HETATM   12  C18 UNL     1      21.255   3.167  47.851  1.00  0.00     0.207 C 
HETATM   13  O2  UNL     1      20.600   2.111  48.394  1.00  0.00    -0.383 OA
HETATM   14  C19 UNL     1      19.977   2.364  49.594  1.00  0.00     0.195 C 
HETATM   15  C20 UNL     1      19.392   1.066  50.110  1.00  0.00     0.001 C 
HETATM   16  C21 UNL     1      19.766   0.538  51.266  1.00  0.00     0.022 C 
ENDROOT
BRANCH   1  17
HETATM   17  C9  UNL     1      21.293   0.612  53.605  1.00  0.00    -0.110 C 
BRANCH  17  18
HETATM   18  C8  UNL     1      21.349  -0.258  54.610  1.00  0.00     0.130 C 
BRANCH  18  19
HETATM   19  C7  UNL     1      22.679  -0.742  54.747  1.00  0.00     0.248 C 
HETATM   20  N2  UNL     1      23.847  -0.378  54.060  1.00  0.00    -0.355 N 
HETATM   21  H15 UNL     1      23.692   0.368  53.342  1.00  0.00     0.162 HD
HETATM   22  O1  UNL     1      22.679  -1.623  55.647  1.00  0.00    -0.268 OA
BRANCH  20  23
HETATM   23  C6  UNL     1      25.151  -0.950  54.285  1.00  0.00     0.153 C 
BRANCH  23  24
HETATM   24  C5  UNL     1      26.092   0.167  54.685  1.00  0.00     0.292 C 
BRANCH  24  25
HETATM   25  N1  UNL     1      27.241   0.243  53.826  1.00  0.00     0.089 N 
BRANCH  25  26
HETATM   26  C2  UNL     1      28.463  -0.004  54.513  1.00  0.00     0.268 C 
HETATM   27  C1  UNL     1      29.627  -0.367  53.647  1.00  0.00     0.037 C 
ENDBRANCH  25  26
BRANCH  25  28
HETATM   28  C3  UNL     1      27.206   1.478  53.091  1.00  0.00     0.268 C 
HETATM   29  C4  UNL     1      26.676   1.262  51.707  1.00  0.00     0.037 C 
ENDBRANCH  25  28
ENDBRANCH  24  25
ENDBRANCH  23  24
ENDBRANCH  20  23
ENDBRANCH  18  19
ENDBRANCH  17  18
ENDBRANCH   1  17
TORSDOF 8
ENDMDL
MODEL 4
REMARK VINA RESULT:      -7.6      5.782      8.668
REMARK  8 active torsions:
REMARK  status: ('A' for Active; 'I' for Inactive)
REMARK    1  A    between atoms: C2_2  and  N1_3 
REMARK    2  A    between atoms: N1_3  and  C3_4 
REMARK    3  A    between atoms: N1_3  and  C5_6 
REMARK    4  A    between atoms: C5_6  and  C6_7 
REMARK    5  A    between atoms: C6_7  and  N2_8 
REMARK       I    between atoms: N2_8  and  C7_9 
REMARK    6  A    between atoms: C7_9  and  C8_11 
REMARK    7  A    between atoms: C8_11  and  C9_12 
REMARK    8  A    between atoms: C9_12  and  P1_13 
ROOT
HETATM    1  P1  UNL     1      25.752   6.757  49.675  1.00  0.00     0.021 P 
HETATM    2  C10 UNL     1      26.936   6.328  48.615  1.00  0.00     0.036 C 
HETATM    3 CL1  UNL     1      27.312   4.617  48.760  1.00  0.00    -0.086 Cl
HETATM    4  C11 UNL     1      27.795   7.008  47.557  1.00  0.00     0.092 C 
HETATM    5  C12 UNL     1      29.173   7.029  48.107  1.00  0.00    -0.044 A 
HETATM    6  C13 UNL     1      29.795   5.817  47.954  1.00  0.00     0.011 A 
HETATM    7  C14 UNL     1      31.095   5.501  48.370  1.00  0.00     0.043 A 
HETATM    8  C15 UNL     1      31.820   6.515  48.998  1.00  0.00     0.117 A 
HETATM    9  F1  UNL     1      33.080   6.278  49.426  1.00  0.00    -0.206 F 
HETATM   10  C16 UNL     1      31.178   7.725  49.140  1.00  0.00     0.052 A 
HETATM   11  C17 UNL     1      29.880   8.045  48.726  1.00  0.00    -0.025 A 
HETATM   12  C18 UNL     1      29.558   9.451  49.014  1.00  0.00     0.207 C 
HETATM   13  O2  UNL     1      28.229   9.718  49.066  1.00  0.00    -0.383 OA
HETATM   14  C19 UNL     1      27.547   9.095  50.085  1.00  0.00     0.195 C 
HETATM   15  C20 UNL     1      26.074   9.409  49.935  1.00  0.00     0.001 C 
HETATM   16  C21 UNL     1      25.168   8.460  49.749  1.00  0.00     0.022 C 
ENDROOT
BRANCH   1  17
HETATM   17  C9  UNL     1      24.473   5.769  49.475  1.00  0.00    -0.110 C 
BRANCH  17  18
HETATM   18  C8  UNL     1      23.590   4.773  49.476  1.00  0.00     0.130 C 
BRANCH  18  19
HETATM   19  C7  UNL     1      24.089   3.695  50.258  1.00  0.00     0.248 C 
HETATM   20  N2  UNL     1      24.865   3.712  51.427  1.00  0.00    -0.355 N 
HETATM   21  H15 UNL     1      25.100   4.677  51.757  1.00  0.00     0.162 HD
HETATM   22  O1  UNL     1      23.713   2.621  49.720  1.00  0.00    -0.268 OA
BRANCH  20  23
HETATM   23  C6  UNL     1      25.320   2.541  52.135  1.00  0.00     0.153 C 
BRANCH  23  24
HETATM   24  C5  UNL     1      26.812   2.410  51.917  1.00  0.00     0.292 C 
BRANCH  24  25
HETATM   25  N1  UNL     1      27.289   1.085  52.208  1.00  0.00     0.089 N 
BRANCH  25  26
HETATM   26  C2  UNL     1      26.249   0.112  52.217  1.00  0.00     0.268 C 
HETATM   27  C1  UNL     1      26.677  -1.285  52.535  1.00  0.00     0.037 C 
ENDBRANCH  25  26
BRANCH  25  28
HETATM   28  C3  UNL     1      28.089   1.119  53.402  1.00  0.00     0.268 C 
HETATM   29  C4  UNL     1      28.665   2.483  53.621  1.00  0.00     0.037 C 
ENDBRANCH  25  28
ENDBRANCH  24  25
ENDBRANCH  23  24
ENDBRANCH  20  23
ENDBRANCH  18  19
ENDBRANCH  17  18
ENDBRANCH   1  17
TORSDOF 8
ENDMDL
MODEL 5
REMARK VINA RESULT:      -7.4      3.964      8.339
REMARK  8 active torsions:
REMARK  status: ('A' for Active; 'I' for Inactive)
REMARK    1  A    between atoms: C2_2  and  N1_3 
REMARK    2  A    between atoms: N1_3  and  C3_4 
REMARK    3  A    between atoms: N1_3  and  C5_6 
REMARK    4  A    between atoms: C5_6  and  C6_7 
REMARK    5  A    between atoms: C6_7  and  N2_8 
REMARK       I    between atoms: N2_8  and  C7_9 
REMARK    6  A    between atoms: C7_9  and  C8_11 
REMARK    7  A    between atoms: C8_11  and  C9_12 
REMARK    8  A    between atoms: C9_12  and  P1_13 
ROOT
HETATM    1  P1  UNL     1      22.900   2.845  49.829  1.00  0.00     0.021 P 
HETATM    2  C10 UNL     1      22.157   2.777  51.297  1.00  0.00     0.036 C 
HETATM    3 CL1  UNL     1      23.295   2.305  52.550  1.00  0.00    -0.086 Cl
HETATM    4  C11 UNL     1      20.758   2.998  51.858  1.00  0.00     0.092 C 
HETATM    5  C12 UNL     1      20.262   1.656  52.251  1.00  0.00    -0.044 A 
HETATM    6  C13 UNL     1      20.776   1.264  53.460  1.00  0.00     0.011 A 
HETATM    7  C14 UNL     1      20.515   0.052  54.112  1.00  0.00     0.043 A 
HETATM    8  C15 UNL     1      19.652  -0.836  53.467  1.00  0.00     0.117 A 
HETATM    9  F1  UNL     1      19.357  -2.026  54.039  1.00  0.00    -0.206 F 
HETATM   10  C16 UNL     1      19.146  -0.423  52.255  1.00  0.00     0.052 A 
HETATM   11  C17 UNL     1      19.404   0.788  51.602  1.00  0.00    -0.025 A 
HETATM   12  C18 UNL     1      18.648   0.887  50.344  1.00  0.00     0.207 C 
HETATM   13  O2  UNL     1      19.159   1.777  49.457  1.00  0.00    -0.383 OA
HETATM   14  C19 UNL     1      20.407   1.466  48.971  1.00  0.00     0.195 C 
HETATM   15  C20 UNL     1      20.872   2.604  48.087  1.00  0.00     0.001 C 
HETATM   16  C21 UNL     1      21.968   3.299  48.356  1.00  0.00     0.022 C 
ENDROOT
BRANCH   1  17
HETATM   17  C9  UNL     1      24.212   3.804  49.941  1.00  0.00    -0.110 C 
BRANCH  17  18
HETATM   18  C8  UNL     1      25.419   4.336  50.118  1.00  0.00     0.130 C 
BRANCH  18  19
HETATM   19  C7  UNL     1      26.309   3.344  50.613  1.00  0.00     0.248 C 
HETATM   20  N2  UNL     1      26.529   2.904  51.927  1.00  0.00    -0.355 N 
HETATM   21  H15 UNL     1      25.935   3.394  52.635  1.00  0.00     0.162 HD
HETATM   22  O1  UNL     1      26.935   2.864  49.632  1.00  0.00    -0.268 OA
BRANCH  20  23
HETATM   23  C6  UNL     1      27.473   1.883  52.310  1.00  0.00     0.153 C 
BRANCH  23  24
HETATM   24  C5  UNL     1      26.763   0.547  52.266  1.00  0.00     0.292 C 
BRANCH  24  25
HETATM   25  N1  UNL     1      26.972  -0.219  53.464  1.00  0.00     0.089 N 
BRANCH  25  26
HETATM   26  C2  UNL     1      26.029   0.085  54.487  1.00  0.00     0.268 C 
HETATM   27  C1  UNL     1      24.830  -0.807  54.543  1.00  0.00     0.037 C 
ENDBRANCH  25  26
BRANCH  25  28
HETATM   28  C3  UNL     1      28.349  -0.108  53.866  1.00  0.00     0.268 C 
HETATM   29  C4  UNL     1      29.140  -1.288  53.392  1.00  0.00     0.037 C 
ENDBRANCH  25  28
ENDBRANCH  24  25
ENDBRANCH  23  24
ENDBRANCH  20  23
ENDBRANCH  18  19
ENDBRANCH  17  18
ENDBRANCH   1  17
TORSDOF 8
ENDMDL
MODEL 6
REMARK VINA RESULT:      -7.4      4.213      7.370
REMARK  8 active torsions:
REMARK  status: ('A' for Active; 'I' for Inactive)
REMARK    1  A    between atoms: C2_2  and  N1_3 
REMARK    2  A    between atoms: N1_3  and  C3_4 
REMARK    3  A    between atoms: N1_3  and  C5_6 
REMARK    4  A    between atoms: C5_6  and  C6_7 
REMARK    5  A    between atoms: C6_7  and  N2_8 
REMARK       I    between atoms: N2_8  and  C7_9 
REMARK    6  A    between atoms: C7_9  and  C8_11 
REMARK    7  A    between atoms: C8_11  and  C9_12 
REMARK    8  A    between atoms: C9_12  and  P1_13 
ROOT
HETATM    1  P1  UNL     1      23.593   1.770  51.421  1.00  0.00     0.021 P 
HETATM    2  C10 UNL     1      24.861   2.396  52.263  1.00  0.00     0.036 C 
HETATM    3 CL1  UNL     1      26.017   3.153  51.178  1.00  0.00    -0.086 Cl
HETATM    4  C11 UNL     1      25.307   2.485  53.717  1.00  0.00     0.092 C 
HETATM    5  C12 UNL     1      26.487   1.594  53.835  1.00  0.00    -0.044 A 
HETATM    6  C13 UNL     1      27.623   2.198  53.361  1.00  0.00     0.011 A 
HETATM    7  C14 UNL     1      28.902   1.629  53.322  1.00  0.00     0.043 A 
HETATM    8  C15 UNL     1      29.028   0.327  53.810  1.00  0.00     0.117 A 
HETATM    9  F1  UNL     1      30.234  -0.284  53.801  1.00  0.00    -0.206 F 
HETATM   10  C16 UNL     1      27.876  -0.260  54.283  1.00  0.00     0.052 A 
HETATM   11  C17 UNL     1      26.596   0.305  54.324  1.00  0.00    -0.025 A 
HETATM   12  C18 UNL     1      25.625  -0.615  54.936  1.00  0.00     0.207 C 
HETATM   13  O2  UNL     1      24.333  -0.352  54.618  1.00  0.00    -0.383 OA
HETATM   14  C19 UNL     1      24.016  -0.507  53.289  1.00  0.00     0.195 C 
HETATM   15  C20 UNL     1      22.579  -0.073  53.088  1.00  0.00     0.001 C 
HETATM   16  C21 UNL     1      22.254   0.926  52.281  1.00  0.00     0.022 C 
ENDROOT
BRANCH   1  17
HETATM   17  C9  UNL     1      22.960   2.931  50.469  1.00  0.00    -0.110 C 
BRANCH  17  18
HETATM   18  C8  UNL     1      22.201   3.707  49.699  1.00  0.00     0.130 C 
BRANCH  18  19
HETATM   19  C7  UNL     1      22.940   4.856  49.305  1.00  0.00     0.248 C 
HETATM   20  N2  UNL     1      23.178   6.054  49.995  1.00  0.00    -0.355 N 
HETATM   21  H15 UNL     1      22.737   6.084  50.943  1.00  0.00     0.162 HD
HETATM   22  O1  UNL     1      23.396   4.646  48.151  1.00  0.00    -0.268 OA
BRANCH  20  23
HETATM   23  C6  UNL     1      23.947   7.163  49.485  1.00  0.00     0.153 C 
BRANCH  23  24
HETATM   24  C5  UNL     1      25.368   7.019  49.985  1.00  0.00     0.292 C 
BRANCH  24  25
HETATM   25  N1  UNL     1      26.314   6.916  48.908  1.00  0.00     0.089 N 
BRANCH  25  26
HETATM   26  C2  UNL     1      26.918   5.629  48.822  1.00  0.00     0.268 C 
HETATM   27  C1  UNL     1      28.313   5.607  48.283  1.00  0.00     0.037 C 
ENDBRANCH  25  26
BRANCH  25  28
HETATM   28  C3  UNL     1      27.244   8.010  48.984  1.00  0.00     0.268 C 
HETATM   29  C4  UNL     1      26.994   8.840  50.205  1.00  0.00     0.037 C 
ENDBRANCH  25  28
ENDBRANCH  24  25
ENDBRANCH  23  24
ENDBRANCH  20  23
ENDBRANCH  18  19
ENDBRANCH  17  18
ENDBRANCH   1  17
TORSDOF 8
ENDMDL
MODEL 7
REMARK VINA RESULT:      -7.4      3.480      6.331
REMARK  8 active torsions:
REMARK  status: ('A' for Active; 'I' for Inactive)
REMARK    1  A    between atoms: C2_2  and  N1_3 
REMARK    2  A    between atoms: N1_3  and  C3_4 
REMARK    3  A    between atoms: N1_3  and  C5_6 
REMARK    4  A    between atoms: C5_6  and  C6_7 
REMARK    5  A    between atoms: C6_7  and  N2_8 
REMARK       I    between atoms: N2_8  and  C7_9 
REMARK    6  A    between atoms: C7_9  and  C8_11 
REMARK    7  A    between atoms: C8_11  and  C9_12 
REMARK    8  A    between atoms: C9_12  and  P1_13 
ROOT
HETATM    1  P1  UNL     1      20.724   0.626  51.227  1.00  0.00     0.021 P 
HETATM    2  C10 UNL     1      22.152   1.366  51.576  1.00  0.00     0.036 C 
HETATM    3 CL1  UNL     1      23.039   1.736  50.105  1.00  0.00    -0.086 Cl
HETATM    4  C11 UNL     1      22.914   1.802  52.821  1.00  0.00     0.092 C 
HETATM    5  C12 UNL     1      24.086   0.896  52.917  1.00  0.00    -0.044 A 
HETATM    6  C13 UNL     1      25.089   1.280  52.065  1.00  0.00     0.011 A 
HETATM    7  C14 UNL     1      26.324   0.638  51.906  1.00  0.00     0.043 A 
HETATM    8  C15 UNL     1      26.549  -0.497  52.687  1.00  0.00     0.117 A 
HETATM    9  F1  UNL     1      27.719  -1.168  52.584  1.00  0.00    -0.206 F 
HETATM   10  C16 UNL     1      25.529  -0.864  53.537  1.00  0.00     0.052 A 
HETATM   11  C17 UNL     1      24.295  -0.225  53.700  1.00  0.00    -0.025 A 
HETATM   12  C18 UNL     1      23.482  -0.887  54.731  1.00  0.00     0.207 C 
HETATM   13  O2  UNL     1      22.153  -0.632  54.640  1.00  0.00    -0.383 OA
HETATM   14  C19 UNL     1      21.544  -1.107  53.502  1.00  0.00     0.195 C 
HETATM   15  C20 UNL     1      20.101  -0.648  53.506  1.00  0.00     0.001 C 
HETATM   16  C21 UNL     1      19.608   0.126  52.550  1.00  0.00     0.022 C 
ENDROOT
BRANCH   1  17
HETATM   17  C9  UNL     1      19.899   1.539  50.157  1.00  0.00    -0.110 C 
BRANCH  17  18
HETATM   18  C8  UNL     1      19.330   2.510  49.448  1.00  0.00     0.130 C 
BRANCH  18  19
HETATM   19  C7  UNL     1      20.162   3.662  49.464  1.00  0.00     0.248 C 
HETATM   20  N2  UNL     1      21.005   4.180  48.469  1.00  0.00    -0.355 N 
HETATM   21  H15 UNL     1      21.004   3.616  47.587  1.00  0.00     0.162 HD
HETATM   22  O1  UNL     1      20.038   4.213  50.589  1.00  0.00    -0.268 OA
BRANCH  20  23
HETATM   23  C6  UNL     1      21.814   5.366  48.604  1.00  0.00     0.153 C 
BRANCH  23  24
HETATM   24  C5  UNL     1      23.247   4.935  48.833  1.00  0.00     0.292 C 
BRANCH  24  25
HETATM   25  N1  UNL     1      23.933   5.799  49.754  1.00  0.00     0.089 N 
BRANCH  25  26
HETATM   26  C2  UNL     1      25.212   5.301  50.132  1.00  0.00     0.268 C 
HETATM   27  C1  UNL     1      25.676   4.087  49.392  1.00  0.00     0.037 C 
ENDBRANCH  25  26
BRANCH  25  28
HETATM   28  C3  UNL     1      23.062   6.112  50.854  1.00  0.00     0.268 C 
HETATM   29  C4  UNL     1      23.362   5.244  52.037  1.00  0.00     0.037 C 
ENDBRANCH  25  28
ENDBRANCH  24  25
ENDBRANCH  23  24
ENDBRANCH  20  23
ENDBRANCH  18  19
ENDBRANCH  17  18
ENDBRANCH   1  17
TORSDOF 8
ENDMDL
MODEL 8
REMARK VINA RESULT:      -7.4      2.896      4.797
REMARK  8 active torsions:
REMARK  status: ('A' for Active; 'I' for Inactive)
REMARK    1  A    between atoms: C2_2  and  N1_3 
REMARK    2  A    between atoms: N1_3  and  C3_4 
REMARK    3  A    between atoms: N1_3  and  C5_6 
REMARK    4  A    between atoms: C5_6  and  C6_7 
REMARK    5  A    between atoms: C6_7  and  N2_8 
REMARK       I    between atoms: N2_8  and  C7_9 
REMARK    6  A    between atoms: C7_9  and  C8_11 
REMARK    7  A    between atoms: C8_11  and  C9_12 
REMARK    8  A    between atoms: C9_12  and  P1_13 
ROOT
HETATM    1  P1  UNL     1      20.801   0.579  51.631  1.00  0.00     0.021 P 
HETATM    2  C10 UNL     1      22.230   1.346  51.913  1.00  0.00     0.036 C 
HETATM    3 CL1  UNL     1      22.984   1.836  50.403  1.00  0.00    -0.086 Cl
HETATM    4  C11 UNL     1      23.077   1.734  53.119  1.00  0.00     0.092 C 
HETATM    5  C12 UNL     1      24.279   0.866  53.066  1.00  0.00    -0.044 A 
HETATM    6  C13 UNL     1      25.199   1.335  52.164  1.00  0.00     0.011 A 
HETATM    7  C14 UNL     1      26.435   0.747  51.868  1.00  0.00     0.043 A 
HETATM    8  C15 UNL     1      26.757  -0.424  52.556  1.00  0.00     0.117 A 
HETATM    9  F1  UNL     1      27.934  -1.045  52.319  1.00  0.00    -0.206 F 
HETATM   10  C16 UNL     1      25.821  -0.877  53.459  1.00  0.00     0.052 A 
HETATM   11  C17 UNL     1      24.585  -0.292  53.758  1.00  0.00    -0.025 A 
HETATM   12  C18 UNL     1      23.878  -1.044  54.806  1.00  0.00     0.207 C 
HETATM   13  O2  UNL     1      22.538  -0.831  54.835  1.00  0.00    -0.383 OA
HETATM   14  C19 UNL     1      21.854  -1.258  53.721  1.00  0.00     0.195 C 
HETATM   15  C20 UNL     1      20.403  -0.850  53.868  1.00  0.00     0.001 C 
HETATM   16  C21 UNL     1      19.811  -0.039  53.004  1.00  0.00     0.022 C 
ENDROOT
BRANCH   1  17
HETATM   17  C9  UNL     1      19.866   1.525  50.689  1.00  0.00    -0.110 C 
BRANCH  17  18
HETATM   18  C8  UNL     1      19.242   2.518  50.062  1.00  0.00     0.130 C 
BRANCH  18  19
HETATM   19  C7  UNL     1      18.385   3.194  50.975  1.00  0.00     0.248 C 
HETATM   20  N2  UNL     1      17.010   3.460  50.893  1.00  0.00    -0.355 N 
HETATM   21  H15 UNL     1      16.567   3.095  50.018  1.00  0.00     0.162 HD
HETATM   22  O1  UNL     1      19.080   3.558  51.959  1.00  0.00    -0.268 OA
BRANCH  20  23
HETATM   23  C6  UNL     1      16.244   4.166  51.890  1.00  0.00     0.153 C 
BRANCH  23  24
HETATM   24  C5  UNL     1      14.810   3.688  51.806  1.00  0.00     0.292 C 
BRANCH  24  25
HETATM   25  N1  UNL     1      14.291   3.300  53.089  1.00  0.00     0.089 N 
BRANCH  25  26
HETATM   26  C2  UNL     1      13.469   2.140  53.027  1.00  0.00     0.268 C 
HETATM   27  C1  UNL     1      14.188   0.834  53.153  1.00  0.00     0.037 C 
ENDBRANCH  25  26
BRANCH  25  28
HETATM   28  C3  UNL     1      13.675   4.438  53.717  1.00  0.00     0.268 C 
HETATM   29  C4  UNL     1      12.386   4.053  54.374  1.00  0.00     0.037 C 
ENDBRANCH  25  28
ENDBRANCH  24  25
ENDBRANCH  23  24
ENDBRANCH  20  23
ENDBRANCH  18  19
ENDBRANCH  17  18
ENDBRANCH   1  17
TORSDOF 8
ENDMDL
MODEL 9
REMARK VINA RESULT:      -7.3      4.677      7.935
REMARK  8 active torsions:
REMARK  status: ('A' for Active; 'I' for Inactive)
REMARK    1  A    between atoms: C2_2  and  N1_3 
REMARK    2  A    between atoms: N1_3  and  C3_4 
REMARK    3  A    between atoms: N1_3  and  C5_6 
REMARK    4  A    between atoms: C5_6  and  C6_7 
REMARK    5  A    between atoms: C6_7  and  N2_8 
REMARK       I    between atoms: N2_8  and  C7_9 
REMARK    6  A    between atoms: C7_9  and  C8_11 
REMARK    7  A    between atoms: C8_11  and  C9_12 
REMARK    8  A    between atoms: C9_12  and  P1_13 
ROOT
HETATM    1  P1  UNL     1      22.619   2.451  49.997  1.00  0.00     0.021 P 
HETATM    2  C10 UNL     1      23.915   2.650  50.992  1.00  0.00     0.036 C 
HETATM    3 CL1  UNL     1      25.377   2.937  50.061  1.00  0.00    -0.086 Cl
HETATM    4  C11 UNL     1      24.191   2.640  52.490  1.00  0.00     0.092 C 
HETATM    5  C12 UNL     1      24.982   1.411  52.748  1.00  0.00    -0.044 A 
HETATM    6  C13 UNL     1      26.302   1.584  52.420  1.00  0.00     0.011 A 
HETATM    7  C14 UNL     1      27.311   0.620  52.537  1.00  0.00     0.043 A 
HETATM    8  C15 UNL     1      26.935  -0.630  53.031  1.00  0.00     0.117 A 
HETATM    9  F1  UNL     1      27.859  -1.608  53.168  1.00  0.00    -0.206 F 
HETATM   10  C16 UNL     1      25.606  -0.782  53.356  1.00  0.00     0.052 A 
HETATM   11  C17 UNL     1      24.594   0.179  53.242  1.00  0.00    -0.025 A 
HETATM   12  C18 UNL     1      23.306  -0.342  53.726  1.00  0.00     0.207 C 
HETATM   13  O2  UNL     1      22.224   0.324  53.252  1.00  0.00    -0.383 OA
HETATM   14  C19 UNL     1      22.032   0.235  51.893  1.00  0.00     0.195 C 
HETATM   15  C20 UNL     1      20.857   1.114  51.519  1.00  0.00     0.001 C 
HETATM   16  C21 UNL     1      20.983   2.134  50.682  1.00  0.00     0.022 C 
ENDROOT
BRANCH   1  17
HETATM   17  C9  UNL     1      22.528   3.720  48.979  1.00  0.00    -0.110 C 
BRANCH  17  18
HETATM   18  C8  UNL     1      22.670   4.613  48.002  1.00  0.00     0.130 C 
BRANCH  18  19
HETATM   19  C7  UNL     1      23.239   5.806  48.526  1.00  0.00     0.248 C 
HETATM   20  N2  UNL     1      23.517   6.166  49.853  1.00  0.00    -0.355 N 
HETATM   21  H15 UNL     1      23.258   5.427  50.548  1.00  0.00     0.162 HD
HETATM   22  O1  UNL     1      23.487   6.572  47.558  1.00  0.00    -0.268 OA
BRANCH  20  23
HETATM   23  C6  UNL     1      24.097   7.420  50.266  1.00  0.00     0.153 C 
BRANCH  23  24
HETATM   24  C5  UNL     1      25.597   7.237  50.358  1.00  0.00     0.292 C 
BRANCH  24  25
HETATM   25  N1  UNL     1      26.306   8.100  49.453  1.00  0.00     0.089 N 
BRANCH  25  26
HETATM   26  C2  UNL     1      26.958   7.389  48.406  1.00  0.00     0.268 C 
HETATM   27  C1  UNL     1      27.048   5.908  48.592  1.00  0.00     0.037 C 
ENDBRANCH  25  26
BRANCH  25  28
HETATM   28  C3  UNL     1      27.161   8.978  50.205  1.00  0.00     0.268 C 
HETATM   29  C4  UNL     1      28.402   9.305  49.434  1.00  0.00     0.037 C 
ENDBRANCH  25  28
ENDBRANCH  24  25
ENDBRANCH  23  24
ENDBRANCH  20  23
ENDBRANCH  18  19
ENDBRANCH  17  18
ENDBRANCH   1  17
TORSDOF 8
ENDMDL
