MODEL 1
REMARK VINA RESULT:      -9.8      0.000      0.000
REMARK  3 active torsions:
REMARK  status: ('A' for Active; 'I' for Inactive)
REMARK    1  A    between atoms: C1_2  and  C2_3 
REMARK       I    between atoms: C1_2  and  N1_12 
REMARK    2  A    between atoms: C3_4  and  C4_5 
REMARK    3  A    between atoms: N1_12  and  C10_13 
ROOT
HETATM    1  C10 UNL     1      25.118   0.364  53.936  1.00  0.00     0.015 C 
HETATM    2  C11 UNL     1      26.247  -0.259  54.054  1.00  0.00     0.026 C 
HETATM    3  C12 UNL     1      27.688  -0.452  54.287  1.00  0.00     0.141 C 
HETATM    4  C13 UNL     1      28.241  -0.423  52.837  1.00  0.00     0.110 C 
HETATM    5  C14 UNL     1      27.794   0.941  52.437  1.00  0.00     0.108 C 
HETATM    6  N2  UNL     1      28.467   1.874  52.944  1.00  0.00    -0.229 NA
HETATM    7  C15 UNL     1      28.796   1.711  54.358  1.00  0.00     0.229 C 
HETATM    8  N3  UNL     1      28.364   0.640  54.938  1.00  0.00    -0.273 NA
HETATM    9  N4  UNL     1      26.777   1.457  51.591  1.00  0.00    -0.344 N 
HETATM   10  C16 UNL     1      25.692   2.327  51.789  1.00  0.00     0.041 A 
HETATM   11  C17 UNL     1      25.468   3.018  50.593  1.00  0.00     0.049 A 
HETATM   12  C18 UNL     1      24.441   3.965  50.460  1.00  0.00     0.013 A 
HETATM   13 BR1  UNL     1      24.051   4.950  48.903  1.00  0.00    -0.051 Br
HETATM   14  C19 UNL     1      23.651   4.195  51.568  1.00  0.00     0.020 A 
HETATM   15  C20 UNL     1      23.884   3.506  52.741  1.00  0.00     0.011 A 
HETATM   16  C21 UNL     1      24.890   2.575  52.876  1.00  0.00    -0.026 A 
HETATM   17  C22 UNL     1      25.160   1.825  54.147  1.00  0.00     0.097 C 
HETATM   18  H13 UNL     1      27.155   0.948  50.782  1.00  0.00     0.167 HD
ENDROOT
BRANCH   1  19
HETATM   19  N1  UNL     1      23.778  -0.097  53.632  1.00  0.00    -0.327 N 
HETATM   20  C1  UNL     1      23.014  -0.906  54.494  1.00  0.00     0.245 C 
HETATM   21  O1  UNL     1      23.381  -1.324  55.617  1.00  0.00    -0.268 OA
HETATM   22  H7  UNL     1      23.504   0.277  52.700  1.00  0.00     0.169 HD
BRANCH  20  23
HETATM   23  C2  UNL     1      21.688  -1.293  54.052  1.00  0.00     0.075 C 
HETATM   24  C3  UNL     1      20.595  -0.622  53.741  1.00  0.00     0.017 C 
BRANCH  24  25
HETATM   25  C4  UNL     1      19.262  -0.990  53.298  1.00  0.00    -0.036 A 
HETATM   26  C5  UNL     1      18.656  -0.184  52.364  1.00  0.00     0.013 A 
HETATM   27  C6  UNL     1      17.400  -0.534  51.951  1.00  0.00     0.024 A 
HETATM   28  C7  UNL     1      16.792  -1.657  52.468  1.00  0.00     0.034 A 
HETATM   29 CL1  UNL     1      15.184  -2.120  51.950  1.00  0.00    -0.084 Cl
HETATM   30  C8  UNL     1      17.421  -2.433  53.391  1.00  0.00     0.024 A 
HETATM   31  C9  UNL     1      18.687  -2.120  53.837  1.00  0.00     0.013 A 
ENDBRANCH  24  25
ENDBRANCH  20  23
ENDBRANCH   1  19
TORSDOF 3
ENDMDL
MODEL 2
REMARK VINA RESULT:      -9.4      5.530      9.544
REMARK  3 active torsions:
REMARK  status: ('A' for Active; 'I' for Inactive)
REMARK    1  A    between atoms: C1_2  and  C2_3 
REMARK       I    between atoms: C1_2  and  N1_12 
REMARK    2  A    between atoms: C3_4  and  C4_5 
REMARK    3  A    between atoms: N1_12  and  C10_13 
ROOT
HETATM    1  C10 UNL     1      23.376   4.076  51.728  1.00  0.00     0.015 C 
HETATM    2  C11 UNL     1      22.199   3.795  51.266  1.00  0.00     0.026 C 
HETATM    3  C12 UNL     1      20.834   3.244  51.237  1.00  0.00     0.141 C 
HETATM    4  C13 UNL     1      21.067   1.880  50.532  1.00  0.00     0.110 C 
HETATM    5  C14 UNL     1      22.025   1.272  51.497  1.00  0.00     0.108 C 
HETATM    6  N2  UNL     1      21.497   0.875  52.567  1.00  0.00    -0.229 NA
HETATM    7  C15 UNL     1      20.509   1.778  53.150  1.00  0.00     0.229 C 
HETATM    8  N3  UNL     1      20.282   2.883  52.517  1.00  0.00    -0.273 NA
HETATM    9  N4  UNL     1      23.421   1.012  51.498  1.00  0.00    -0.344 N 
HETATM   10  C16 UNL     1      24.483   1.393  52.334  1.00  0.00     0.041 A 
HETATM   11  C17 UNL     1      25.436   0.368  52.318  1.00  0.00     0.049 A 
HETATM   12  C18 UNL     1      26.629   0.446  53.052  1.00  0.00     0.013 A 
HETATM   13 BR1  UNL     1      27.976  -0.869  53.104  1.00  0.00    -0.051 Br
HETATM   14  C19 UNL     1      26.830   1.587  53.803  1.00  0.00     0.020 A 
HETATM   15  C20 UNL     1      25.882   2.589  53.809  1.00  0.00     0.011 A 
HETATM   16  C21 UNL     1      24.710   2.517  53.090  1.00  0.00    -0.026 A 
HETATM   17  C22 UNL     1      23.666   3.595  53.094  1.00  0.00     0.097 C 
HETATM   18  H13 UNL     1      23.340   0.431  50.654  1.00  0.00     0.167 HD
ENDROOT
BRANCH   1  19
HETATM   19  N1  UNL     1      24.500   4.793  51.159  1.00  0.00    -0.327 N 
HETATM   20  C1  UNL     1      25.260   4.320  50.073  1.00  0.00     0.245 C 
HETATM   21  O1  UNL     1      25.068   3.242  49.463  1.00  0.00    -0.268 OA
HETATM   22  H7  UNL     1      24.621   5.684  51.682  1.00  0.00     0.169 HD
BRANCH  20  23
HETATM   23  C2  UNL     1      26.360   5.146  49.614  1.00  0.00     0.075 C 
HETATM   24  C3  UNL     1      27.238   5.039  48.634  1.00  0.00     0.017 C 
BRANCH  24  25
HETATM   25  C4  UNL     1      28.344   5.852  48.160  1.00  0.00    -0.036 A 
HETATM   26  C5  UNL     1      28.057   7.121  47.719  1.00  0.00     0.013 A 
HETATM   27  C6  UNL     1      29.101   7.884  47.272  1.00  0.00     0.024 A 
HETATM   28  C7  UNL     1      30.380   7.371  47.278  1.00  0.00     0.034 A 
HETATM   29 CL1  UNL     1      31.728   8.334  46.709  1.00  0.00    -0.084 Cl
HETATM   30  C8  UNL     1      30.628   6.111  47.722  1.00  0.00     0.024 A 
HETATM   31  C9  UNL     1      29.609   5.306  48.181  1.00  0.00     0.013 A 
ENDBRANCH  24  25
ENDBRANCH  20  23
ENDBRANCH   1  19
TORSDOF 3
ENDMDL
MODEL 3
REMARK VINA RESULT:      -9.2      5.156      9.102
REMARK  3 active torsions:
REMARK  status: ('A' for Active; 'I' for Inactive)
REMARK    1  A    between atoms: C1_2  and  C2_3 
REMARK       I    between atoms: C1_2  and  N1_12 
REMARK    2  A    between atoms: C3_4  and  C4_5 
REMARK    3  A    between atoms: N1_12  and  C10_13 
ROOT
HETATM    1  C10 UNL     1      23.178   2.962  51.687  1.00  0.00     0.015 C 
HETATM    2  C11 UNL     1      22.030   2.410  51.457  1.00  0.00     0.026 C 
HETATM    3  C12 UNL     1      20.783   1.675  51.729  1.00  0.00     0.141 C 
HETATM    4  C13 UNL     1      21.180   0.231  51.318  1.00  0.00     0.110 C 
HETATM    5  C14 UNL     1      22.316   0.018  52.259  1.00  0.00     0.108 C 
HETATM    6  N2  UNL     1      21.968  -0.185  53.450  1.00  0.00    -0.229 NA
HETATM    7  C15 UNL     1      20.898   0.677  53.944  1.00  0.00     0.229 C 
HETATM    8  N3  UNL     1      20.425   1.553  53.119  1.00  0.00    -0.273 NA
HETATM    9  N4  UNL     1      23.729  -0.028  52.134  1.00  0.00    -0.344 N 
HETATM   10  C16 UNL     1      24.784   0.693  52.718  1.00  0.00     0.041 A 
HETATM   11  C17 UNL     1      25.893  -0.156  52.803  1.00  0.00     0.049 A 
HETATM   12  C18 UNL     1      27.118   0.269  53.338  1.00  0.00     0.013 A 
HETATM   13 BR1  UNL     1      28.671  -0.785  53.501  1.00  0.00    -0.051 Br
HETATM   14  C19 UNL     1      27.190   1.573  53.786  1.00  0.00     0.020 A 
HETATM   15  C20 UNL     1      26.088   2.398  53.696  1.00  0.00     0.011 A 
HETATM   16  C21 UNL     1      24.883   1.985  53.170  1.00  0.00    -0.026 A 
HETATM   17  C22 UNL     1      23.675   2.869  53.074  1.00  0.00     0.097 C 
HETATM   18  H13 UNL     1      23.671  -0.799  51.456  1.00  0.00     0.167 HD
ENDROOT
BRANCH   1  19
HETATM   19  N1  UNL     1      24.103   3.678  50.830  1.00  0.00    -0.327 N 
HETATM   20  C1  UNL     1      23.782   4.870  50.156  1.00  0.00     0.245 C 
HETATM   21  O1  UNL     1      22.678   5.462  50.206  1.00  0.00    -0.268 OA
HETATM   22  H7  UNL     1      25.008   3.165  50.822  1.00  0.00     0.169 HD
BRANCH  20  23
HETATM   23  C2  UNL     1      24.810   5.472  49.329  1.00  0.00     0.075 C 
HETATM   24  C3  UNL     1      26.130   5.477  49.369  1.00  0.00     0.017 C 
BRANCH  24  25
HETATM   25  C4  UNL     1      27.174   6.072  48.554  1.00  0.00    -0.036 A 
HETATM   26  C5  UNL     1      28.387   5.428  48.504  1.00  0.00     0.013 A 
HETATM   27  C6  UNL     1      29.368   5.993  47.736  1.00  0.00     0.024 A 
HETATM   28  C7  UNL     1      29.120   7.162  47.051  1.00  0.00     0.034 A 
HETATM   29 CL1  UNL     1      30.365   7.898  46.063  1.00  0.00    -0.084 Cl
HETATM   30  C8  UNL     1      27.907   7.772  47.123  1.00  0.00     0.024 A 
HETATM   31  C9  UNL     1      26.889   7.241  47.883  1.00  0.00     0.013 A 
ENDBRANCH  24  25
ENDBRANCH  20  23
ENDBRANCH   1  19
TORSDOF 3
ENDMDL
MODEL 4
REMARK VINA RESULT:      -9.1      7.867     10.101
REMARK  3 active torsions:
REMARK  status: ('A' for Active; 'I' for Inactive)
REMARK    1  A    between atoms: C1_2  and  C2_3 
REMARK       I    between atoms: C1_2  and  N1_12 
REMARK    2  A    between atoms: C3_4  and  C4_5 
REMARK    3  A    between atoms: N1_12  and  C10_13 
ROOT
HETATM    1  C10 UNL     1      31.639   6.273  49.107  1.00  0.00     0.015 C 
HETATM    2  C11 UNL     1      32.594   5.591  48.560  1.00  0.00     0.026 C 
HETATM    3  C12 UNL     1      33.961   5.240  48.141  1.00  0.00     0.141 C 
HETATM    4  C13 UNL     1      33.995   5.807  46.696  1.00  0.00     0.110 C 
HETATM    5  C14 UNL     1      33.723   7.241  46.995  1.00  0.00     0.108 C 
HETATM    6  N2  UNL     1      34.698   7.859  47.493  1.00  0.00    -0.229 NA
HETATM    7  C15 UNL     1      35.438   7.133  48.522  1.00  0.00     0.229 C 
HETATM    8  N3  UNL     1      35.018   5.946  48.816  1.00  0.00    -0.273 NA
HETATM    9  N4  UNL     1      32.608   8.105  46.838  1.00  0.00    -0.344 N 
HETATM   10  C16 UNL     1      31.848   8.888  47.723  1.00  0.00     0.041 A 
HETATM   11  C17 UNL     1      31.382  10.006  47.023  1.00  0.00     0.049 A 
HETATM   12  C18 UNL     1      30.581  10.985  47.629  1.00  0.00     0.013 A 
HETATM   13 BR1  UNL     1      29.901  12.525  46.783  1.00  0.00    -0.051 Br
HETATM   14  C19 UNL     1      30.265  10.803  48.960  1.00  0.00     0.020 A 
HETATM   15  C20 UNL     1      30.732   9.696  49.638  1.00  0.00     0.011 A 
HETATM   16  C21 UNL     1      31.519   8.732  49.047  1.00  0.00    -0.026 A 
HETATM   17  C22 UNL     1      32.040   7.527  49.774  1.00  0.00     0.097 C 
HETATM   18  H13 UNL     1      32.586   7.937  45.824  1.00  0.00     0.167 HD
ENDROOT
BRANCH   1  19
HETATM   19  N1  UNL     1      30.210   6.046  49.201  1.00  0.00    -0.327 N 
HETATM   20  C1  UNL     1      29.316   6.230  48.130  1.00  0.00     0.245 C 
HETATM   21  O1  UNL     1      29.629   6.603  46.975  1.00  0.00    -0.268 OA
HETATM   22  H7  UNL     1      29.990   5.728  50.167  1.00  0.00     0.169 HD
BRANCH  20  23
HETATM   23  C2  UNL     1      27.911   5.967  48.375  1.00  0.00     0.075 C 
HETATM   24  C3  UNL     1      27.241   4.927  48.836  1.00  0.00     0.017 C 
BRANCH  24  25
HETATM   25  C4  UNL     1      25.839   4.645  49.088  1.00  0.00    -0.036 A 
HETATM   26  C5  UNL     1      24.928   5.625  48.776  1.00  0.00     0.013 A 
HETATM   27  C6  UNL     1      23.608   5.356  49.016  1.00  0.00     0.024 A 
HETATM   28  C7  UNL     1      23.239   4.141  49.551  1.00  0.00     0.034 A 
HETATM   29 CL1  UNL     1      21.554   3.781  49.865  1.00  0.00    -0.084 Cl
HETATM   30  C8  UNL     1      24.168   3.194  49.848  1.00  0.00     0.024 A 
HETATM   31  C9  UNL     1      25.508   3.419  49.623  1.00  0.00     0.013 A 
ENDBRANCH  24  25
ENDBRANCH  20  23
ENDBRANCH   1  19
TORSDOF 3
ENDMDL
MODEL 5
REMARK VINA RESULT:      -9.0      1.836      2.144
REMARK  3 active torsions:
REMARK  status: ('A' for Active; 'I' for Inactive)
REMARK    1  A    between atoms: C1_2  and  C2_3 
REMARK       I    between atoms: C1_2  and  N1_12 
REMARK    2  A    between atoms: C3_4  and  C4_5 
REMARK    3  A    between atoms: N1_12  and  C10_13 
ROOT
HETATM    1  C10 UNL     1      24.023   1.489  53.138  1.00  0.00     0.015 C 
HETATM    2  C11 UNL     1      25.037   0.692  53.255  1.00  0.00     0.026 C 
HETATM    3  C12 UNL     1      26.425   0.267  53.500  1.00  0.00     0.141 C 
HETATM    4  C13 UNL     1      26.998   0.240  52.057  1.00  0.00     0.110 C 
HETATM    5  C14 UNL     1      26.780   1.666  51.686  1.00  0.00     0.108 C 
HETATM    6  N2  UNL     1      27.585   2.469  52.224  1.00  0.00    -0.229 NA
HETATM    7  C15 UNL     1      27.861   2.224  53.637  1.00  0.00     0.229 C 
HETATM    8  N3  UNL     1      27.255   1.222  54.186  1.00  0.00    -0.273 NA
HETATM    9  N4  UNL     1      25.871   2.356  50.841  1.00  0.00    -0.344 N 
HETATM   10  C16 UNL     1      24.936   3.383  51.047  1.00  0.00     0.041 A 
HETATM   11  C17 UNL     1      24.843   4.127  49.866  1.00  0.00     0.049 A 
HETATM   12  C18 UNL     1      23.982   5.229  49.743  1.00  0.00     0.013 A 
HETATM   13 BR1  UNL     1      23.777   6.297  48.206  1.00  0.00    -0.051 Br
HETATM   14  C19 UNL     1      23.220   5.556  50.847  1.00  0.00     0.020 A 
HETATM   15  C20 UNL     1      23.323   4.813  52.005  1.00  0.00     0.011 A 
HETATM   16  C21 UNL     1      24.166   3.731  52.130  1.00  0.00    -0.026 A 
HETATM   17  C22 UNL     1      24.294   2.920  53.385  1.00  0.00     0.097 C 
HETATM   18  H13 UNL     1      26.176   1.812  50.024  1.00  0.00     0.167 HD
ENDROOT
BRANCH   1  19
HETATM   19  N1  UNL     1      22.631   1.254  52.807  1.00  0.00    -0.327 N 
HETATM   20  C1  UNL     1      22.157   1.093  51.492  1.00  0.00     0.245 C 
HETATM   21  O1  UNL     1      22.858   1.127  50.454  1.00  0.00    -0.268 OA
HETATM   22  H7  UNL     1      22.083   1.222  53.691  1.00  0.00     0.169 HD
BRANCH  20  23
HETATM   23  C2  UNL     1      20.735   0.868  51.315  1.00  0.00     0.075 C 
HETATM   24  C3  UNL     1      19.860   0.055  51.878  1.00  0.00     0.017 C 
BRANCH  24  25
HETATM   25  C4  UNL     1      18.437  -0.185  51.714  1.00  0.00    -0.036 A 
HETATM   26  C5  UNL     1      17.828   0.338  50.599  1.00  0.00     0.013 A 
HETATM   27  C6  UNL     1      16.487   0.111  50.449  1.00  0.00     0.024 A 
HETATM   28  C7  UNL     1      15.802  -0.618  51.397  1.00  0.00     0.034 A 
HETATM   29 CL1  UNL     1      14.085  -0.917  51.221  1.00  0.00    -0.084 Cl
HETATM   30  C8  UNL     1      16.437  -1.121  52.488  1.00  0.00     0.024 A 
HETATM   31  C9  UNL     1      17.785  -0.918  52.682  1.00  0.00     0.013 A 
ENDBRANCH  24  25
ENDBRANCH  20  23
ENDBRANCH   1  19
TORSDOF 3
ENDMDL
MODEL 6
REMARK VINA RESULT:      -8.7      7.179      9.800
REMARK  3 active torsions:
REMARK  status: ('A' for Active; 'I' for Inactive)
REMARK    1  A    between atoms: C1_2  and  C2_3 
REMARK       I    between atoms: C1_2  and  N1_12 
REMARK    2  A    between atoms: C3_4  and  C4_5 
REMARK    3  A    between atoms: N1_12  and  C10_13 
ROOT
HETATM    1  C10 UNL     1      28.520   7.453  48.047  1.00  0.00     0.015 C 
HETATM    2  C11 UNL     1      28.141   8.680  48.214  1.00  0.00     0.026 C 
HETATM    3  C12 UNL     1      28.046  10.130  47.972  1.00  0.00     0.141 C 
HETATM    4  C13 UNL     1      29.109  10.678  48.962  1.00  0.00     0.110 C 
HETATM    5  C14 UNL     1      30.313   9.979  48.432  1.00  0.00     0.108 C 
HETATM    6  N2  UNL     1      30.754  10.454  47.355  1.00  0.00    -0.229 NA
HETATM    7  C15 UNL     1      29.741  10.798  46.361  1.00  0.00     0.229 C 
HETATM    8  N3  UNL     1      28.508  10.577  46.684  1.00  0.00    -0.273 NA
HETATM    9  N4  UNL     1      31.112   8.887  48.864  1.00  0.00    -0.344 N 
HETATM   10  C16 UNL     1      31.468   7.654  48.295  1.00  0.00     0.041 A 
HETATM   11  C17 UNL     1      32.739   7.309  48.768  1.00  0.00     0.049 A 
HETATM   12  C18 UNL     1      33.379   6.120  48.389  1.00  0.00     0.013 A 
HETATM   13 BR1  UNL     1      35.083   5.558  48.963  1.00  0.00    -0.051 Br
HETATM   14  C19 UNL     1      32.700   5.291  47.518  1.00  0.00     0.020 A 
HETATM   15  C20 UNL     1      31.448   5.644  47.060  1.00  0.00     0.011 A 
HETATM   16  C21 UNL     1      30.815   6.810  47.430  1.00  0.00    -0.026 A 
HETATM   17  C22 UNL     1      29.457   7.211  46.933  1.00  0.00     0.097 C 
HETATM   18  H13 UNL     1      31.330   9.363  49.749  1.00  0.00     0.167 HD
ENDROOT
BRANCH   1  19
HETATM   19  N1  UNL     1      28.196   6.230  48.755  1.00  0.00    -0.327 N 
HETATM   20  C1  UNL     1      26.917   5.645  48.762  1.00  0.00     0.245 C 
HETATM   21  O1  UNL     1      25.908   6.091  48.167  1.00  0.00    -0.268 OA
HETATM   22  H7  UNL     1      29.058   5.884  49.226  1.00  0.00     0.169 HD
BRANCH  20  23
HETATM   23  C2  UNL     1      26.742   4.420  49.519  1.00  0.00     0.075 C 
HETATM   24  C3  UNL     1      25.793   3.965  50.317  1.00  0.00     0.017 C 
BRANCH  24  25
HETATM   25  C4  UNL     1      25.601   2.746  51.082  1.00  0.00    -0.036 A 
HETATM   26  C5  UNL     1      24.345   2.500  51.581  1.00  0.00     0.013 A 
HETATM   27  C6  UNL     1      24.169   1.351  52.303  1.00  0.00     0.024 A 
HETATM   28  C7  UNL     1      25.229   0.494  52.504  1.00  0.00     0.034 A 
HETATM   29 CL1  UNL     1      25.020  -0.981  53.426  1.00  0.00    -0.084 Cl
HETATM   30  C8  UNL     1      26.459   0.769  51.995  1.00  0.00     0.024 A 
HETATM   31  C9  UNL     1      26.684   1.914  51.262  1.00  0.00     0.013 A 
ENDBRANCH  24  25
ENDBRANCH  20  23
ENDBRANCH   1  19
TORSDOF 3
ENDMDL
MODEL 7
REMARK VINA RESULT:      -8.4      5.573      8.603
REMARK  3 active torsions:
REMARK  status: ('A' for Active; 'I' for Inactive)
REMARK    1  A    between atoms: C1_2  and  C2_3 
REMARK       I    between atoms: C1_2  and  N1_12 
REMARK    2  A    between atoms: C3_4  and  C4_5 
REMARK    3  A    between atoms: N1_12  and  C10_13 
ROOT
HETATM    1  C10 UNL     1      23.459   5.124  49.899  1.00  0.00     0.015 C 
HETATM    2  C11 UNL     1      22.280   5.576  50.186  1.00  0.00     0.026 C 
HETATM    3  C12 UNL     1      21.027   6.333  50.030  1.00  0.00     0.141 C 
HETATM    4  C13 UNL     1      21.348   7.630  50.821  1.00  0.00     0.110 C 
HETATM    5  C14 UNL     1      22.528   8.099  50.042  1.00  0.00     0.108 C 
HETATM    6  N2  UNL     1      22.243   8.595  48.922  1.00  0.00    -0.229 NA
HETATM    7  C15 UNL     1      21.235   7.869  48.155  1.00  0.00     0.229 C 
HETATM    8  N3  UNL     1      20.746   6.801  48.697  1.00  0.00    -0.273 NA
HETATM    9  N4  UNL     1      23.930   8.138  50.268  1.00  0.00    -0.344 N 
HETATM   10  C16 UNL     1      25.041   7.612  49.589  1.00  0.00     0.041 A 
HETATM   11  C17 UNL     1      26.123   8.475  49.796  1.00  0.00     0.049 A 
HETATM   12  C18 UNL     1      27.392   8.226  49.251  1.00  0.00     0.013 A 
HETATM   13 BR1  UNL     1      28.913   9.316  49.466  1.00  0.00    -0.051 Br
HETATM   14  C19 UNL     1      27.535   7.082  48.491  1.00  0.00     0.020 A 
HETATM   15  C20 UNL     1      26.459   6.241  48.295  1.00  0.00     0.011 A 
HETATM   16  C21 UNL     1      25.212   6.482  48.829  1.00  0.00    -0.026 A 
HETATM   17  C22 UNL     1      24.032   5.580  48.617  1.00  0.00     0.097 C 
HETATM   18  H13 UNL     1      23.804   8.708  51.114  1.00  0.00     0.167 HD
ENDROOT
BRANCH   1  19
HETATM   19  N1  UNL     1      24.357   4.229  50.602  1.00  0.00    -0.327 N 
HETATM   20  C1  UNL     1      23.977   3.453  51.713  1.00  0.00     0.245 C 
HETATM   21  O1  UNL     1      22.835   3.429  52.230  1.00  0.00    -0.268 OA
HETATM   22  H7  UNL     1      25.288   4.267  50.140  1.00  0.00     0.169 HD
BRANCH  20  23
HETATM   23  C2  UNL     1      24.987   2.606  52.317  1.00  0.00     0.075 C 
HETATM   24  C3  UNL     1      26.045   1.968  51.850  1.00  0.00     0.017 C 
BRANCH  24  25
HETATM   25  C4  UNL     1      27.065   1.117  52.437  1.00  0.00    -0.036 A 
HETATM   26  C5  UNL     1      28.133   1.732  53.046  1.00  0.00     0.013 A 
HETATM   27  C6  UNL     1      29.092   0.927  53.597  1.00  0.00     0.024 A 
HETATM   28  C7  UNL     1      28.965  -0.443  53.527  1.00  0.00     0.034 A 
HETATM   29 CL1  UNL     1      30.184  -1.488  54.226  1.00  0.00    -0.084 Cl
HETATM   30  C8  UNL     1      27.895  -1.017  52.917  1.00  0.00     0.024 A 
HETATM   31  C9  UNL     1      26.904  -0.248  52.348  1.00  0.00     0.013 A 
ENDBRANCH  24  25
ENDBRANCH  20  23
ENDBRANCH   1  19
TORSDOF 3
ENDMDL
MODEL 8
REMARK VINA RESULT:      -8.3      4.992      7.320
REMARK  3 active torsions:
REMARK  status: ('A' for Active; 'I' for Inactive)
REMARK    1  A    between atoms: C1_2  and  C2_3 
REMARK       I    between atoms: C1_2  and  N1_12 
REMARK    2  A    between atoms: C3_4  and  C4_5 
REMARK    3  A    between atoms: N1_12  and  C10_13 
ROOT
HETATM    1  C10 UNL     1      25.201   6.951  50.420  1.00  0.00     0.015 C 
HETATM    2  C11 UNL     1      26.236   7.353  49.754  1.00  0.00     0.026 C 
HETATM    3  C12 UNL     1      27.122   8.274  49.023  1.00  0.00     0.141 C 
HETATM    4  C13 UNL     1      26.700   8.007  47.553  1.00  0.00     0.110 C 
HETATM    5  C14 UNL     1      25.260   8.378  47.645  1.00  0.00     0.108 C 
HETATM    6  N2  UNL     1      25.049   9.616  47.709  1.00  0.00    -0.229 NA
HETATM    7  C15 UNL     1      25.946  10.359  48.590  1.00  0.00     0.229 C 
HETATM    8  N3  UNL     1      26.852   9.676  49.211  1.00  0.00    -0.273 NA
HETATM    9  N4  UNL     1      24.037   7.658  47.665  1.00  0.00    -0.344 N 
HETATM   10  C16 UNL     1      22.968   7.578  48.573  1.00  0.00     0.041 A 
HETATM   11  C17 UNL     1      21.800   7.325  47.845  1.00  0.00     0.049 A 
HETATM   12  C18 UNL     1      20.550   7.182  48.466  1.00  0.00     0.013 A 
HETATM   13 BR1  UNL     1      18.919   6.842  47.586  1.00  0.00    -0.051 Br
HETATM   14  C19 UNL     1      20.513   7.302  49.840  1.00  0.00     0.020 A 
HETATM   15  C20 UNL     1      21.673   7.551  50.545  1.00  0.00     0.011 A 
HETATM   16  C21 UNL     1      22.902   7.692  49.940  1.00  0.00    -0.026 A 
HETATM   17  C22 UNL     1      24.170   7.972  50.693  1.00  0.00     0.097 C 
HETATM   18  H13 UNL     1      24.242   7.231  46.754  1.00  0.00     0.167 HD
ENDROOT
BRANCH   1  19
HETATM   19  N1  UNL     1      24.840   5.660  50.972  1.00  0.00    -0.327 N 
HETATM   20  C1  UNL     1      24.486   4.545  50.190  1.00  0.00     0.245 C 
HETATM   21  O1  UNL     1      24.441   4.518  48.938  1.00  0.00    -0.268 OA
HETATM   22  H7  UNL     1      24.899   5.717  52.010  1.00  0.00     0.169 HD
BRANCH  20  23
HETATM   23  C2  UNL     1      24.144   3.319  50.884  1.00  0.00     0.075 C 
HETATM   24  C3  UNL     1      23.249   3.007  51.804  1.00  0.00     0.017 C 
BRANCH  24  25
HETATM   25  C4  UNL     1      22.892   1.789  52.510  1.00  0.00    -0.036 A 
HETATM   26  C5  UNL     1      23.911   0.940  52.868  1.00  0.00     0.013 A 
HETATM   27  C6  UNL     1      23.571  -0.207  53.531  1.00  0.00     0.024 A 
HETATM   28  C7  UNL     1      22.249  -0.472  53.816  1.00  0.00     0.034 A 
HETATM   29 CL1  UNL     1      21.796  -1.935  54.664  1.00  0.00    -0.084 Cl
HETATM   30  C8  UNL     1      21.266   0.392  53.447  1.00  0.00     0.024 A 
HETATM   31  C9  UNL     1      21.560   1.559  52.777  1.00  0.00     0.013 A 
ENDBRANCH  24  25
ENDBRANCH  20  23
ENDBRANCH   1  19
TORSDOF 3
ENDMDL
MODEL 9
REMARK VINA RESULT:      -8.1      4.278      6.794
REMARK  3 active torsions:
REMARK  status: ('A' for Active; 'I' for Inactive)
REMARK    1  A    between atoms: C1_2  and  C2_3 
REMARK       I    between atoms: C1_2  and  N1_12 
REMARK    2  A    between atoms: C3_4  and  C4_5 
REMARK    3  A    between atoms: N1_12  and  C10_13 
ROOT
HETATM    1  C10 UNL     1      27.074   2.061  52.183  1.00  0.00     0.015 C 
HETATM    2  C11 UNL     1      28.180   1.932  52.842  1.00  0.00     0.026 C 
HETATM    3  C12 UNL     1      29.326   1.261  53.478  1.00  0.00     0.141 C 
HETATM    4  C13 UNL     1      28.830   1.124  54.943  1.00  0.00     0.110 C 
HETATM    5  C14 UNL     1      27.608   0.305  54.706  1.00  0.00     0.108 C 
HETATM    6  N2  UNL     1      27.839  -0.903  54.443  1.00  0.00    -0.229 NA
HETATM    7  C15 UNL     1      28.942  -1.140  53.516  1.00  0.00     0.229 C 
HETATM    8  N3  UNL     1      29.559  -0.098  53.062  1.00  0.00    -0.273 NA
HETATM    9  N4  UNL     1      26.211   0.558  54.720  1.00  0.00    -0.344 N 
HETATM   10  C16 UNL     1      25.185   0.417  53.771  1.00  0.00     0.041 A 
HETATM   11  C17 UNL     1      23.998   0.134  54.456  1.00  0.00     0.049 A 
HETATM   12  C18 UNL     1      22.779  -0.058  53.788  1.00  0.00     0.013 A 
HETATM   13 BR1  UNL     1      21.127  -0.442  54.606  1.00  0.00    -0.051 Br
HETATM   14  C19 UNL     1      22.794   0.044  52.411  1.00  0.00     0.020 A 
HETATM   15  C20 UNL     1      23.973   0.324  51.750  1.00  0.00     0.011 A 
HETATM   16  C21 UNL     1      25.171   0.513  52.401  1.00  0.00    -0.026 A 
HETATM   17  C22 UNL     1      26.461   0.809  51.695  1.00  0.00     0.097 C 
HETATM   18  H13 UNL     1      26.251   0.874  55.697  1.00  0.00     0.167 HD
ENDROOT
BRANCH   1  19
HETATM   19  N1  UNL     1      26.291   3.224  51.811  1.00  0.00    -0.327 N 
HETATM   20  C1  UNL     1      26.137   3.672  50.487  1.00  0.00     0.245 C 
HETATM   21  O1  UNL     1      26.640   3.136  49.472  1.00  0.00    -0.268 OA
HETATM   22  H7  UNL     1      25.881   3.634  52.675  1.00  0.00     0.169 HD
BRANCH  20  23
HETATM   23  C2  UNL     1      25.326   4.855  50.269  1.00  0.00     0.075 C 
HETATM   24  C3  UNL     1      24.029   5.063  50.128  1.00  0.00     0.017 C 
BRANCH  24  25
HETATM   25  C4  UNL     1      23.201   6.235  49.910  1.00  0.00    -0.036 A 
HETATM   26  C5  UNL     1      22.217   6.500  50.831  1.00  0.00     0.013 A 
HETATM   27  C6  UNL     1      21.438   7.605  50.621  1.00  0.00     0.024 A 
HETATM   28  C7  UNL     1      21.657   8.402  49.519  1.00  0.00     0.034 A 
HETATM   29 CL1  UNL     1      20.669   9.820  49.234  1.00  0.00    -0.084 Cl
HETATM   30  C8  UNL     1      22.641   8.111  48.627  1.00  0.00     0.024 A 
HETATM   31  C9  UNL     1      23.450   7.009  48.797  1.00  0.00     0.013 A 
ENDBRANCH  24  25
ENDBRANCH  20  23
ENDBRANCH   1  19
TORSDOF 3
ENDMDL
