MODEL 1
REMARK VINA RESULT:      -7.4      0.000      0.000
REMARK  7 active torsions:
REMARK  status: ('A' for Active; 'I' for Inactive)
REMARK    1  A    between atoms: C3_4  and  C4_5 
REMARK    2  A    between atoms: C4_5  and  N1_6 
REMARK    3  A    between atoms: N1_6  and  C5_7 
REMARK    4  A    between atoms: C9_13  and  O2_14 
REMARK    5  A    between atoms: O2_14  and  C10_15 
REMARK    6  A    between atoms: C10_15  and  C11_16 
REMARK    7  A    between atoms: C16_22  and  N3_23 
ROOT
HETATM    1  C5  UNL     1      21.382   1.742  52.379  1.00  0.00     0.099 C 
HETATM    2  N2  UNL     1      21.343   2.989  52.313  1.00  0.00    -0.275 NA
HETATM    3  C6  UNL     1      22.137   4.068  51.988  1.00  0.00     0.177 C 
HETATM    4  C7  UNL     1      23.504   3.848  51.374  1.00  0.00     0.196 C 
HETATM    5  O1  UNL     1      24.398   3.162  52.037  1.00  0.00    -0.359 OA
HETATM    6  C8  UNL     1      25.274   2.491  52.685  1.00  0.00     0.171 C 
HETATM    7  C9  UNL     1      25.251   1.314  53.270  1.00  0.00     0.092 C 
HETATM    8  C15 UNL     1      24.213   0.314  53.390  1.00  0.00     0.057 C 
HETATM    9  C16 UNL     1      22.978  -0.020  53.056  1.00  0.00    -0.007 C 
HETATM   10  C17 UNL     1      22.441   0.828  51.992  1.00  0.00     0.128 C 
ENDROOT
BRANCH   1  11
HETATM   11  N1  UNL     1      20.102   1.251  52.839  1.00  0.00    -0.375 N 
HETATM   12  H7  UNL     1      19.893   1.357  53.886  1.00  0.00     0.161 HD
BRANCH  11  13
HETATM   13  C4  UNL     1      19.070   0.612  51.996  1.00  0.00     0.149 C 
BRANCH  13  14
HETATM   14  C3  UNL     1      18.703  -0.647  52.702  1.00  0.00     0.011 C 
HETATM   15  C2  UNL     1      17.576  -1.345  52.874  1.00  0.00     0.005 C 
HETATM   16  C1  UNL     1      16.318  -0.845  52.261  1.00  0.00     0.061 C 
HETATM   17 CL1  UNL     1      17.768  -2.819  53.850  1.00  0.00    -0.090 Cl
ENDBRANCH  13  14
ENDBRANCH  11  13
ENDBRANCH   1  11
BRANCH   9  18
HETATM   18  N3  UNL     1      22.164  -1.168  53.372  1.00  0.00    -0.306 NA
HETATM   19  H23 UNL     1      21.732  -1.586  52.526  1.00  0.00     0.124 HD
HETATM   20  H24 UNL     1      21.795  -1.485  52.433  1.00  0.00     0.124 HD
ENDBRANCH   9  18
BRANCH   7  21
HETATM   21  O2  UNL     1      26.467   1.140  53.790  1.00  0.00    -0.347 OA
BRANCH  21  22
HETATM   22  C10 UNL     1      26.754   0.381  54.929  1.00  0.00     0.207 C 
BRANCH  22  23
HETATM   23  C11 UNL     1      28.168  -0.151  54.731  1.00  0.00     0.145 C 
HETATM   24  C12 UNL     1      29.096   0.857  54.121  1.00  0.00     0.036 C 
HETATM   25  C13 UNL     1      30.084  -0.044  53.365  1.00  0.00     0.029 C 
HETATM   26  C14 UNL     1      29.518  -1.425  53.606  1.00  0.00     0.168 C 
HETATM   27  O3  UNL     1      28.159  -1.162  53.747  1.00  0.00    -0.384 OA
ENDBRANCH  22  23
ENDBRANCH  21  22
ENDBRANCH   7  21
TORSDOF 7
ENDMDL
MODEL 2
REMARK VINA RESULT:      -7.4      3.683      5.572
REMARK  7 active torsions:
REMARK  status: ('A' for Active; 'I' for Inactive)
REMARK    1  A    between atoms: C3_4  and  C4_5 
REMARK    2  A    between atoms: C4_5  and  N1_6 
REMARK    3  A    between atoms: N1_6  and  C5_7 
REMARK    4  A    between atoms: C9_13  and  O2_14 
REMARK    5  A    between atoms: O2_14  and  C10_15 
REMARK    6  A    between atoms: C10_15  and  C11_16 
REMARK    7  A    between atoms: C16_22  and  N3_23 
ROOT
HETATM    1  C5  UNL     1      22.156   3.258  50.603  1.00  0.00     0.099 C 
HETATM    2  N2  UNL     1      21.677   2.388  49.844  1.00  0.00    -0.275 NA
HETATM    3  C6  UNL     1      21.203   1.093  49.866  1.00  0.00     0.177 C 
HETATM    4  C7  UNL     1      21.019   0.375  51.185  1.00  0.00     0.196 C 
HETATM    5  O1  UNL     1      22.052   0.198  51.967  1.00  0.00    -0.359 OA
HETATM    6  C8  UNL     1      23.063   0.026  52.732  1.00  0.00     0.171 C 
HETATM    7  C9  UNL     1      23.980   0.841  53.205  1.00  0.00     0.092 C 
HETATM    8  C15 UNL     1      24.185   2.264  53.045  1.00  0.00     0.057 C 
HETATM    9  C16 UNL     1      23.711   3.381  52.519  1.00  0.00    -0.007 C 
HETATM   10  C17 UNL     1      22.336   3.231  52.042  1.00  0.00     0.128 C 
ENDROOT
BRANCH   1  11
HETATM   11  N1  UNL     1      22.451   4.446  49.835  1.00  0.00    -0.375 N 
HETATM   12  H7  UNL     1      22.117   5.381  50.244  1.00  0.00     0.161 HD
BRANCH  11  13
HETATM   13  C4  UNL     1      23.162   4.482  48.538  1.00  0.00     0.149 C 
BRANCH  13  14
HETATM   14  C3  UNL     1      24.347   5.355  48.758  1.00  0.00     0.011 C 
HETATM   15  C2  UNL     1      25.603   5.165  49.175  1.00  0.00     0.005 C 
HETATM   16  C1  UNL     1      26.041   3.792  49.537  1.00  0.00     0.061 C 
HETATM   17 CL1  UNL     1      26.588   6.644  49.233  1.00  0.00    -0.090 Cl
ENDBRANCH  13  14
ENDBRANCH  11  13
ENDBRANCH   1  11
BRANCH   9  18
HETATM   18  N3  UNL     1      24.195   4.739  52.529  1.00  0.00    -0.306 NA
HETATM   19  H23 UNL     1      24.843   4.929  51.740  1.00  0.00     0.124 HD
HETATM   20  H24 UNL     1      24.832   4.788  51.685  1.00  0.00     0.124 HD
ENDBRANCH   9  18
BRANCH   7  21
HETATM   21  O2  UNL     1      24.787   0.088  53.955  1.00  0.00    -0.347 OA
BRANCH  21  22
HETATM   22  C10 UNL     1      25.675  -0.875  53.463  1.00  0.00     0.207 C 
BRANCH  22  23
HETATM   23  C11 UNL     1      27.064  -0.262  53.588  1.00  0.00     0.145 C 
HETATM   24  C12 UNL     1      28.144  -1.130  53.014  1.00  0.00     0.036 C 
HETATM   25  C13 UNL     1      29.353  -0.739  53.878  1.00  0.00     0.029 C 
HETATM   26  C14 UNL     1      28.750   0.241  54.860  1.00  0.00     0.168 C 
HETATM   27  O3  UNL     1      27.436  -0.207  54.949  1.00  0.00    -0.384 OA
ENDBRANCH  22  23
ENDBRANCH  21  22
ENDBRANCH   7  21
TORSDOF 7
ENDMDL
MODEL 3
REMARK VINA RESULT:      -7.3      1.842      2.292
REMARK  7 active torsions:
REMARK  status: ('A' for Active; 'I' for Inactive)
REMARK    1  A    between atoms: C3_4  and  C4_5 
REMARK    2  A    between atoms: C4_5  and  N1_6 
REMARK    3  A    between atoms: N1_6  and  C5_7 
REMARK    4  A    between atoms: C9_13  and  O2_14 
REMARK    5  A    between atoms: O2_14  and  C10_15 
REMARK    6  A    between atoms: C10_15  and  C11_16 
REMARK    7  A    between atoms: C16_22  and  N3_23 
ROOT
HETATM    1  C5  UNL     1      20.509  -0.257  52.733  1.00  0.00     0.099 C 
HETATM    2  N2  UNL     1      20.077   0.627  51.962  1.00  0.00    -0.275 NA
HETATM    3  C6  UNL     1      20.496   1.452  50.938  1.00  0.00     0.177 C 
HETATM    4  C7  UNL     1      21.877   1.282  50.344  1.00  0.00     0.196 C 
HETATM    5  O1  UNL     1      22.925   1.410  51.115  1.00  0.00    -0.359 OA
HETATM    6  C8  UNL     1      23.951   1.535  51.870  1.00  0.00     0.171 C 
HETATM    7  C9  UNL     1      24.288   1.001  53.023  1.00  0.00     0.092 C 
HETATM    8  C15 UNL     1      23.618   0.046  53.879  1.00  0.00     0.057 C 
HETATM    9  C16 UNL     1      22.563  -0.738  54.020  1.00  0.00    -0.007 C 
HETATM   10  C17 UNL     1      21.813  -0.891  52.773  1.00  0.00     0.128 C 
ENDROOT
BRANCH   1  11
HETATM   11  N1  UNL     1      19.439  -0.689  53.604  1.00  0.00    -0.375 N 
HETATM   12  H7  UNL     1      19.704  -0.904  54.622  1.00  0.00     0.161 HD
BRANCH  11  13
HETATM   13  C4  UNL     1      18.026  -0.868  53.211  1.00  0.00     0.149 C 
BRANCH  13  14
HETATM   14  C3  UNL     1      17.733  -2.313  53.426  1.00  0.00     0.011 C 
HETATM   15  C2  UNL     1      16.719  -3.131  53.125  1.00  0.00     0.005 C 
HETATM   16  C1  UNL     1      15.542  -2.584  52.403  1.00  0.00     0.061 C 
HETATM   17 CL1  UNL     1      16.951  -4.811  53.660  1.00  0.00    -0.090 Cl
ENDBRANCH  13  14
ENDBRANCH  11  13
ENDBRANCH   1  11
BRANCH   9  18
HETATM   18  N3  UNL     1      22.148  -1.624  55.079  1.00  0.00    -0.306 NA
HETATM   19  H23 UNL     1      22.536  -1.343  56.000  1.00  0.00     0.124 HD
HETATM   20  H24 UNL     1      22.609  -1.223  55.943  1.00  0.00     0.124 HD
ENDBRANCH   9  18
BRANCH   7  21
HETATM   21  O2  UNL     1      25.482   1.512  53.328  1.00  0.00    -0.347 OA
BRANCH  21  22
HETATM   22  C10 UNL     1      26.354   2.117  52.418  1.00  0.00     0.207 C 
BRANCH  22  23
HETATM   23  C11 UNL     1      27.758   1.732  52.869  1.00  0.00     0.145 C 
HETATM   24  C12 UNL     1      27.868   0.299  53.295  1.00  0.00     0.036 C 
HETATM   25  C13 UNL     1      28.996   0.365  54.335  1.00  0.00     0.029 C 
HETATM   26  C14 UNL     1      29.303   1.846  54.390  1.00  0.00     0.168 C 
HETATM   27  O3  UNL     1      28.073   2.410  54.066  1.00  0.00    -0.384 OA
ENDBRANCH  22  23
ENDBRANCH  21  22
ENDBRANCH   7  21
TORSDOF 7
ENDMDL
MODEL 4
REMARK VINA RESULT:      -7.3      3.674      5.407
REMARK  7 active torsions:
REMARK  status: ('A' for Active; 'I' for Inactive)
REMARK    1  A    between atoms: C3_4  and  C4_5 
REMARK    2  A    between atoms: C4_5  and  N1_6 
REMARK    3  A    between atoms: N1_6  and  C5_7 
REMARK    4  A    between atoms: C9_13  and  O2_14 
REMARK    5  A    between atoms: O2_14  and  C10_15 
REMARK    6  A    between atoms: C10_15  and  C11_16 
REMARK    7  A    between atoms: C16_22  and  N3_23 
ROOT
HETATM    1  C5  UNL     1      23.448   2.594  50.191  1.00  0.00     0.099 C 
HETATM    2  N2  UNL     1      22.493   1.819  49.966  1.00  0.00    -0.275 NA
HETATM    3  C6  UNL     1      21.687   0.901  50.607  1.00  0.00     0.177 C 
HETATM    4  C7  UNL     1      21.769   0.738  52.110  1.00  0.00     0.196 C 
HETATM    5  O1  UNL     1      22.905   0.386  52.654  1.00  0.00    -0.359 OA
HETATM    6  C8  UNL     1      24.017   0.043  53.186  1.00  0.00     0.171 C 
HETATM    7  C9  UNL     1      25.243   0.507  53.083  1.00  0.00     0.092 C 
HETATM    8  C15 UNL     1      25.801   1.606  52.326  1.00  0.00     0.057 C 
HETATM    9  C16 UNL     1      25.536   2.614  51.512  1.00  0.00    -0.007 C 
HETATM   10  C17 UNL     1      24.105   2.912  51.444  1.00  0.00     0.128 C 
ENDROOT
BRANCH   1  11
HETATM   11  N1  UNL     1      23.801   3.277  48.966  1.00  0.00    -0.375 N 
HETATM   12  H7  UNL     1      24.500   2.780  48.321  1.00  0.00     0.161 HD
BRANCH  11  13
HETATM   13  C4  UNL     1      23.291   4.596  48.537  1.00  0.00     0.149 C 
BRANCH  13  14
HETATM   14  C3  UNL     1      24.276   5.589  49.047  1.00  0.00     0.011 C 
HETATM   15  C2  UNL     1      24.307   6.463  50.059  1.00  0.00     0.005 C 
HETATM   16  C1  UNL     1      23.131   6.559  50.963  1.00  0.00     0.061 C 
HETATM   17 CL1  UNL     1      25.809   7.408  50.165  1.00  0.00    -0.090 Cl
ENDBRANCH  13  14
ENDBRANCH  11  13
ENDBRANCH   1  11
BRANCH   9  18
HETATM   18  N3  UNL     1      26.381   3.591  50.872  1.00  0.00    -0.306 NA
HETATM   19  H23 UNL     1      25.837   4.255  50.287  1.00  0.00     0.124 HD
HETATM   20  H24 UNL     1      25.705   4.190  50.320  1.00  0.00     0.124 HD
ENDBRANCH   9  18
BRANCH   7  21
HETATM   21  O2  UNL     1      25.992  -0.260  53.878  1.00  0.00    -0.347 OA
BRANCH  21  22
HETATM   22  C10 UNL     1      26.661   0.183  55.023  1.00  0.00     0.207 C 
BRANCH  22  23
HETATM   23  C11 UNL     1      28.129  -0.163  54.808  1.00  0.00     0.145 C 
HETATM   24  C12 UNL     1      28.911   0.951  54.179  1.00  0.00     0.036 C 
HETATM   25  C13 UNL     1      29.997   0.181  53.414  1.00  0.00     0.029 C 
HETATM   26  C14 UNL     1      29.618  -1.261  53.671  1.00  0.00     0.168 C 
HETATM   27  O3  UNL     1      28.238  -1.175  53.830  1.00  0.00    -0.384 OA
ENDBRANCH  22  23
ENDBRANCH  21  22
ENDBRANCH   7  21
TORSDOF 7
ENDMDL
MODEL 5
REMARK VINA RESULT:      -7.2      4.016      5.118
REMARK  7 active torsions:
REMARK  status: ('A' for Active; 'I' for Inactive)
REMARK    1  A    between atoms: C3_4  and  C4_5 
REMARK    2  A    between atoms: C4_5  and  N1_6 
REMARK    3  A    between atoms: N1_6  and  C5_7 
REMARK    4  A    between atoms: C9_13  and  O2_14 
REMARK    5  A    between atoms: O2_14  and  C10_15 
REMARK    6  A    between atoms: C10_15  and  C11_16 
REMARK    7  A    between atoms: C16_22  and  N3_23 
ROOT
HETATM    1  C5  UNL     1      23.627   3.687  50.417  1.00  0.00     0.099 C 
HETATM    2  N2  UNL     1      24.423   4.449  49.828  1.00  0.00    -0.275 NA
HETATM    3  C6  UNL     1      25.753   4.538  49.470  1.00  0.00     0.177 C 
HETATM    4  C7  UNL     1      26.675   3.356  49.677  1.00  0.00     0.196 C 
HETATM    5  O1  UNL     1      26.848   2.883  50.883  1.00  0.00    -0.359 OA
HETATM    6  C8  UNL     1      27.016   2.420  52.065  1.00  0.00     0.171 C 
HETATM    7  C9  UNL     1      26.182   2.044  53.009  1.00  0.00     0.092 C 
HETATM    8  C15 UNL     1      24.737   2.002  53.063  1.00  0.00     0.057 C 
HETATM    9  C16 UNL     1      23.616   2.201  52.392  1.00  0.00    -0.007 C 
HETATM   10  C17 UNL     1      23.847   2.358  50.956  1.00  0.00     0.128 C 
ENDROOT
BRANCH   1  11
HETATM   11  N1  UNL     1      22.312   4.287  50.422  1.00  0.00    -0.375 N 
HETATM   12  H7  UNL     1      21.633   3.968  49.655  1.00  0.00     0.161 HD
BRANCH  11  13
HETATM   13  C4  UNL     1      21.832   5.303  51.382  1.00  0.00     0.149 C 
BRANCH  13  14
HETATM   14  C3  UNL     1      21.646   6.548  50.586  1.00  0.00     0.011 C 
HETATM   15  C2  UNL     1      22.394   7.623  50.316  1.00  0.00     0.005 C 
HETATM   16  C1  UNL     1      23.760   7.713  50.894  1.00  0.00     0.061 C 
HETATM   17 CL1  UNL     1      21.603   8.821  49.267  1.00  0.00    -0.090 Cl
ENDBRANCH  13  14
ENDBRANCH  11  13
ENDBRANCH   1  11
BRANCH   9  18
HETATM   18  N3  UNL     1      22.228   2.073  52.762  1.00  0.00    -0.306 NA
HETATM   19  H23 UNL     1      22.105   1.523  53.634  1.00  0.00     0.124 HD
HETATM   20  H24 UNL     1      22.254   1.501  53.652  1.00  0.00     0.124 HD
ENDBRANCH   9  18
BRANCH   7  21
HETATM   21  O2  UNL     1      26.942   1.648  54.031  1.00  0.00    -0.347 OA
BRANCH  21  22
HETATM   22  C10 UNL     1      26.775   0.455  54.742  1.00  0.00     0.207 C 
BRANCH  22  23
HETATM   23  C11 UNL     1      28.093  -0.298  54.608  1.00  0.00     0.145 C 
HETATM   24  C12 UNL     1      29.244   0.589  54.237  1.00  0.00     0.036 C 
HETATM   25  C13 UNL     1      30.149  -0.378  53.461  1.00  0.00     0.029 C 
HETATM   26  C14 UNL     1      29.334  -1.651  53.449  1.00  0.00     0.168 C 
HETATM   27  O3  UNL     1      28.031  -1.164  53.495  1.00  0.00    -0.384 OA
ENDBRANCH  22  23
ENDBRANCH  21  22
ENDBRANCH   7  21
TORSDOF 7
ENDMDL
MODEL 6
REMARK VINA RESULT:      -7.1      4.136      8.657
REMARK  7 active torsions:
REMARK  status: ('A' for Active; 'I' for Inactive)
REMARK    1  A    between atoms: C3_4  and  C4_5 
REMARK    2  A    between atoms: C4_5  and  N1_6 
REMARK    3  A    between atoms: N1_6  and  C5_7 
REMARK    4  A    between atoms: C9_13  and  O2_14 
REMARK    5  A    between atoms: O2_14  and  C10_15 
REMARK    6  A    between atoms: C10_15  and  C11_16 
REMARK    7  A    between atoms: C16_22  and  N3_23 
ROOT
HETATM    1  C5  UNL     1      23.907   0.113  53.375  1.00  0.00     0.099 C 
HETATM    2  N2  UNL     1      23.892   0.619  52.233  1.00  0.00    -0.275 NA
HETATM    3  C6  UNL     1      23.055   1.302  51.376  1.00  0.00     0.177 C 
HETATM    4  C7  UNL     1      21.705   1.788  51.861  1.00  0.00     0.196 C 
HETATM    5  O1  UNL     1      20.835   0.919  52.305  1.00  0.00    -0.359 OA
HETATM    6  C8  UNL     1      19.983   0.069  52.740  1.00  0.00     0.171 C 
HETATM    7  C9  UNL     1      20.052  -0.896  53.630  1.00  0.00     0.092 C 
HETATM    8  C15 UNL     1      21.132  -1.358  54.475  1.00  0.00     0.057 C 
HETATM    9  C16 UNL     1      22.384  -1.157  54.850  1.00  0.00    -0.007 C 
HETATM   10  C17 UNL     1      22.894   0.143  54.412  1.00  0.00     0.128 C 
ENDROOT
BRANCH   1  11
HETATM   11  N1  UNL     1      25.203  -0.483  53.613  1.00  0.00    -0.375 N 
HETATM   12  H7  UNL     1      25.354  -0.941  54.571  1.00  0.00     0.161 HD
BRANCH  11  13
HETATM   13  C4  UNL     1      26.330  -0.506  52.657  1.00  0.00     0.149 C 
BRANCH  13  14
HETATM   14  C3  UNL     1      27.168   0.675  53.002  1.00  0.00     0.011 C 
HETATM   15  C2  UNL     1      28.403   0.856  53.482  1.00  0.00     0.005 C 
HETATM   16  C1  UNL     1      29.240  -0.334  53.784  1.00  0.00     0.061 C 
HETATM   17 CL1  UNL     1      28.865   2.560  53.691  1.00  0.00    -0.090 Cl
ENDBRANCH  13  14
ENDBRANCH  11  13
ENDBRANCH   1  11
BRANCH   9  18
HETATM   18  N3  UNL     1      23.244  -1.855  55.773  1.00  0.00    -0.306 NA
HETATM   19  H23 UNL     1      23.068  -1.579  56.758  1.00  0.00     0.124 HD
HETATM   20  H24 UNL     1      22.958  -1.481  56.720  1.00  0.00     0.124 HD
ENDBRANCH   9  18
BRANCH   7  21
HETATM   21  O2  UNL     1      18.840  -1.452  53.662  1.00  0.00    -0.347 OA
BRANCH  21  22
HETATM   22  C10 UNL     1      17.824  -1.220  52.729  1.00  0.00     0.207 C 
BRANCH  22  23
HETATM   23  C11 UNL     1      16.691  -2.168  53.102  1.00  0.00     0.145 C 
HETATM   24  C12 UNL     1      17.165  -3.550  53.437  1.00  0.00     0.036 C 
HETATM   25  C13 UNL     1      15.957  -4.405  53.027  1.00  0.00     0.029 C 
HETATM   26  C14 UNL     1      15.008  -3.376  52.454  1.00  0.00     0.168 C 
HETATM   27  O3  UNL     1      15.884  -2.410  51.970  1.00  0.00    -0.384 OA
ENDBRANCH  22  23
ENDBRANCH  21  22
ENDBRANCH   7  21
TORSDOF 7
ENDMDL
MODEL 7
REMARK VINA RESULT:      -7.0      3.204      4.677
REMARK  7 active torsions:
REMARK  status: ('A' for Active; 'I' for Inactive)
REMARK    1  A    between atoms: C3_4  and  C4_5 
REMARK    2  A    between atoms: C4_5  and  N1_6 
REMARK    3  A    between atoms: N1_6  and  C5_7 
REMARK    4  A    between atoms: C9_13  and  O2_14 
REMARK    5  A    between atoms: O2_14  and  C10_15 
REMARK    6  A    between atoms: C10_15  and  C11_16 
REMARK    7  A    between atoms: C16_22  and  N3_23 
ROOT
HETATM    1  C5  UNL     1      23.372   2.562  50.221  1.00  0.00     0.099 C 
HETATM    2  N2  UNL     1      22.426   1.769  50.028  1.00  0.00    -0.275 NA
HETATM    3  C6  UNL     1      21.654   0.842  50.697  1.00  0.00     0.177 C 
HETATM    4  C7  UNL     1      21.780   0.690  52.198  1.00  0.00     0.196 C 
HETATM    5  O1  UNL     1      22.936   0.362  52.712  1.00  0.00    -0.359 OA
HETATM    6  C8  UNL     1      24.068   0.042  53.216  1.00  0.00     0.171 C 
HETATM    7  C9  UNL     1      25.282   0.527  53.076  1.00  0.00     0.092 C 
HETATM    8  C15 UNL     1      25.800   1.630  52.297  1.00  0.00     0.057 C 
HETATM    9  C16 UNL     1      25.495   2.628  51.485  1.00  0.00    -0.007 C 
HETATM   10  C17 UNL     1      24.058   2.901  51.454  1.00  0.00     0.128 C 
ENDROOT
BRANCH   1  11
HETATM   11  N1  UNL     1      23.679   3.243  48.984  1.00  0.00    -0.375 N 
HETATM   12  H7  UNL     1      24.013   2.632  48.167  1.00  0.00     0.161 HD
BRANCH  11  13
HETATM   13  C4  UNL     1      23.582   4.700  48.753  1.00  0.00     0.149 C 
BRANCH  13  14
HETATM   14  C3  UNL     1      22.180   4.941  48.314  1.00  0.00     0.011 C 
HETATM   15  C2  UNL     1      21.035   5.262  48.926  1.00  0.00     0.005 C 
HETATM   16  C1  UNL     1      21.035   5.451  50.400  1.00  0.00     0.061 C 
HETATM   17 CL1  UNL     1      19.640   5.417  47.835  1.00  0.00    -0.090 Cl
ENDBRANCH  13  14
ENDBRANCH  11  13
ENDBRANCH   1  11
BRANCH   9  18
HETATM   18  N3  UNL     1      26.304   3.616  50.816  1.00  0.00    -0.306 NA
HETATM   19  H23 UNL     1      26.027   3.742  49.823  1.00  0.00     0.124 HD
HETATM   20  H24 UNL     1      25.916   3.639  49.832  1.00  0.00     0.124 HD
ENDBRANCH   9  18
BRANCH   7  21
HETATM   21  O2  UNL     1      26.066  -0.221  53.855  1.00  0.00    -0.347 OA
BRANCH  21  22
HETATM   22  C10 UNL     1      26.737   0.234  54.995  1.00  0.00     0.207 C 
BRANCH  22  23
HETATM   23  C11 UNL     1      28.200  -0.140  54.794  1.00  0.00     0.145 C 
HETATM   24  C12 UNL     1      28.994   0.930  54.106  1.00  0.00     0.036 C 
HETATM   25  C13 UNL     1      30.068   0.107  53.381  1.00  0.00     0.029 C 
HETATM   26  C14 UNL     1      29.671  -1.314  53.713  1.00  0.00     0.168 C 
HETATM   27  O3  UNL     1      28.294  -1.203  53.870  1.00  0.00    -0.384 OA
ENDBRANCH  22  23
ENDBRANCH  21  22
ENDBRANCH   7  21
TORSDOF 7
ENDMDL
MODEL 8
REMARK VINA RESULT:      -6.8      7.203      8.465
REMARK  7 active torsions:
REMARK  status: ('A' for Active; 'I' for Inactive)
REMARK    1  A    between atoms: C3_4  and  C4_5 
REMARK    2  A    between atoms: C4_5  and  N1_6 
REMARK    3  A    between atoms: N1_6  and  C5_7 
REMARK    4  A    between atoms: C9_13  and  O2_14 
REMARK    5  A    between atoms: O2_14  and  C10_15 
REMARK    6  A    between atoms: C10_15  and  C11_16 
REMARK    7  A    between atoms: C16_22  and  N3_23 
ROOT
HETATM    1  C5  UNL     1      26.235   7.447  49.913  1.00  0.00     0.099 C 
HETATM    2  N2  UNL     1      26.794   8.506  50.271  1.00  0.00    -0.275 NA
HETATM    3  C6  UNL     1      27.809   9.360  49.894  1.00  0.00     0.177 C 
HETATM    4  C7  UNL     1      28.509   9.168  48.565  1.00  0.00     0.196 C 
HETATM    5  O1  UNL     1      29.126   8.041  48.325  1.00  0.00    -0.359 OA
HETATM    6  C8  UNL     1      29.731   6.938  48.089  1.00  0.00     0.171 C 
HETATM    7  C9  UNL     1      29.366   5.678  48.178  1.00  0.00     0.092 C 
HETATM    8  C15 UNL     1      28.120   5.057  48.569  1.00  0.00     0.057 C 
HETATM    9  C16 UNL     1      26.868   5.265  48.940  1.00  0.00    -0.007 C 
HETATM   10  C17 UNL     1      26.446   6.648  48.721  1.00  0.00     0.128 C 
ENDROOT
BRANCH   1  11
HETATM   11  N1  UNL     1      25.190   7.121  50.857  1.00  0.00    -0.375 N 
HETATM   12  H7  UNL     1      25.454   6.456  51.657  1.00  0.00     0.161 HD
BRANCH  11  13
HETATM   13  C4  UNL     1      23.797   7.614  50.807  1.00  0.00     0.149 C 
BRANCH  13  14
HETATM   14  C3  UNL     1      22.964   6.421  50.494  1.00  0.00     0.011 C 
HETATM   15  C2  UNL     1      22.497   5.855  49.376  1.00  0.00     0.005 C 
HETATM   16  C1  UNL     1      22.823   6.476  48.065  1.00  0.00     0.061 C 
HETATM   17 CL1  UNL     1      21.523   4.392  49.646  1.00  0.00    -0.090 Cl
ENDBRANCH  13  14
ENDBRANCH  11  13
ENDBRANCH   1  11
BRANCH   9  18
HETATM   18  N3  UNL     1      25.801   4.365  49.301  1.00  0.00    -0.306 NA
HETATM   19  H23 UNL     1      25.168   4.167  48.501  1.00  0.00     0.124 HD
HETATM   20  H24 UNL     1      25.247   4.256  48.406  1.00  0.00     0.124 HD
ENDBRANCH   9  18
BRANCH   7  21
HETATM   21  O2  UNL     1      30.427   4.963  47.800  1.00  0.00    -0.347 OA
BRANCH  21  22
HETATM   22  C10 UNL     1      31.560   5.480  47.162  1.00  0.00     0.207 C 
BRANCH  22  23
HETATM   23  C11 UNL     1      32.469   4.286  46.896  1.00  0.00     0.145 C 
HETATM   24  C12 UNL     1      31.716   3.042  46.532  1.00  0.00     0.036 C 
HETATM   25  C13 UNL     1      32.654   1.943  47.052  1.00  0.00     0.029 C 
HETATM   26  C14 UNL     1      33.765   2.740  47.698  1.00  0.00     0.168 C 
HETATM   27  O3  UNL     1      33.100   3.896  48.097  1.00  0.00    -0.384 OA
ENDBRANCH  22  23
ENDBRANCH  21  22
ENDBRANCH   7  21
TORSDOF 7
ENDMDL
MODEL 9
REMARK VINA RESULT:      -6.8      3.760      6.807
REMARK  7 active torsions:
REMARK  status: ('A' for Active; 'I' for Inactive)
REMARK    1  A    between atoms: C3_4  and  C4_5 
REMARK    2  A    between atoms: C4_5  and  N1_6 
REMARK    3  A    between atoms: N1_6  and  C5_7 
REMARK    4  A    between atoms: C9_13  and  O2_14 
REMARK    5  A    between atoms: O2_14  and  C10_15 
REMARK    6  A    between atoms: C10_15  and  C11_16 
REMARK    7  A    between atoms: C16_22  and  N3_23 
ROOT
HETATM    1  C5  UNL     1      24.299   4.593  50.361  1.00  0.00     0.099 C 
HETATM    2  N2  UNL     1      24.050   4.437  49.146  1.00  0.00    -0.275 NA
HETATM    3  C6  UNL     1      22.984   4.343  48.276  1.00  0.00     0.177 C 
HETATM    4  C7  UNL     1      21.578   4.614  48.767  1.00  0.00     0.196 C 
HETATM    5  O1  UNL     1      21.085   3.881  49.731  1.00  0.00    -0.359 OA
HETATM    6  C8  UNL     1      20.602   3.165  50.675  1.00  0.00     0.171 C 
HETATM    7  C9  UNL     1      21.047   2.832  51.867  1.00  0.00     0.092 C 
HETATM    8  C15 UNL     1      22.263   3.169  52.574  1.00  0.00     0.057 C 
HETATM    9  C16 UNL     1      23.387   3.865  52.540  1.00  0.00    -0.007 C 
HETATM   10  C17 UNL     1      23.394   4.856  51.463  1.00  0.00     0.128 C 
ENDROOT
BRANCH   1  11
HETATM   11  N1  UNL     1      25.731   4.576  50.557  1.00  0.00    -0.375 N 
HETATM   12  H7  UNL     1      26.155   5.408  51.087  1.00  0.00     0.161 HD
BRANCH  11  13
HETATM   13  C4  UNL     1      26.654   3.522  50.085  1.00  0.00     0.149 C 
BRANCH  13  14
HETATM   14  C3  UNL     1      26.258   2.289  50.819  1.00  0.00     0.011 C 
HETATM   15  C2  UNL     1      26.671   1.671  51.930  1.00  0.00     0.005 C 
HETATM   16  C1  UNL     1      27.790   2.261  52.709  1.00  0.00     0.061 C 
HETATM   17 CL1  UNL     1      25.780   0.181  52.314  1.00  0.00    -0.090 Cl
ENDBRANCH  13  14
ENDBRANCH  11  13
ENDBRANCH   1  11
BRANCH   9  18
HETATM   18  N3  UNL     1      24.482   3.985  53.469  1.00  0.00    -0.306 NA
HETATM   19  H23 UNL     1      25.327   4.396  53.027  1.00  0.00     0.124 HD
HETATM   20  H24 UNL     1      25.260   4.411  52.891  1.00  0.00     0.124 HD
ENDBRANCH   9  18
BRANCH   7  21
HETATM   21  O2  UNL     1      20.103   2.058  52.406  1.00  0.00    -0.347 OA
BRANCH  21  22
HETATM   22  C10 UNL     1      19.724   0.800  51.928  1.00  0.00     0.207 C 
BRANCH  22  23
HETATM   23  C11 UNL     1      20.395  -0.214  52.846  1.00  0.00     0.145 C 
HETATM   24  C12 UNL     1      20.528   0.268  54.259  1.00  0.00     0.036 C 
HETATM   25  C13 UNL     1      21.789  -0.472  54.727  1.00  0.00     0.029 C 
HETATM   26  C14 UNL     1      22.219  -1.207  53.477  1.00  0.00     0.168 C 
HETATM   27  O3  UNL     1      21.746  -0.371  52.471  1.00  0.00    -0.384 OA
ENDBRANCH  22  23
ENDBRANCH  21  22
ENDBRANCH   7  21
TORSDOF 7
ENDMDL
