MODEL 1
REMARK VINA RESULT:      -7.0      0.000      0.000
REMARK  4 active torsions:
REMARK  status: ('A' for Active; 'I' for Inactive)
REMARK    1  A    between atoms: C2_3  and  C3_4 
REMARK    2  A    between atoms: C3_4  and  C4_5 
REMARK    3  A    between atoms: C10_12  and  N2_13 
REMARK    4  A    between atoms: N2_13  and  C11_14 
ROOT
HETATM    1  N1  UNL     1      24.128   4.227  51.009  1.00  0.00    -0.096 N 
HETATM    2  C1  UNL     1      25.202   3.692  50.821  1.00  0.00     0.017 C 
HETATM    3  C2  UNL     1      26.586   2.972  50.583  1.00  0.00     0.027 C 
HETATM    4  C10 UNL     1      26.571   3.671  49.392  1.00  0.00     0.168 C 
ENDROOT
BRANCH   3   5
HETATM    5  C3  UNL     1      26.701   2.306  51.642  1.00  0.00     0.030 C 
BRANCH   5   6
HETATM    6  C4  UNL     1      26.893   1.644  52.873  1.00  0.00    -0.033 C 
HETATM    7  C5  UNL     1      28.238   1.739  53.137  1.00  0.00     0.013 C 
HETATM    8  C6  UNL     1      29.178   1.295  54.234  1.00  0.00     0.025 C 
HETATM    9  C7  UNL     1      28.669   0.297  54.927  1.00  0.00     0.141 C 
HETATM   10  O1  UNL     1      27.527  -0.513  54.974  1.00  0.00    -0.335 OA
HETATM   11  C8  UNL     1      26.234   0.132  54.789  1.00  0.00     0.142 C 
HETATM   12  C9  UNL     1      26.032   1.042  53.888  1.00  0.00     0.036 C 
ENDBRANCH   5   6
ENDBRANCH   3   5
BRANCH   4  13
HETATM   13  N2  UNL     1      26.532   5.098  49.317  1.00  0.00    -0.387 N 
HETATM   14  H9  UNL     1      26.355   5.293  50.355  1.00  0.00     0.159 HD
BRANCH  13  15
HETATM   15  C11 UNL     1      26.638   6.388  48.593  1.00  0.00     0.031 C 
HETATM   16  C12 UNL     1      27.897   6.372  48.168  1.00  0.00     0.056 C 
HETATM   17 CL1  UNL     1      29.380   5.479  48.145  1.00  0.00    -0.082 Cl
HETATM   18  C13 UNL     1      27.942   7.798  47.709  1.00  0.00     0.026 C 
HETATM   19  C14 UNL     1      27.512   8.935  47.524  1.00  0.00     0.006 C 
HETATM   20  P1  UNL     1      25.777   8.950  48.174  1.00  0.00    -0.100 P 
HETATM   21  C15 UNL     1      25.409   7.153  48.551  1.00  0.00     0.094 C 
HETATM   22  H12 UNL     1      24.856   9.537  47.195  1.00  0.00     0.062 HD
ENDBRANCH  13  15
ENDBRANCH   4  13
TORSDOF 4
ENDMDL
MODEL 2
REMARK VINA RESULT:      -6.9      1.892      2.119
REMARK  4 active torsions:
REMARK  status: ('A' for Active; 'I' for Inactive)
REMARK    1  A    between atoms: C2_3  and  C3_4 
REMARK    2  A    between atoms: C3_4  and  C4_5 
REMARK    3  A    between atoms: C10_12  and  N2_13 
REMARK    4  A    between atoms: N2_13  and  C11_14 
ROOT
HETATM    1  N1  UNL     1      23.866   3.783  50.426  1.00  0.00    -0.096 N 
HETATM    2  C1  UNL     1      25.045   3.504  50.340  1.00  0.00     0.017 C 
HETATM    3  C2  UNL     1      26.571   3.115  50.226  1.00  0.00     0.027 C 
HETATM    4  C10 UNL     1      26.602   4.132  49.293  1.00  0.00     0.168 C 
ENDROOT
BRANCH   3   5
HETATM    5  C3  UNL     1      26.650   2.185  51.066  1.00  0.00     0.030 C 
BRANCH   5   6
HETATM    6  C4  UNL     1      26.829   1.195  52.055  1.00  0.00    -0.033 C 
HETATM    7  C5  UNL     1      27.799   1.684  52.896  1.00  0.00     0.013 C 
HETATM    8  C6  UNL     1      28.505   1.221  54.150  1.00  0.00     0.025 C 
HETATM    9  C7  UNL     1      28.434  -0.088  54.285  1.00  0.00     0.141 C 
HETATM   10  O1  UNL     1      27.920  -1.214  53.629  1.00  0.00    -0.335 OA
HETATM   11  C8  UNL     1      26.584  -1.113  53.058  1.00  0.00     0.142 C 
HETATM   12  C9  UNL     1      26.180  -0.064  52.410  1.00  0.00     0.036 C 
ENDBRANCH   5   6
ENDBRANCH   3   5
BRANCH   4  13
HETATM   13  N2  UNL     1      26.273   5.490  49.596  1.00  0.00    -0.387 N 
HETATM   14  H9  UNL     1      25.537   5.296  50.349  1.00  0.00     0.159 HD
BRANCH  13  15
HETATM   15  C11 UNL     1      26.437   6.956  49.445  1.00  0.00     0.031 C 
HETATM   16  C12 UNL     1      25.490   7.433  50.245  1.00  0.00     0.056 C 
HETATM   17 CL1  UNL     1      24.203   7.022  51.329  1.00  0.00    -0.082 Cl
HETATM   18  C13 UNL     1      25.588   8.860  49.800  1.00  0.00     0.026 C 
HETATM   19  C14 UNL     1      26.007   9.804  49.134  1.00  0.00     0.006 C 
HETATM   20  P1  UNL     1      27.285   9.109  47.986  1.00  0.00    -0.100 P 
HETATM   21  C15 UNL     1      27.528   7.350  48.577  1.00  0.00     0.094 C 
HETATM   22  H12 UNL     1      28.514   9.909  48.025  1.00  0.00     0.062 HD
ENDBRANCH  13  15
ENDBRANCH   4  13
TORSDOF 4
ENDMDL
MODEL 3
REMARK VINA RESULT:      -6.8      2.716      3.736
REMARK  4 active torsions:
REMARK  status: ('A' for Active; 'I' for Inactive)
REMARK    1  A    between atoms: C2_3  and  C3_4 
REMARK    2  A    between atoms: C3_4  and  C4_5 
REMARK    3  A    between atoms: C10_12  and  N2_13 
REMARK    4  A    between atoms: N2_13  and  C11_14 
ROOT
HETATM    1  N1  UNL     1      23.571   4.681  53.005  1.00  0.00    -0.096 N 
HETATM    2  C1  UNL     1      23.467   3.775  52.203  1.00  0.00     0.017 C 
HETATM    3  C2  UNL     1      23.314   2.585  51.177  1.00  0.00     0.027 C 
HETATM    4  C10 UNL     1      23.129   3.602  50.261  1.00  0.00     0.168 C 
ENDROOT
BRANCH   3   5
HETATM    5  C3  UNL     1      23.484   1.592  51.926  1.00  0.00     0.030 C 
BRANCH   5   6
HETATM    6  C4  UNL     1      23.604   0.526  52.842  1.00  0.00    -0.033 C 
HETATM    7  C5  UNL     1      22.319   0.105  53.089  1.00  0.00     0.013 C 
HETATM    8  C6  UNL     1      21.651  -0.960  53.927  1.00  0.00     0.025 C 
HETATM    9  C7  UNL     1      22.433  -1.356  54.911  1.00  0.00     0.141 C 
HETATM   10  O1  UNL     1      23.699  -1.100  55.453  1.00  0.00    -0.335 OA
HETATM   11  C8  UNL     1      24.808  -0.926  54.525  1.00  0.00     0.142 C 
HETATM   12  C9  UNL     1      24.702  -0.233  53.434  1.00  0.00     0.036 C 
ENDBRANCH   5   6
ENDBRANCH   3   5
BRANCH   4  13
HETATM   13  N2  UNL     1      24.110   4.605  49.988  1.00  0.00    -0.387 N 
HETATM   14  H9  UNL     1      23.905   5.239  50.827  1.00  0.00     0.159 HD
BRANCH  13  15
HETATM   15  C11 UNL     1      25.233   5.180  49.209  1.00  0.00     0.031 C 
HETATM   16  C12 UNL     1      26.193   4.280  49.387  1.00  0.00     0.056 C 
HETATM   17 CL1  UNL     1      26.616   2.782  50.146  1.00  0.00    -0.082 Cl
HETATM   18  C13 UNL     1      27.305   5.093  48.797  1.00  0.00     0.026 C 
HETATM   19  C14 UNL     1      27.826   6.080  48.282  1.00  0.00     0.006 C 
HETATM   20  P1  UNL     1      26.483   7.343  48.094  1.00  0.00    -0.100 P 
HETATM   21  C15 UNL     1      24.914   6.415  48.523  1.00  0.00     0.094 C 
HETATM   22  H12 UNL     1      26.474   7.900  46.737  1.00  0.00     0.062 HD
ENDBRANCH  13  15
ENDBRANCH   4  13
TORSDOF 4
ENDMDL
MODEL 4
REMARK VINA RESULT:      -6.8      2.507      3.041
REMARK  4 active torsions:
REMARK  status: ('A' for Active; 'I' for Inactive)
REMARK    1  A    between atoms: C2_3  and  C3_4 
REMARK    2  A    between atoms: C3_4  and  C4_5 
REMARK    3  A    between atoms: C10_12  and  N2_13 
REMARK    4  A    between atoms: N2_13  and  C11_14 
ROOT
HETATM    1  N1  UNL     1      23.736   2.511  50.688  1.00  0.00    -0.096 N 
HETATM    2  C1  UNL     1      24.947   2.586  50.739  1.00  0.00     0.017 C 
HETATM    3  C2  UNL     1      26.523   2.656  50.799  1.00  0.00     0.027 C 
HETATM    4  C10 UNL     1      26.347   3.806  50.055  1.00  0.00     0.168 C 
ENDROOT
BRANCH   3   5
HETATM    5  C3  UNL     1      26.788   1.636  51.482  1.00  0.00     0.030 C 
BRANCH   5   6
HETATM    6  C4  UNL     1      27.182   0.543  52.283  1.00  0.00    -0.033 C 
HETATM    7  C5  UNL     1      28.199   1.015  53.077  1.00  0.00     0.013 C 
HETATM    8  C6  UNL     1      29.097   0.463  54.161  1.00  0.00     0.025 C 
HETATM    9  C7  UNL     1      29.167  -0.851  54.101  1.00  0.00     0.141 C 
HETATM   10  O1  UNL     1      28.685  -1.925  53.342  1.00  0.00    -0.335 OA
HETATM   11  C8  UNL     1      27.284  -1.895  52.943  1.00  0.00     0.142 C 
HETATM   12  C9  UNL     1      26.705  -0.818  52.511  1.00  0.00     0.036 C 
ENDBRANCH   5   6
ENDBRANCH   3   5
BRANCH   4  13
HETATM   13  N2  UNL     1      25.604   4.936  50.517  1.00  0.00    -0.387 N 
HETATM   14  H9  UNL     1      25.597   4.690  51.559  1.00  0.00     0.159 HD
BRANCH  13  15
HETATM   15  C11 UNL     1      24.902   6.228  50.320  1.00  0.00     0.031 C 
HETATM   16  C12 UNL     1      23.937   6.170  51.231  1.00  0.00     0.056 C 
HETATM   17 CL1  UNL     1      23.218   5.213  52.483  1.00  0.00    -0.082 Cl
HETATM   18  C13 UNL     1      23.173   7.366  50.752  1.00  0.00     0.026 C 
HETATM   19  C14 UNL     1      22.922   8.321  50.021  1.00  0.00     0.006 C 
HETATM   20  P1  UNL     1      24.247   8.351  48.725  1.00  0.00    -0.100 P 
HETATM   21  C15 UNL     1      25.492   7.081  49.309  1.00  0.00     0.094 C 
HETATM   22  H12 UNL     1      24.813   9.697  48.587  1.00  0.00     0.062 HD
ENDBRANCH  13  15
ENDBRANCH   4  13
TORSDOF 4
ENDMDL
MODEL 5
REMARK VINA RESULT:      -6.7      1.947      2.173
REMARK  4 active torsions:
REMARK  status: ('A' for Active; 'I' for Inactive)
REMARK    1  A    between atoms: C2_3  and  C3_4 
REMARK    2  A    between atoms: C3_4  and  C4_5 
REMARK    3  A    between atoms: C10_12  and  N2_13 
REMARK    4  A    between atoms: N2_13  and  C11_14 
ROOT
HETATM    1  N1  UNL     1      24.797   5.655  50.306  1.00  0.00    -0.096 N 
HETATM    2  C1  UNL     1      25.603   4.769  50.109  1.00  0.00     0.017 C 
HETATM    3  C2  UNL     1      26.631   3.598  49.855  1.00  0.00     0.027 C 
HETATM    4  C10 UNL     1      27.086   4.423  48.845  1.00  0.00     0.168 C 
ENDROOT
BRANCH   3   5
HETATM    5  C3  UNL     1      26.303   2.784  50.753  1.00  0.00     0.030 C 
BRANCH   5   6
HETATM    6  C4  UNL     1      25.826   1.882  51.727  1.00  0.00    -0.033 C 
HETATM    7  C5  UNL     1      26.769   0.885  51.799  1.00  0.00     0.013 C 
HETATM    8  C6  UNL     1      26.966  -0.390  52.587  1.00  0.00     0.025 C 
HETATM    9  C7  UNL     1      25.824  -0.837  53.069  1.00  0.00     0.141 C 
HETATM   10  O1  UNL     1      24.460  -0.520  53.080  1.00  0.00    -0.335 OA
HETATM   11  C8  UNL     1      24.091   0.877  53.267  1.00  0.00     0.142 C 
HETATM   12  C9  UNL     1      24.714   1.847  52.672  1.00  0.00     0.036 C 
ENDBRANCH   5   6
ENDBRANCH   3   5
BRANCH   4  13
HETATM   13  N2  UNL     1      27.602   5.736  49.072  1.00  0.00    -0.387 N 
HETATM   14  H9  UNL     1      27.503   5.748  50.138  1.00  0.00     0.159 HD
BRANCH  13  15
HETATM   15  C11 UNL     1      28.208   7.015  48.628  1.00  0.00     0.031 C 
HETATM   16  C12 UNL     1      29.373   6.619  48.127  1.00  0.00     0.056 C 
HETATM   17 CL1  UNL     1      30.402   5.260  47.821  1.00  0.00    -0.082 Cl
HETATM   18  C13 UNL     1      29.969   7.985  47.974  1.00  0.00     0.026 C 
HETATM   19  C14 UNL     1      30.010   9.211  48.058  1.00  0.00     0.006 C 
HETATM   20  P1  UNL     1      28.400   9.737  48.810  1.00  0.00    -0.100 P 
HETATM   21  C15 UNL     1      27.366   8.177  48.827  1.00  0.00     0.094 C 
HETATM   22  H12 UNL     1      27.793  10.826  48.038  1.00  0.00     0.062 HD
ENDBRANCH  13  15
ENDBRANCH   4  13
TORSDOF 4
ENDMDL
MODEL 6
REMARK VINA RESULT:      -6.7      2.179      2.782
REMARK  4 active torsions:
REMARK  status: ('A' for Active; 'I' for Inactive)
REMARK    1  A    between atoms: C2_3  and  C3_4 
REMARK    2  A    between atoms: C3_4  and  C4_5 
REMARK    3  A    between atoms: C10_12  and  N2_13 
REMARK    4  A    between atoms: N2_13  and  C11_14 
ROOT
HETATM    1  N1  UNL     1      23.952   3.842  49.433  1.00  0.00    -0.096 N 
HETATM    2  C1  UNL     1      25.074   3.512  49.758  1.00  0.00     0.017 C 
HETATM    3  C2  UNL     1      26.527   3.056  50.174  1.00  0.00     0.027 C 
HETATM    4  C10 UNL     1      26.918   4.149  49.426  1.00  0.00     0.168 C 
ENDROOT
BRANCH   3   5
HETATM    5  C3  UNL     1      26.275   2.052  50.884  1.00  0.00     0.030 C 
BRANCH   5   6
HETATM    6  C4  UNL     1      26.085   0.949  51.744  1.00  0.00    -0.033 C 
HETATM    7  C5  UNL     1      24.835   1.118  52.289  1.00  0.00     0.013 C 
HETATM    8  C6  UNL     1      23.948   0.375  53.261  1.00  0.00     0.025 C 
HETATM    9  C7  UNL     1      24.650  -0.433  54.029  1.00  0.00     0.141 C 
HETATM   10  O1  UNL     1      25.976  -0.827  54.254  1.00  0.00    -0.335 OA
HETATM   11  C8  UNL     1      26.818  -1.062  53.089  1.00  0.00     0.142 C 
HETATM   12  C9  UNL     1      26.812  -0.278  52.056  1.00  0.00     0.036 C 
ENDBRANCH   5   6
ENDBRANCH   3   5
BRANCH   4  13
HETATM   13  N2  UNL     1      26.521   5.490  49.724  1.00  0.00    -0.387 N 
HETATM   14  H9  UNL     1      26.123   5.309  50.701  1.00  0.00     0.159 HD
BRANCH  13  15
HETATM   15  C11 UNL     1      26.411   6.936  49.415  1.00  0.00     0.031 C 
HETATM   16  C12 UNL     1      25.410   7.319  50.201  1.00  0.00     0.056 C 
HETATM   17 CL1  UNL     1      24.245   6.805  51.374  1.00  0.00    -0.082 Cl
HETATM   18  C13 UNL     1      25.235   8.683  49.606  1.00  0.00     0.026 C 
HETATM   19  C14 UNL     1      25.460   9.609  48.829  1.00  0.00     0.006 C 
HETATM   20  P1  UNL     1      26.818   9.034  47.707  1.00  0.00    -0.100 P 
HETATM   21  C15 UNL     1      27.392   7.422  48.467  1.00  0.00     0.094 C 
HETATM   22  H12 UNL     1      27.880  10.041  47.612  1.00  0.00     0.062 HD
ENDBRANCH  13  15
ENDBRANCH   4  13
TORSDOF 4
ENDMDL
MODEL 7
REMARK VINA RESULT:      -6.6      1.430      1.804
REMARK  4 active torsions:
REMARK  status: ('A' for Active; 'I' for Inactive)
REMARK    1  A    between atoms: C2_3  and  C3_4 
REMARK    2  A    between atoms: C3_4  and  C4_5 
REMARK    3  A    between atoms: C10_12  and  N2_13 
REMARK    4  A    between atoms: N2_13  and  C11_14 
ROOT
HETATM    1  N1  UNL     1      23.839   4.030  52.440  1.00  0.00    -0.096 N 
HETATM    2  C1  UNL     1      24.643   3.494  51.704  1.00  0.00     0.017 C 
HETATM    3  C2  UNL     1      25.686   2.773  50.763  1.00  0.00     0.027 C 
HETATM    4  C10 UNL     1      24.896   3.286  49.752  1.00  0.00     0.168 C 
ENDROOT
BRANCH   3   5
HETATM    5  C3  UNL     1      26.473   2.276  51.605  1.00  0.00     0.030 C 
BRANCH   5   6
HETATM    6  C4  UNL     1      27.421   1.811  52.541  1.00  0.00    -0.033 C 
HETATM    7  C5  UNL     1      27.225   0.453  52.621  1.00  0.00     0.013 C 
HETATM    8  C6  UNL     1      27.836  -0.705  53.376  1.00  0.00     0.025 C 
HETATM    9  C7  UNL     1      28.463  -0.294  54.459  1.00  0.00     0.141 C 
HETATM   10  O1  UNL     1      28.745   0.885  55.160  1.00  0.00    -0.335 OA
HETATM   11  C8  UNL     1      29.133   2.057  54.385  1.00  0.00     0.142 C 
HETATM   12  C9  UNL     1      28.538   2.390  53.282  1.00  0.00     0.036 C 
ENDBRANCH   5   6
ENDBRANCH   3   5
BRANCH   4  13
HETATM   13  N2  UNL     1      24.670   4.684  49.562  1.00  0.00    -0.387 N 
HETATM   14  H9  UNL     1      23.700   4.736  50.012  1.00  0.00     0.159 HD
BRANCH  13  15
HETATM   15  C11 UNL     1      25.073   6.042  49.121  1.00  0.00     0.031 C 
HETATM   16  C12 UNL     1      26.334   5.856  48.746  1.00  0.00     0.056 C 
HETATM   17 CL1  UNL     1      27.618   4.704  48.592  1.00  0.00    -0.082 Cl
HETATM   18  C13 UNL     1      26.684   7.304  48.590  1.00  0.00     0.026 C 
HETATM   19  C14 UNL     1      26.493   8.518  48.626  1.00  0.00     0.006 C 
HETATM   20  P1  UNL     1      24.748   8.756  49.206  1.00  0.00    -0.100 P 
HETATM   21  C15 UNL     1      24.019   7.032  49.194  1.00  0.00     0.094 C 
HETATM   22  H12 UNL     1      24.032   9.695  48.335  1.00  0.00     0.062 HD
ENDBRANCH  13  15
ENDBRANCH   4  13
TORSDOF 4
ENDMDL
MODEL 8
REMARK VINA RESULT:      -6.5      4.847      8.081
REMARK  4 active torsions:
REMARK  status: ('A' for Active; 'I' for Inactive)
REMARK    1  A    between atoms: C2_3  and  C3_4 
REMARK    2  A    between atoms: C3_4  and  C4_5 
REMARK    3  A    between atoms: C10_12  and  N2_13 
REMARK    4  A    between atoms: N2_13  and  C11_14 
ROOT
HETATM    1  N1  UNL     1      23.607   4.183  52.756  1.00  0.00    -0.096 N 
HETATM    2  C1  UNL     1      24.345   3.561  52.019  1.00  0.00     0.017 C 
HETATM    3  C2  UNL     1      25.324   2.774  51.063  1.00  0.00     0.027 C 
HETATM    4  C10 UNL     1      25.002   1.700  51.870  1.00  0.00     0.168 C 
ENDROOT
BRANCH   3   5
HETATM    5  C3  UNL     1      25.670   3.680  50.265  1.00  0.00     0.030 C 
BRANCH   5   6
HETATM    6  C4  UNL     1      25.977   4.762  49.415  1.00  0.00    -0.033 C 
HETATM    7  C5  UNL     1      27.311   4.630  49.115  1.00  0.00     0.013 C 
HETATM    8  C6  UNL     1      28.333   5.372  48.285  1.00  0.00     0.025 C 
HETATM    9  C7  UNL     1      27.963   6.619  48.073  1.00  0.00     0.141 C 
HETATM   10  O1  UNL     1      26.921   7.503  48.380  1.00  0.00    -0.335 OA
HETATM   11  C8  UNL     1      25.558   6.994  48.302  1.00  0.00     0.142 C 
HETATM   12  C9  UNL     1      25.224   5.823  48.751  1.00  0.00     0.036 C 
ENDBRANCH   5   6
ENDBRANCH   3   5
BRANCH   4  13
HETATM   13  N2  UNL     1      23.670   1.205  52.027  1.00  0.00    -0.387 N 
HETATM   14  H9  UNL     1      23.344   1.343  51.017  1.00  0.00     0.159 HD
BRANCH  13  15
HETATM   15  C11 UNL     1      22.569   0.597  52.813  1.00  0.00     0.031 C 
HETATM   16  C12 UNL     1      23.225  -0.181  53.667  1.00  0.00     0.056 C 
HETATM   17 CL1  UNL     1      24.784  -0.734  54.180  1.00  0.00    -0.082 Cl
HETATM   18  C13 UNL     1      22.027  -0.912  54.192  1.00  0.00     0.026 C 
HETATM   19  C14 UNL     1      20.837  -1.210  54.272  1.00  0.00     0.006 C 
HETATM   20  P1  UNL     1      19.949  -0.155  53.034  1.00  0.00    -0.100 P 
HETATM   21  C15 UNL     1      21.246   1.059  52.447  1.00  0.00     0.094 C 
HETATM   22  H12 UNL     1      18.781   0.492  53.641  1.00  0.00     0.062 HD
ENDBRANCH  13  15
ENDBRANCH   4  13
TORSDOF 4
ENDMDL
MODEL 9
REMARK VINA RESULT:      -6.3      7.524      9.351
REMARK  4 active torsions:
REMARK  status: ('A' for Active; 'I' for Inactive)
REMARK    1  A    between atoms: C2_3  and  C3_4 
REMARK    2  A    between atoms: C3_4  and  C4_5 
REMARK    3  A    between atoms: C10_12  and  N2_13 
REMARK    4  A    between atoms: N2_13  and  C11_14 
ROOT
HETATM    1  N1  UNL     1      21.450  -1.123  54.946  1.00  0.00    -0.096 N 
HETATM    2  C1  UNL     1      20.882  -0.527  54.053  1.00  0.00     0.017 C 
HETATM    3  C2  UNL     1      20.120   0.249  52.909  1.00  0.00     0.027 C 
HETATM    4  C10 UNL     1      21.264   1.023  52.883  1.00  0.00     0.168 C 
ENDROOT
BRANCH   3   5
HETATM    5  C3  UNL     1      19.048  -0.400  52.843  1.00  0.00     0.030 C 
BRANCH   5   6
HETATM    6  C4  UNL     1      17.824  -1.101  52.878  1.00  0.00    -0.033 C 
HETATM    7  C5  UNL     1      18.120  -2.336  53.404  1.00  0.00     0.013 C 
HETATM    8  C6  UNL     1      17.362  -3.598  53.747  1.00  0.00     0.025 C 
HETATM    9  C7  UNL     1      16.228  -3.671  53.081  1.00  0.00     0.141 C 
HETATM   10  O1  UNL     1      15.485  -2.957  52.132  1.00  0.00    -0.335 OA
HETATM   11  C8  UNL     1      15.400  -1.511  52.289  1.00  0.00     0.142 C 
HETATM   12  C9  UNL     1      16.423  -0.784  52.614  1.00  0.00     0.036 C 
ENDBRANCH   5   6
ENDBRANCH   3   5
BRANCH   4  13
HETATM   13  N2  UNL     1      22.563   0.501  52.595  1.00  0.00    -0.387 N 
HETATM   14  H9  UNL     1      22.252  -0.358  52.036  1.00  0.00     0.159 HD
BRANCH  13  15
HETATM   15  C11 UNL     1      24.045   0.544  52.634  1.00  0.00     0.031 C 
HETATM   16  C12 UNL     1      24.322   1.541  51.801  1.00  0.00     0.056 C 
HETATM   17 CL1  UNL     1      23.654   2.736  50.739  1.00  0.00    -0.082 Cl
HETATM   18  C13 UNL     1      25.799   1.301  51.728  1.00  0.00     0.026 C 
HETATM   19  C14 UNL     1      26.858   0.726  51.969  1.00  0.00     0.006 C 
HETATM   20  P1  UNL     1      26.442  -0.693  53.085  1.00  0.00    -0.100 P 
HETATM   21  C15 UNL     1      24.648  -0.412  53.539  1.00  0.00     0.094 C 
HETATM   22  H12 UNL     1      27.336  -0.724  54.248  1.00  0.00     0.062 HD
ENDBRANCH  13  15
ENDBRANCH   4  13
TORSDOF 4
ENDMDL
