MODEL 1
REMARK VINA RESULT:      -8.5      0.000      0.000
REMARK  2 active torsions:
REMARK  status: ('A' for Active; 'I' for Inactive)
REMARK    1  A    between atoms: C7_9  and  N3_10 
REMARK       I    between atoms: N3_10  and  C8_11 
REMARK    2  A    between atoms: C8_11  and  C9_13 
ROOT
HETATM    1  N1  UNL     1      19.464   3.327  52.186  1.00  0.00    -0.191 NA
HETATM    2  C1  UNL     1      19.977   2.374  52.593  1.00  0.00     0.102 C 
HETATM    3  C2  UNL     1      20.582   1.204  53.098  1.00  0.00     0.072 A 
HETATM    4  C3  UNL     1      20.063   0.078  53.785  1.00  0.00     0.135 A 
HETATM    5  N2  UNL     1      20.816  -0.976  54.202  1.00  0.00    -0.280 NA
HETATM    6  C4  UNL     1      22.192  -1.097  54.016  1.00  0.00     0.130 A 
HETATM    7  C5  UNL     1      22.439   0.099  53.341  1.00  0.00    -0.015 A 
HETATM    8  C6  UNL     1      23.619  -0.660  53.525  1.00  0.00     0.084 A 
HETATM    9  C7  UNL     1      24.499   0.288  52.866  1.00  0.00     0.030 A 
HETATM   10  C13 UNL     1      24.212   1.546  52.257  1.00  0.00     0.027 A 
HETATM   11  C14 UNL     1      22.884   2.026  52.246  1.00  0.00     0.015 A 
HETATM   12  C15 UNL     1      21.926   1.250  52.830  1.00  0.00    -0.008 A 
ENDROOT
BRANCH   9  13
HETATM   13  N3  UNL     1      25.820  -0.164  52.861  1.00  0.00    -0.324 N 
HETATM   14  C8  UNL     1      26.800   0.207  53.793  1.00  0.00     0.279 C 
HETATM   15  O1  UNL     1      26.496   1.007  54.715  1.00  0.00    -0.265 OA
HETATM   16  H2  UNL     1      26.137  -0.828  52.125  1.00  0.00     0.169 HD
BRANCH  14  17
HETATM   17  C9  UNL     1      28.165  -0.321  53.710  1.00  0.00     0.142 A 
HETATM   18  C10 UNL     1      29.325   0.455  53.804  1.00  0.00     0.045 A 
HETATM   19  C11 UNL     1      30.358  -0.470  53.671  1.00  0.00     0.027 A 
HETATM   20  C12 UNL     1      29.793  -1.718  53.508  1.00  0.00     0.143 A 
HETATM   21  O2  UNL     1      28.493  -1.563  53.540  1.00  0.00    -0.317 OA
ENDBRANCH  14  17
ENDBRANCH   9  13
TORSDOF 2
ENDMDL
MODEL 2
REMARK VINA RESULT:      -8.0      2.636      7.090
REMARK  2 active torsions:
REMARK  status: ('A' for Active; 'I' for Inactive)
REMARK    1  A    between atoms: C7_9  and  N3_10 
REMARK       I    between atoms: N3_10  and  C8_11 
REMARK    2  A    between atoms: C8_11  and  C9_13 
ROOT
HETATM    1  N1  UNL     1      29.779   2.378  54.941  1.00  0.00    -0.191 NA
HETATM    2  C1  UNL     1      29.157   1.507  54.504  1.00  0.00     0.102 C 
HETATM    3  C2  UNL     1      28.418   0.430  53.970  1.00  0.00     0.072 A 
HETATM    4  C3  UNL     1      28.762  -0.912  53.670  1.00  0.00     0.135 A 
HETATM    5  N2  UNL     1      27.897  -1.824  53.150  1.00  0.00    -0.280 NA
HETATM    6  C4  UNL     1      26.562  -1.571  52.840  1.00  0.00     0.130 A 
HETATM    7  C5  UNL     1      26.488  -0.230  53.218  1.00  0.00    -0.015 A 
HETATM    8  C6  UNL     1      25.253  -0.710  52.720  1.00  0.00     0.084 A 
HETATM    9  C7  UNL     1      24.538   0.543  52.887  1.00  0.00     0.030 A 
HETATM   10  C13 UNL     1      24.985   1.800  53.389  1.00  0.00     0.027 A 
HETATM   11  C14 UNL     1      26.322   1.943  53.818  1.00  0.00     0.015 A 
HETATM   12  C15 UNL     1      27.136   0.851  53.726  1.00  0.00    -0.008 A 
ENDROOT
BRANCH   9  13
HETATM   13  N3  UNL     1      23.210   0.428  52.472  1.00  0.00    -0.324 N 
HETATM   14  C8  UNL     1      22.142   0.037  53.292  1.00  0.00     0.279 C 
HETATM   15  O1  UNL     1      22.367  -0.237  54.499  1.00  0.00    -0.265 OA
HETATM   16  H2  UNL     1      22.957   0.640  51.485  1.00  0.00     0.169 HD
BRANCH  14  17
HETATM   17  C9  UNL     1      20.777  -0.055  52.768  1.00  0.00     0.142 A 
HETATM   18  C10 UNL     1      20.359   0.470  51.541  1.00  0.00     0.045 A 
HETATM   19  C11 UNL     1      19.008   0.141  51.478  1.00  0.00     0.027 A 
HETATM   20  C12 UNL     1      18.682  -0.544  52.631  1.00  0.00     0.143 A 
HETATM   21  O2  UNL     1      19.772  -0.627  53.353  1.00  0.00    -0.317 OA
ENDBRANCH  14  17
ENDBRANCH   9  13
TORSDOF 2
ENDMDL
MODEL 3
REMARK VINA RESULT:      -7.9      3.419      5.118
REMARK  2 active torsions:
REMARK  status: ('A' for Active; 'I' for Inactive)
REMARK    1  A    between atoms: C7_9  and  N3_10 
REMARK       I    between atoms: N3_10  and  C8_11 
REMARK    2  A    between atoms: C8_11  and  C9_13 
ROOT
HETATM    1  N1  UNL     1      20.804  -1.642  54.600  1.00  0.00    -0.191 NA
HETATM    2  C1  UNL     1      21.911  -1.312  54.567  1.00  0.00     0.102 C 
HETATM    3  C2  UNL     1      23.267  -0.920  54.546  1.00  0.00     0.072 A 
HETATM    4  C3  UNL     1      24.364  -1.225  55.389  1.00  0.00     0.135 A 
HETATM    5  N2  UNL     1      25.624  -0.744  55.209  1.00  0.00    -0.280 NA
HETATM    6  C4  UNL     1      26.011   0.110  54.177  1.00  0.00     0.130 A 
HETATM    7  C5  UNL     1      24.788   0.245  53.519  1.00  0.00    -0.015 A 
HETATM    8  C6  UNL     1      25.815   0.987  52.888  1.00  0.00     0.084 A 
HETATM    9  C7  UNL     1      24.974   1.518  51.830  1.00  0.00     0.030 A 
HETATM   10  C13 UNL     1      23.586   1.322  51.568  1.00  0.00     0.027 A 
HETATM   11  C14 UNL     1      22.827   0.493  52.422  1.00  0.00     0.015 A 
HETATM   12  C15 UNL     1      23.471  -0.088  53.475  1.00  0.00    -0.008 A 
ENDROOT
BRANCH   9  13
HETATM   13  N3  UNL     1      25.702   2.341  50.969  1.00  0.00    -0.324 N 
HETATM   14  C8  UNL     1      25.417   3.691  50.714  1.00  0.00     0.279 C 
HETATM   15  O1  UNL     1      24.437   4.228  51.292  1.00  0.00    -0.265 OA
HETATM   16  H2  UNL     1      26.525   1.958  50.460  1.00  0.00     0.169 HD
BRANCH  14  17
HETATM   17  C9  UNL     1      26.240   4.479  49.792  1.00  0.00     0.142 A 
HETATM   18  C10 UNL     1      25.891   5.737  49.292  1.00  0.00     0.045 A 
HETATM   19  C11 UNL     1      26.963   6.082  48.473  1.00  0.00     0.027 A 
HETATM   20  C12 UNL     1      27.879   5.051  48.515  1.00  0.00     0.143 A 
HETATM   21  O2  UNL     1      27.393   4.132  49.313  1.00  0.00    -0.317 OA
ENDBRANCH  14  17
ENDBRANCH   9  13
TORSDOF 2
ENDMDL
MODEL 4
REMARK VINA RESULT:      -7.8      1.627      2.755
REMARK  2 active torsions:
REMARK  status: ('A' for Active; 'I' for Inactive)
REMARK    1  A    between atoms: C7_9  and  N3_10 
REMARK       I    between atoms: N3_10  and  C8_11 
REMARK    2  A    between atoms: C8_11  and  C9_13 
ROOT
HETATM    1  N1  UNL     1      17.852  -1.480  53.547  1.00  0.00    -0.191 NA
HETATM    2  C1  UNL     1      18.691  -0.893  53.010  1.00  0.00     0.102 C 
HETATM    3  C2  UNL     1      19.700  -0.171  52.337  1.00  0.00     0.072 A 
HETATM    4  C3  UNL     1      19.697   0.590  51.142  1.00  0.00     0.135 A 
HETATM    5  N2  UNL     1      20.789   1.227  50.639  1.00  0.00    -0.280 NA
HETATM    6  C4  UNL     1      22.054   1.223  51.224  1.00  0.00     0.130 A 
HETATM    7  C5  UNL     1      21.788   0.434  52.343  1.00  0.00    -0.015 A 
HETATM    8  C6  UNL     1      23.139   0.855  52.300  1.00  0.00     0.084 A 
HETATM    9  C7  UNL     1      23.533   0.188  53.527  1.00  0.00     0.030 A 
HETATM   10  C13 UNL     1      22.770  -0.609  54.431  1.00  0.00     0.027 A 
HETATM   11  C14 UNL     1      21.402  -0.841  54.170  1.00  0.00     0.015 A 
HETATM   12  C15 UNL     1      20.870  -0.281  53.045  1.00  0.00    -0.008 A 
ENDROOT
BRANCH   9  13
HETATM   13  N3  UNL     1      24.883   0.403  53.810  1.00  0.00    -0.324 N 
HETATM   14  C8  UNL     1      25.935  -0.419  53.382  1.00  0.00     0.279 C 
HETATM   15  O1  UNL     1      25.674  -1.435  52.687  1.00  0.00    -0.265 OA
HETATM   16  H2  UNL     1      25.167   1.226  54.381  1.00  0.00     0.169 HD
BRANCH  14  17
HETATM   17  C9  UNL     1      27.326  -0.113  53.728  1.00  0.00     0.142 A 
HETATM   18  C10 UNL     1      28.434  -0.846  53.291  1.00  0.00     0.045 A 
HETATM   19  C11 UNL     1      29.519  -0.189  53.865  1.00  0.00     0.027 A 
HETATM   20  C12 UNL     1      29.033   0.875  54.598  1.00  0.00     0.143 A 
HETATM   21  O2  UNL     1      27.728   0.865  54.476  1.00  0.00    -0.317 OA
ENDBRANCH  14  17
ENDBRANCH   9  13
TORSDOF 2
ENDMDL
MODEL 5
REMARK VINA RESULT:      -7.7      2.980      7.117
REMARK  2 active torsions:
REMARK  status: ('A' for Active; 'I' for Inactive)
REMARK    1  A    between atoms: C7_9  and  N3_10 
REMARK       I    between atoms: N3_10  and  C8_11 
REMARK    2  A    between atoms: C8_11  and  C9_13 
ROOT
HETATM    1  N1  UNL     1      28.453   2.486  52.812  1.00  0.00    -0.191 NA
HETATM    2  C1  UNL     1      27.690   1.758  53.287  1.00  0.00     0.102 C 
HETATM    3  C2  UNL     1      26.775   0.862  53.882  1.00  0.00     0.072 A 
HETATM    4  C3  UNL     1      26.876  -0.008  54.996  1.00  0.00     0.135 A 
HETATM    5  N2  UNL     1      25.868  -0.813  55.430  1.00  0.00    -0.280 NA
HETATM    6  C4  UNL     1      24.605  -0.894  54.846  1.00  0.00     0.130 A 
HETATM    7  C5  UNL     1      24.769   0.028  53.813  1.00  0.00    -0.015 A 
HETATM    8  C6  UNL     1      23.475  -0.545  53.812  1.00  0.00     0.084 A 
HETATM    9  C7  UNL     1      22.996   0.192  52.656  1.00  0.00     0.030 A 
HETATM   10  C13 UNL     1      23.655   1.157  51.839  1.00  0.00     0.027 A 
HETATM   11  C14 UNL     1      24.991   1.516  52.124  1.00  0.00     0.015 A 
HETATM   12  C15 UNL     1      25.594   0.909  53.187  1.00  0.00    -0.008 A 
ENDROOT
BRANCH   9  13
HETATM   13  N3  UNL     1      21.675  -0.143  52.353  1.00  0.00    -0.324 N 
HETATM   14  C8  UNL     1      20.577   0.073  53.198  1.00  0.00     0.279 C 
HETATM   15  O1  UNL     1      20.765   0.608  54.321  1.00  0.00    -0.265 OA
HETATM   16  H2  UNL     1      21.452  -0.589  51.440  1.00  0.00     0.169 HD
BRANCH  14  17
HETATM   17  C9  UNL     1      19.221  -0.312  52.793  1.00  0.00     0.142 A 
HETATM   18  C10 UNL     1      18.593   0.109  51.617  1.00  0.00     0.045 A 
HETATM   19  C11 UNL     1      17.344  -0.504  51.667  1.00  0.00     0.027 A 
HETATM   20  C12 UNL     1      17.278  -1.242  52.831  1.00  0.00     0.143 A 
HETATM   21  O2  UNL     1      18.420  -1.087  53.453  1.00  0.00    -0.317 OA
ENDBRANCH  14  17
ENDBRANCH   9  13
TORSDOF 2
ENDMDL
MODEL 6
REMARK VINA RESULT:      -7.7      1.628      2.957
REMARK  2 active torsions:
REMARK  status: ('A' for Active; 'I' for Inactive)
REMARK    1  A    between atoms: C7_9  and  N3_10 
REMARK       I    between atoms: N3_10  and  C8_11 
REMARK    2  A    between atoms: C8_11  and  C9_13 
ROOT
HETATM    1  N1  UNL     1      19.350   3.270  52.331  1.00  0.00    -0.191 NA
HETATM    2  C1  UNL     1      20.438   3.397  51.963  1.00  0.00     0.102 C 
HETATM    3  C2  UNL     1      21.761   3.570  51.502  1.00  0.00     0.072 A 
HETATM    4  C3  UNL     1      22.377   4.580  50.721  1.00  0.00     0.135 A 
HETATM    5  N2  UNL     1      23.691   4.579  50.369  1.00  0.00    -0.280 NA
HETATM    6  C4  UNL     1      24.611   3.592  50.723  1.00  0.00     0.130 A 
HETATM    7  C5  UNL     1      23.775   2.752  51.459  1.00  0.00    -0.015 A 
HETATM    8  C6  UNL     1      25.101   2.262  51.402  1.00  0.00     0.084 A 
HETATM    9  C7  UNL     1      24.846   1.073  52.195  1.00  0.00     0.030 A 
HETATM   10  C13 UNL     1      23.642   0.609  52.801  1.00  0.00     0.027 A 
HETATM   11  C14 UNL     1      22.457   1.362  52.661  1.00  0.00     0.015 A 
HETATM   12  C15 UNL     1      22.524   2.518  51.938  1.00  0.00    -0.008 A 
ENDROOT
BRANCH   9  13
HETATM   13  N3  UNL     1      26.005   0.310  52.351  1.00  0.00    -0.324 N 
HETATM   14  C8  UNL     1      26.937   0.466  53.387  1.00  0.00     0.279 C 
HETATM   15  O1  UNL     1      26.742   1.353  54.257  1.00  0.00    -0.265 OA
HETATM   16  H2  UNL     1      26.226  -0.441  51.664  1.00  0.00     0.169 HD
BRANCH  14  17
HETATM   17  C9  UNL     1      28.128  -0.385  53.470  1.00  0.00     0.142 A 
HETATM   18  C10 UNL     1      29.405   0.066  53.818  1.00  0.00     0.045 A 
HETATM   19  C11 UNL     1      30.192  -1.081  53.763  1.00  0.00     0.027 A 
HETATM   20  C12 UNL     1      29.382  -2.136  53.398  1.00  0.00     0.143 A 
HETATM   21  O2  UNL     1      28.172  -1.659  53.240  1.00  0.00    -0.317 OA
ENDBRANCH  14  17
ENDBRANCH   9  13
TORSDOF 2
ENDMDL
MODEL 7
REMARK VINA RESULT:      -7.5      2.981      7.457
REMARK  2 active torsions:
REMARK  status: ('A' for Active; 'I' for Inactive)
REMARK    1  A    between atoms: C7_9  and  N3_10 
REMARK       I    between atoms: N3_10  and  C8_11 
REMARK    2  A    between atoms: C8_11  and  C9_13 
ROOT
HETATM    1  N1  UNL     1      28.410  -0.084  54.959  1.00  0.00    -0.191 NA
HETATM    2  C1  UNL     1      27.668   0.412  54.224  1.00  0.00     0.102 C 
HETATM    3  C2  UNL     1      26.779   1.032  53.320  1.00  0.00     0.072 A 
HETATM    4  C3  UNL     1      26.933   2.113  52.417  1.00  0.00     0.135 A 
HETATM    5  N2  UNL     1      25.943   2.581  51.609  1.00  0.00    -0.280 NA
HETATM    6  C4  UNL     1      24.647   2.068  51.557  1.00  0.00     0.130 A 
HETATM    7  C5  UNL     1      24.763   1.053  52.507  1.00  0.00    -0.015 A 
HETATM    8  C6  UNL     1      23.465   1.109  51.946  1.00  0.00     0.084 A 
HETATM    9  C7  UNL     1      22.930   0.004  52.720  1.00  0.00     0.030 A 
HETATM   10  C13 UNL     1      23.552  -0.822  53.702  1.00  0.00     0.027 A 
HETATM   11  C14 UNL     1      24.905  -0.603  54.039  1.00  0.00     0.015 A 
HETATM   12  C15 UNL     1      25.561   0.407  53.398  1.00  0.00    -0.008 A 
ENDROOT
BRANCH   9  13
HETATM   13  N3  UNL     1      21.591  -0.236  52.404  1.00  0.00    -0.324 N 
HETATM   14  C8  UNL     1      20.512  -0.048  53.280  1.00  0.00     0.279 C 
HETATM   15  O1  UNL     1      20.736   0.368  54.445  1.00  0.00    -0.265 OA
HETATM   16  H2  UNL     1      21.338  -0.582  51.455  1.00  0.00     0.169 HD
BRANCH  14  17
HETATM   17  C9  UNL     1      19.136  -0.326  52.858  1.00  0.00     0.142 A 
HETATM   18  C10 UNL     1      18.541   0.182  51.699  1.00  0.00     0.045 A 
HETATM   19  C11 UNL     1      17.254  -0.348  51.723  1.00  0.00     0.027 A 
HETATM   20  C12 UNL     1      17.135  -1.125  52.857  1.00  0.00     0.143 A 
HETATM   21  O2  UNL     1      18.282  -1.071  53.486  1.00  0.00    -0.317 OA
ENDBRANCH  14  17
ENDBRANCH   9  13
TORSDOF 2
ENDMDL
MODEL 8
REMARK VINA RESULT:      -7.4      1.783      2.095
REMARK  2 active torsions:
REMARK  status: ('A' for Active; 'I' for Inactive)
REMARK    1  A    between atoms: C7_9  and  N3_10 
REMARK       I    between atoms: N3_10  and  C8_11 
REMARK    2  A    between atoms: C8_11  and  C9_13 
ROOT
HETATM    1  N1  UNL     1      18.481   1.553  49.733  1.00  0.00    -0.191 NA
HETATM    2  C1  UNL     1      19.046   1.053  50.609  1.00  0.00     0.102 C 
HETATM    3  C2  UNL     1      19.715   0.435  51.688  1.00  0.00     0.072 A 
HETATM    4  C3  UNL     1      19.260  -0.377  52.757  1.00  0.00     0.135 A 
HETATM    5  N2  UNL     1      20.068  -0.893  53.722  1.00  0.00    -0.280 NA
HETATM    6  C4  UNL     1      21.447  -0.699  53.795  1.00  0.00     0.130 A 
HETATM    7  C5  UNL     1      21.626   0.103  52.667  1.00  0.00    -0.015 A 
HETATM    8  C6  UNL     1      22.846  -0.143  53.343  1.00  0.00     0.084 A 
HETATM    9  C7  UNL     1      23.670   0.627  52.429  1.00  0.00     0.030 A 
HETATM   10  C13 UNL     1      23.314   1.362  51.261  1.00  0.00     0.027 A 
HETATM   11  C14 UNL     1      21.964   1.404  50.849  1.00  0.00     0.015 A 
HETATM   12  C15 UNL     1      21.052   0.727  51.605  1.00  0.00    -0.008 A 
ENDROOT
BRANCH   9  13
HETATM   13  N3  UNL     1      25.013   0.600  52.812  1.00  0.00    -0.324 N 
HETATM   14  C8  UNL     1      25.684   1.646  53.461  1.00  0.00     0.279 C 
HETATM   15  O1  UNL     1      25.055   2.701  53.733  1.00  0.00    -0.265 OA
HETATM   16  H2  UNL     1      25.590  -0.244  52.616  1.00  0.00     0.169 HD
BRANCH  14  17
HETATM   17  C9  UNL     1      27.099   1.528  53.827  1.00  0.00     0.142 A 
HETATM   18  C10 UNL     1      27.736   0.329  54.163  1.00  0.00     0.045 A 
HETATM   19  C11 UNL     1      29.049   0.710  54.427  1.00  0.00     0.027 A 
HETATM   20  C12 UNL     1      29.141   2.075  54.245  1.00  0.00     0.143 A 
HETATM   21  O2  UNL     1      27.953   2.500  53.891  1.00  0.00    -0.317 OA
ENDBRANCH  14  17
ENDBRANCH   9  13
TORSDOF 2
ENDMDL
MODEL 9
REMARK VINA RESULT:      -7.1      1.984      2.672
REMARK  2 active torsions:
REMARK  status: ('A' for Active; 'I' for Inactive)
REMARK    1  A    between atoms: C7_9  and  N3_10 
REMARK       I    between atoms: N3_10  and  C8_11 
REMARK    2  A    between atoms: C8_11  and  C9_13 
ROOT
HETATM    1  N1  UNL     1      21.545   6.784  50.500  1.00  0.00    -0.191 NA
HETATM    2  C1  UNL     1      21.625   5.732  50.972  1.00  0.00     0.102 C 
HETATM    3  C2  UNL     1      21.700   4.448  51.554  1.00  0.00     0.072 A 
HETATM    4  C3  UNL     1      20.726   3.613  52.157  1.00  0.00     0.135 A 
HETATM    5  N2  UNL     1      20.990   2.381  52.672  1.00  0.00    -0.280 NA
HETATM    6  C4  UNL     1      22.243   1.771  52.679  1.00  0.00     0.130 A 
HETATM    7  C5  UNL     1      22.988   2.769  52.050  1.00  0.00    -0.015 A 
HETATM    8  C6  UNL     1      23.784   1.650  52.394  1.00  0.00     0.084 A 
HETATM    9  C7  UNL     1      25.023   2.192  51.867  1.00  0.00     0.030 A 
HETATM   10  C13 UNL     1      25.288   3.439  51.228  1.00  0.00     0.027 A 
HETATM   11  C14 UNL     1      24.234   4.358  51.033  1.00  0.00     0.015 A 
HETATM   12  C15 UNL     1      22.993   4.001  51.475  1.00  0.00    -0.008 A 
ENDROOT
BRANCH   9  13
HETATM   13  N3  UNL     1      26.083   1.300  52.046  1.00  0.00    -0.324 N 
HETATM   14  C8  UNL     1      26.895   1.235  53.187  1.00  0.00     0.279 C 
HETATM   15  O1  UNL     1      26.676   2.028  54.140  1.00  0.00    -0.265 OA
HETATM   16  H2  UNL     1      26.317   0.618  51.296  1.00  0.00     0.169 HD
BRANCH  14  17
HETATM   17  C9  UNL     1      27.988   0.263  53.287  1.00  0.00     0.142 A 
HETATM   18  C10 UNL     1      29.314   0.585  53.592  1.00  0.00     0.045 A 
HETATM   19  C11 UNL     1      29.970  -0.643  53.574  1.00  0.00     0.027 A 
HETATM   20  C12 UNL     1      29.041  -1.617  53.269  1.00  0.00     0.143 A 
HETATM   21  O2  UNL     1      27.887  -1.017  53.111  1.00  0.00    -0.317 OA
ENDBRANCH  14  17
ENDBRANCH   9  13
TORSDOF 2
ENDMDL
