MODEL 1
REMARK VINA RESULT:      -6.9      0.000      0.000
REMARK  8 active torsions:
REMARK  status: ('A' for Active; 'I' for Inactive)
REMARK    1  A    between atoms: C7_7  and  C8_8 
REMARK    2  A    between atoms: C8_8  and  O1_9 
REMARK    3  A    between atoms: O1_9  and  C9_10 
REMARK    4  A    between atoms: C9_10  and  N1_11 
REMARK    5  A    between atoms: C10_12  and  C11_13 
REMARK    6  A    between atoms: C12_14  and  N2_15 
REMARK    7  A    between atoms: N2_15  and  C13_16 
REMARK    8  A    between atoms: C13_16  and  C14_17 
ROOT
HETATM    1  N1  UNL     1      20.921   3.120  51.883  1.00  0.00    -0.276 NA
HETATM    2  C10 UNL     1      22.055   3.704  51.753  1.00  0.00     0.114 C 
ENDROOT
BRANCH   2   3
HETATM    3  C11 UNL     1      23.359   3.509  52.364  1.00  0.00     0.035 C 
HETATM    4  C12 UNL     1      24.371   3.352  51.532  1.00  0.00     0.084 C 
BRANCH   4   5
HETATM    5  N2  UNL     1      25.715   3.149  51.937  1.00  0.00    -0.394 N 
HETATM    6  H15 UNL     1      26.229   3.844  52.560  1.00  0.00     0.159 HD
BRANCH   5   7
HETATM    7  C13 UNL     1      26.496   1.976  51.532  1.00  0.00     0.159 C 
BRANCH   7   8
HETATM    8  C14 UNL     1      27.376   1.499  52.601  1.00  0.00    -0.023 A 
HETATM    9  C15 UNL     1      27.556   0.131  52.636  1.00  0.00     0.012 A 
HETATM   10  C16 UNL     1      28.355  -0.478  53.576  1.00  0.00     0.020 A 
HETATM   11  C17 UNL     1      28.998   0.301  54.518  1.00  0.00     0.116 A 
HETATM   12  N3  UNL     1      28.807   1.632  54.464  1.00  0.00    -0.273 NA
HETATM   13  C18 UNL     1      28.024   2.240  53.543  1.00  0.00     0.124 A 
ENDBRANCH   7   8
ENDBRANCH   5   7
ENDBRANCH   4   5
ENDBRANCH   2   3
BRANCH   1  14
HETATM   14  C9  UNL     1      20.813   2.018  52.812  1.00  0.00     0.316 C 
BRANCH  14  15
HETATM   15  O1  UNL     1      20.678   0.846  52.138  1.00  0.00    -0.366 OA
BRANCH  15  16
HETATM   16  C8  UNL     1      21.750   0.059  51.934  1.00  0.00     0.209 C 
BRANCH  16  17
HETATM   17  C7  UNL     1      22.383  -0.463  53.136  1.00  0.00    -0.029 A 
HETATM   18  C2  UNL     1      21.990  -1.148  54.236  1.00  0.00    -0.054 A 
HETATM   19  C1  UNL     1      20.585  -1.584  54.239  1.00  0.00     0.049 C 
HETATM   20  C3  UNL     1      22.780  -1.496  55.299  1.00  0.00     0.007 A 
HETATM   21  C4  UNL     1      24.115  -1.148  55.313  1.00  0.00     0.001 A 
HETATM   22  C5  UNL     1      24.599  -0.447  54.228  1.00  0.00     0.001 A 
HETATM   23  C6  UNL     1      23.741  -0.127  53.183  1.00  0.00     0.010 A 
ENDBRANCH  16  17
ENDBRANCH  15  16
ENDBRANCH  14  15
ENDBRANCH   1  14
TORSDOF 8
ENDMDL
MODEL 2
REMARK VINA RESULT:      -6.9      2.175      5.559
REMARK  8 active torsions:
REMARK  status: ('A' for Active; 'I' for Inactive)
REMARK    1  A    between atoms: C7_7  and  C8_8 
REMARK    2  A    between atoms: C8_8  and  O1_9 
REMARK    3  A    between atoms: O1_9  and  C9_10 
REMARK    4  A    between atoms: C9_10  and  N1_11 
REMARK    5  A    between atoms: C10_12  and  C11_13 
REMARK    6  A    between atoms: C12_14  and  N2_15 
REMARK    7  A    between atoms: N2_15  and  C13_16 
REMARK    8  A    between atoms: C13_16  and  C14_17 
ROOT
HETATM    1  N1  UNL     1      25.317   4.264  50.357  1.00  0.00    -0.276 NA
HETATM    2  C10 UNL     1      24.084   4.071  50.648  1.00  0.00     0.114 C 
ENDROOT
BRANCH   2   3
HETATM    3  C11 UNL     1      23.244   2.886  50.718  1.00  0.00     0.035 C 
HETATM    4  C12 UNL     1      22.204   2.962  51.527  1.00  0.00     0.084 C 
BRANCH   4   5
HETATM    5  N2  UNL     1      21.273   1.912  51.730  1.00  0.00    -0.394 N 
HETATM    6  H15 UNL     1      20.264   2.098  52.020  1.00  0.00     0.159 HD
BRANCH   5   7
HETATM    7  C13 UNL     1      21.623   0.498  51.560  1.00  0.00     0.159 C 
BRANCH   7   8
HETATM    8  C14 UNL     1      21.941  -0.153  52.832  1.00  0.00    -0.023 A 
HETATM    9  C15 UNL     1      23.283  -0.158  53.160  1.00  0.00     0.012 A 
HETATM   10  C16 UNL     1      23.750  -0.728  54.322  1.00  0.00     0.020 A 
HETATM   11  C17 UNL     1      22.850  -1.315  55.191  1.00  0.00     0.116 A 
HETATM   12  N3  UNL     1      21.549  -1.297  54.850  1.00  0.00    -0.273 NA
HETATM   13  C18 UNL     1      21.080  -0.740  53.710  1.00  0.00     0.124 A 
ENDBRANCH   7   8
ENDBRANCH   5   7
ENDBRANCH   4   5
ENDBRANCH   2   3
BRANCH   1  14
HETATM   14  C9  UNL     1      26.134   3.123  50.011  1.00  0.00     0.316 C 
BRANCH  14  15
HETATM   15  O1  UNL     1      26.962   2.808  51.041  1.00  0.00    -0.366 OA
BRANCH  15  16
HETATM   16  C8  UNL     1      26.481   2.166  52.121  1.00  0.00     0.209 C 
BRANCH  16  17
HETATM   17  C7  UNL     1      27.348   1.138  52.677  1.00  0.00    -0.029 A 
HETATM   18  C2  UNL     1      28.499   1.101  53.389  1.00  0.00    -0.054 A 
HETATM   19  C1  UNL     1      29.016   2.409  53.819  1.00  0.00     0.049 C 
HETATM   20  C3  UNL     1      29.182  -0.024  53.768  1.00  0.00     0.007 A 
HETATM   21  C4  UNL     1      28.704  -1.272  53.425  1.00  0.00     0.001 A 
HETATM   22  C5  UNL     1      27.533  -1.326  52.699  1.00  0.00     0.001 A 
HETATM   23  C6  UNL     1      26.892  -0.144  52.347  1.00  0.00     0.010 A 
ENDBRANCH  16  17
ENDBRANCH  15  16
ENDBRANCH  14  15
ENDBRANCH   1  14
TORSDOF 8
ENDMDL
MODEL 3
REMARK VINA RESULT:      -6.9      1.618      2.445
REMARK  8 active torsions:
REMARK  status: ('A' for Active; 'I' for Inactive)
REMARK    1  A    between atoms: C7_7  and  C8_8 
REMARK    2  A    between atoms: C8_8  and  O1_9 
REMARK    3  A    between atoms: O1_9  and  C9_10 
REMARK    4  A    between atoms: C9_10  and  N1_11 
REMARK    5  A    between atoms: C10_12  and  C11_13 
REMARK    6  A    between atoms: C12_14  and  N2_15 
REMARK    7  A    between atoms: N2_15  and  C13_16 
REMARK    8  A    between atoms: C13_16  and  C14_17 
ROOT
HETATM    1  N1  UNL     1      21.689   4.796  52.202  1.00  0.00    -0.276 NA
HETATM    2  C10 UNL     1      22.954   4.654  52.355  1.00  0.00     0.114 C 
ENDROOT
BRANCH   2   3
HETATM    3  C11 UNL     1      23.880   3.564  52.093  1.00  0.00     0.035 C 
HETATM    4  C12 UNL     1      24.079   2.721  53.088  1.00  0.00     0.084 C 
BRANCH   4   5
HETATM    5  N2  UNL     1      24.944   1.599  53.024  1.00  0.00    -0.394 N 
HETATM    6  H15 UNL     1      24.733   0.756  52.408  1.00  0.00     0.159 HD
BRANCH   5   7
HETATM    7  C13 UNL     1      26.188   1.513  53.797  1.00  0.00     0.159 C 
BRANCH   7   8
HETATM    8  C14 UNL     1      26.905   0.260  53.557  1.00  0.00    -0.023 A 
HETATM    9  C15 UNL     1      26.234  -0.648  52.761  1.00  0.00     0.012 A 
HETATM   10  C16 UNL     1      26.770  -1.873  52.437  1.00  0.00     0.020 A 
HETATM   11  C17 UNL     1      28.019  -2.211  52.923  1.00  0.00     0.116 A 
HETATM   12  N3  UNL     1      28.652  -1.309  53.696  1.00  0.00    -0.273 NA
HETATM   13  C18 UNL     1      28.134  -0.103  54.020  1.00  0.00     0.124 A 
ENDBRANCH   7   8
ENDBRANCH   5   7
ENDBRANCH   4   5
ENDBRANCH   2   3
BRANCH   1  14
HETATM   14  C9  UNL     1      20.930   3.693  51.658  1.00  0.00     0.316 C 
BRANCH  14  15
HETATM   15  O1  UNL     1      20.145   3.142  52.620  1.00  0.00    -0.366 OA
BRANCH  15  16
HETATM   16  C8  UNL     1      19.736   1.865  52.507  1.00  0.00     0.209 C 
BRANCH  16  17
HETATM   17  C7  UNL     1      20.719   0.858  52.876  1.00  0.00    -0.029 A 
HETATM   18  C2  UNL     1      21.632   0.092  52.232  1.00  0.00    -0.054 A 
HETATM   19  C1  UNL     1      21.779   0.360  50.794  1.00  0.00     0.049 C 
HETATM   20  C3  UNL     1      22.438  -0.858  52.802  1.00  0.00     0.007 A 
HETATM   21  C4  UNL     1      22.365  -1.106  54.157  1.00  0.00     0.001 A 
HETATM   22  C5  UNL     1      21.460  -0.368  54.890  1.00  0.00     0.001 A 
HETATM   23  C6  UNL     1      20.672   0.580  54.247  1.00  0.00     0.010 A 
ENDBRANCH  16  17
ENDBRANCH  15  16
ENDBRANCH  14  15
ENDBRANCH   1  14
TORSDOF 8
ENDMDL
MODEL 4
REMARK VINA RESULT:      -6.8      3.251      6.029
REMARK  8 active torsions:
REMARK  status: ('A' for Active; 'I' for Inactive)
REMARK    1  A    between atoms: C7_7  and  C8_8 
REMARK    2  A    between atoms: C8_8  and  O1_9 
REMARK    3  A    between atoms: O1_9  and  C9_10 
REMARK    4  A    between atoms: C9_10  and  N1_11 
REMARK    5  A    between atoms: C10_12  and  C11_13 
REMARK    6  A    between atoms: C12_14  and  N2_15 
REMARK    7  A    between atoms: N2_15  and  C13_16 
REMARK    8  A    between atoms: C13_16  and  C14_17 
ROOT
HETATM    1  N1  UNL     1      22.720   5.330  51.999  1.00  0.00    -0.276 NA
HETATM    2  C10 UNL     1      22.677   4.072  52.244  1.00  0.00     0.114 C 
ENDROOT
BRANCH   2   3
HETATM    3  C11 UNL     1      23.627   2.985  52.073  1.00  0.00     0.035 C 
HETATM    4  C12 UNL     1      23.494   1.965  52.900  1.00  0.00     0.084 C 
BRANCH   4   5
HETATM    5  N2  UNL     1      24.323   0.815  52.890  1.00  0.00    -0.394 N 
HETATM    6  H15 UNL     1      24.073  -0.068  53.432  1.00  0.00     0.159 HD
BRANCH   5   7
HETATM    7  C13 UNL     1      25.581   0.752  52.139  1.00  0.00     0.159 C 
BRANCH   7   8
HETATM    8  C14 UNL     1      26.752   0.724  53.018  1.00  0.00    -0.023 A 
HETATM    9  C15 UNL     1      27.573   1.831  52.924  1.00  0.00     0.012 A 
HETATM   10  C16 UNL     1      28.713   1.962  53.683  1.00  0.00     0.020 A 
HETATM   11  C17 UNL     1      29.052   0.955  54.567  1.00  0.00     0.116 A 
HETATM   12  N3  UNL     1      28.237  -0.113  54.640  1.00  0.00    -0.273 NA
HETATM   13  C18 UNL     1      27.114  -0.251  53.898  1.00  0.00     0.124 A 
ENDBRANCH   7   8
ENDBRANCH   5   7
ENDBRANCH   4   5
ENDBRANCH   2   3
BRANCH   1  14
HETATM   14  C9  UNL     1      23.928   5.884  51.431  1.00  0.00     0.316 C 
BRANCH  14  15
HETATM   15  O1  UNL     1      23.742   6.165  50.115  1.00  0.00    -0.366 OA
BRANCH  15  16
HETATM   16  C8  UNL     1      24.202   5.321  49.174  1.00  0.00     0.209 C 
BRANCH  16  17
HETATM   17  C7  UNL     1      25.619   5.440  48.864  1.00  0.00    -0.029 A 
HETATM   18  C2  UNL     1      26.723   4.669  49.000  1.00  0.00    -0.054 A 
HETATM   19  C1  UNL     1      26.486   3.310  49.510  1.00  0.00     0.049 C 
HETATM   20  C3  UNL     1      28.005   5.025  48.672  1.00  0.00     0.007 A 
HETATM   21  C4  UNL     1      28.264   6.274  48.146  1.00  0.00     0.001 A 
HETATM   22  C5  UNL     1      27.192   7.124  47.973  1.00  0.00     0.001 A 
HETATM   23  C6  UNL     1      25.918   6.698  48.327  1.00  0.00     0.010 A 
ENDBRANCH  16  17
ENDBRANCH  15  16
ENDBRANCH  14  15
ENDBRANCH   1  14
TORSDOF 8
ENDMDL
MODEL 5
REMARK VINA RESULT:      -6.7      1.670      2.245
REMARK  8 active torsions:
REMARK  status: ('A' for Active; 'I' for Inactive)
REMARK    1  A    between atoms: C7_7  and  C8_8 
REMARK    2  A    between atoms: C8_8  and  O1_9 
REMARK    3  A    between atoms: O1_9  and  C9_10 
REMARK    4  A    between atoms: C9_10  and  N1_11 
REMARK    5  A    between atoms: C10_12  and  C11_13 
REMARK    6  A    between atoms: C12_14  and  N2_15 
REMARK    7  A    between atoms: N2_15  and  C13_16 
REMARK    8  A    between atoms: C13_16  and  C14_17 
ROOT
HETATM    1  N1  UNL     1      22.731   4.289  51.452  1.00  0.00    -0.276 NA
HETATM    2  C10 UNL     1      24.003   4.135  51.474  1.00  0.00     0.114 C 
ENDROOT
BRANCH   2   3
HETATM    3  C11 UNL     1      24.881   3.122  52.037  1.00  0.00     0.035 C 
HETATM    4  C12 UNL     1      25.563   2.400  51.168  1.00  0.00     0.084 C 
BRANCH   4   5
HETATM    5  N2  UNL     1      26.467   1.366  51.524  1.00  0.00    -0.394 N 
HETATM    6  H15 UNL     1      27.035   0.835  50.795  1.00  0.00     0.159 HD
BRANCH   5   7
HETATM    7  C13 UNL     1      26.689   0.951  52.913  1.00  0.00     0.159 C 
BRANCH   7   8
HETATM    8  C14 UNL     1      27.421  -0.313  53.004  1.00  0.00    -0.023 A 
HETATM    9  C15 UNL     1      28.734  -0.193  53.416  1.00  0.00     0.012 A 
HETATM   10  C16 UNL     1      29.559  -1.285  53.556  1.00  0.00     0.020 A 
HETATM   11  C17 UNL     1      29.063  -2.544  53.274  1.00  0.00     0.116 A 
HETATM   12  N3  UNL     1      27.781  -2.635  52.874  1.00  0.00    -0.273 NA
HETATM   13  C18 UNL     1      26.962  -1.567  52.734  1.00  0.00     0.124 A 
ENDBRANCH   7   8
ENDBRANCH   5   7
ENDBRANCH   4   5
ENDBRANCH   2   3
BRANCH   1  14
HETATM   14  C9  UNL     1      21.902   3.297  52.098  1.00  0.00     0.316 C 
BRANCH  14  15
HETATM   15  O1  UNL     1      21.410   2.424  51.180  1.00  0.00    -0.366 OA
BRANCH  15  16
HETATM   16  C8  UNL     1      21.932   1.189  51.078  1.00  0.00     0.209 C 
BRANCH  16  17
HETATM   17  C7  UNL     1      21.792   0.350  52.259  1.00  0.00    -0.029 A 
HETATM   18  C2  UNL     1      20.773  -0.217  52.948  1.00  0.00    -0.054 A 
HETATM   19  C1  UNL     1      19.439  -0.050  52.352  1.00  0.00     0.049 C 
HETATM   20  C3  UNL     1      20.883  -0.948  54.101  1.00  0.00     0.007 A 
HETATM   21  C4  UNL     1      22.122  -1.169  54.666  1.00  0.00     0.001 A 
HETATM   22  C5  UNL     1      23.216  -0.626  54.027  1.00  0.00     0.001 A 
HETATM   23  C6  UNL     1      23.033   0.106  52.860  1.00  0.00     0.010 A 
ENDBRANCH  16  17
ENDBRANCH  15  16
ENDBRANCH  14  15
ENDBRANCH   1  14
TORSDOF 8
ENDMDL
MODEL 6
REMARK VINA RESULT:      -6.7      1.193      1.568
REMARK  8 active torsions:
REMARK  status: ('A' for Active; 'I' for Inactive)
REMARK    1  A    between atoms: C7_7  and  C8_8 
REMARK    2  A    between atoms: C8_8  and  O1_9 
REMARK    3  A    between atoms: O1_9  and  C9_10 
REMARK    4  A    between atoms: C9_10  and  N1_11 
REMARK    5  A    between atoms: C10_12  and  C11_13 
REMARK    6  A    between atoms: C12_14  and  N2_15 
REMARK    7  A    between atoms: N2_15  and  C13_16 
REMARK    8  A    between atoms: C13_16  and  C14_17 
ROOT
HETATM    1  N1  UNL     1      21.353   4.609  51.438  1.00  0.00    -0.276 NA
HETATM    2  C10 UNL     1      22.574   4.850  51.746  1.00  0.00     0.114 C 
ENDROOT
BRANCH   2   3
HETATM    3  C11 UNL     1      23.570   4.135  52.528  1.00  0.00     0.035 C 
HETATM    4  C12 UNL     1      24.528   3.542  51.841  1.00  0.00     0.084 C 
BRANCH   4   5
HETATM    5  N2  UNL     1      25.586   2.798  52.423  1.00  0.00    -0.394 N 
HETATM    6  H15 UNL     1      25.954   3.009  53.401  1.00  0.00     0.159 HD
BRANCH   5   7
HETATM    7  C13 UNL     1      26.250   1.689  51.730  1.00  0.00     0.159 C 
BRANCH   7   8
HETATM    8  C14 UNL     1      27.151   0.944  52.612  1.00  0.00    -0.023 A 
HETATM    9  C15 UNL     1      28.113   1.711  53.238  1.00  0.00     0.012 A 
HETATM   10  C16 UNL     1      29.037   1.165  54.100  1.00  0.00     0.020 A 
HETATM   11  C17 UNL     1      29.005  -0.194  54.348  1.00  0.00     0.116 A 
HETATM   12  N3  UNL     1      28.057  -0.920  53.725  1.00  0.00    -0.273 NA
HETATM   13  C18 UNL     1      27.145  -0.393  52.876  1.00  0.00     0.124 A 
ENDBRANCH   7   8
ENDBRANCH   5   7
ENDBRANCH   4   5
ENDBRANCH   2   3
BRANCH   1  14
HETATM   14  C9  UNL     1      20.744   3.391  51.923  1.00  0.00     0.316 C 
BRANCH  14  15
HETATM   15  O1  UNL     1      21.202   2.324  51.219  1.00  0.00    -0.366 OA
BRANCH  15  16
HETATM   16  C8  UNL     1      20.648   1.111  51.398  1.00  0.00     0.209 C 
BRANCH  16  17
HETATM   17  C7  UNL     1      21.212   0.317  52.479  1.00  0.00    -0.029 A 
HETATM   18  C2  UNL     1      20.740  -0.498  53.451  1.00  0.00    -0.054 A 
HETATM   19  C1  UNL     1      19.293  -0.759  53.408  1.00  0.00     0.049 C 
HETATM   20  C3  UNL     1      21.482  -1.116  54.422  1.00  0.00     0.007 A 
HETATM   21  C4  UNL     1      22.850  -0.935  54.469  1.00  0.00     0.001 A 
HETATM   22  C5  UNL     1      23.414  -0.119  53.512  1.00  0.00     0.001 A 
HETATM   23  C6  UNL     1      22.601   0.477  52.556  1.00  0.00     0.010 A 
ENDBRANCH  16  17
ENDBRANCH  15  16
ENDBRANCH  14  15
ENDBRANCH   1  14
TORSDOF 8
ENDMDL
MODEL 7
REMARK VINA RESULT:      -6.3      2.559      6.012
REMARK  8 active torsions:
REMARK  status: ('A' for Active; 'I' for Inactive)
REMARK    1  A    between atoms: C7_7  and  C8_8 
REMARK    2  A    between atoms: C8_8  and  O1_9 
REMARK    3  A    between atoms: O1_9  and  C9_10 
REMARK    4  A    between atoms: C9_10  and  N1_11 
REMARK    5  A    between atoms: C10_12  and  C11_13 
REMARK    6  A    between atoms: C12_14  and  N2_15 
REMARK    7  A    between atoms: N2_15  and  C13_16 
REMARK    8  A    between atoms: C13_16  and  C14_17 
ROOT
HETATM    1  N1  UNL     1      26.869   3.312  50.277  1.00  0.00    -0.276 NA
HETATM    2  C10 UNL     1      25.788   3.817  49.807  1.00  0.00     0.114 C 
ENDROOT
BRANCH   2   3
HETATM    3  C11 UNL     1      24.377   3.540  50.020  1.00  0.00     0.035 C 
HETATM    4  C12 UNL     1      23.671   3.270  48.938  1.00  0.00     0.084 C 
BRANCH   4   5
HETATM    5  N2  UNL     1      22.283   2.977  48.942  1.00  0.00    -0.394 N 
HETATM    6  H15 UNL     1      21.547   3.718  48.731  1.00  0.00     0.159 HD
BRANCH   5   7
HETATM    7  C13 UNL     1      21.757   1.640  49.237  1.00  0.00     0.159 C 
BRANCH   7   8
HETATM    8  C14 UNL     1      21.331   1.506  50.631  1.00  0.00    -0.023 A 
HETATM    9  C15 UNL     1      21.984   0.519  51.343  1.00  0.00     0.012 A 
HETATM   10  C16 UNL     1      21.704   0.264  52.666  1.00  0.00     0.020 A 
HETATM   11  C17 UNL     1      20.736   1.016  53.305  1.00  0.00     0.116 A 
HETATM   12  N3  UNL     1      20.114   1.972  52.590  1.00  0.00    -0.273 NA
HETATM   13  C18 UNL     1      20.383   2.230  51.290  1.00  0.00     0.124 A 
ENDBRANCH   7   8
ENDBRANCH   5   7
ENDBRANCH   4   5
ENDBRANCH   2   3
BRANCH   1  14
HETATM   14  C9  UNL     1      26.769   2.229  51.230  1.00  0.00     0.316 C 
BRANCH  14  15
HETATM   15  O1  UNL     1      27.567   2.472  52.302  1.00  0.00    -0.366 OA
BRANCH  15  16
HETATM   16  C8  UNL     1      27.450   1.722  53.412  1.00  0.00     0.209 C 
BRANCH  16  17
HETATM   17  C7  UNL     1      27.915   0.348  53.292  1.00  0.00    -0.029 A 
HETATM   18  C2  UNL     1      27.360  -0.859  53.032  1.00  0.00    -0.054 A 
HETATM   19  C1  UNL     1      25.930  -0.835  52.688  1.00  0.00     0.049 C 
HETATM   20  C3  UNL     1      28.011  -2.065  53.021  1.00  0.00     0.007 A 
HETATM   21  C4  UNL     1      29.363  -2.125  53.291  1.00  0.00     0.001 A 
HETATM   22  C5  UNL     1      30.008  -0.938  53.567  1.00  0.00     0.001 A 
HETATM   23  C6  UNL     1      29.286   0.250  53.561  1.00  0.00     0.010 A 
ENDBRANCH  16  17
ENDBRANCH  15  16
ENDBRANCH  14  15
ENDBRANCH   1  14
TORSDOF 8
ENDMDL
MODEL 8
REMARK VINA RESULT:      -6.2      3.723      6.399
REMARK  8 active torsions:
REMARK  status: ('A' for Active; 'I' for Inactive)
REMARK    1  A    between atoms: C7_7  and  C8_8 
REMARK    2  A    between atoms: C8_8  and  O1_9 
REMARK    3  A    between atoms: O1_9  and  C9_10 
REMARK    4  A    between atoms: C9_10  and  N1_11 
REMARK    5  A    between atoms: C10_12  and  C11_13 
REMARK    6  A    between atoms: C12_14  and  N2_15 
REMARK    7  A    between atoms: N2_15  and  C13_16 
REMARK    8  A    between atoms: C13_16  and  C14_17 
ROOT
HETATM    1  N1  UNL     1      22.351   3.797  47.621  1.00  0.00    -0.276 NA
HETATM    2  C10 UNL     1      22.270   2.719  48.310  1.00  0.00     0.114 C 
ENDROOT
BRANCH   2   3
HETATM    3  C11 UNL     1      22.248   2.440  49.737  1.00  0.00     0.035 C 
HETATM    4  C12 UNL     1      23.425   2.356  50.328  1.00  0.00     0.084 C 
BRANCH   4   5
HETATM    5  N2  UNL     1      23.608   2.090  51.709  1.00  0.00    -0.394 N 
HETATM    6  H15 UNL     1      23.337   2.795  52.461  1.00  0.00     0.159 HD
BRANCH   5   7
HETATM    7  C13 UNL     1      24.181   0.834  52.205  1.00  0.00     0.159 C 
BRANCH   7   8
HETATM    8  C14 UNL     1      25.504   1.026  52.803  1.00  0.00    -0.023 A 
HETATM    9  C15 UNL     1      26.405   0.010  52.551  1.00  0.00     0.012 A 
HETATM   10  C16 UNL     1      27.691   0.037  53.039  1.00  0.00     0.020 A 
HETATM   11  C17 UNL     1      28.097   1.111  53.808  1.00  0.00     0.116 A 
HETATM   12  N3  UNL     1      27.200   2.087  54.040  1.00  0.00    -0.273 NA
HETATM   13  C18 UNL     1      25.934   2.071  53.565  1.00  0.00     0.124 A 
ENDBRANCH   7   8
ENDBRANCH   5   7
ENDBRANCH   4   5
ENDBRANCH   2   3
BRANCH   1  14
HETATM   14  C9  UNL     1      22.445   5.059  48.319  1.00  0.00     0.316 C 
BRANCH  14  15
HETATM   15  O1  UNL     1      23.666   5.619  48.114  1.00  0.00    -0.366 OA
BRANCH  15  16
HETATM   16  C8  UNL     1      24.533   5.736  49.136  1.00  0.00     0.209 C 
BRANCH  16  17
HETATM   17  C7  UNL     1      25.939   5.777  48.762  1.00  0.00    -0.029 A 
HETATM   18  C2  UNL     1      27.010   4.955  48.869  1.00  0.00    -0.054 A 
HETATM   19  C1  UNL     1      26.729   3.621  49.422  1.00  0.00     0.049 C 
HETATM   20  C3  UNL     1      28.291   5.239  48.477  1.00  0.00     0.007 A 
HETATM   21  C4  UNL     1      28.587   6.461  47.910  1.00  0.00     0.001 A 
HETATM   22  C5  UNL     1      27.552   7.360  47.763  1.00  0.00     0.001 A 
HETATM   23  C6  UNL     1      26.275   7.006  48.182  1.00  0.00     0.010 A 
ENDBRANCH  16  17
ENDBRANCH  15  16
ENDBRANCH  14  15
ENDBRANCH   1  14
TORSDOF 8
ENDMDL
MODEL 9
REMARK VINA RESULT:      -6.2      4.616      6.054
REMARK  8 active torsions:
REMARK  status: ('A' for Active; 'I' for Inactive)
REMARK    1  A    between atoms: C7_7  and  C8_8 
REMARK    2  A    between atoms: C8_8  and  O1_9 
REMARK    3  A    between atoms: O1_9  and  C9_10 
REMARK    4  A    between atoms: C9_10  and  N1_11 
REMARK    5  A    between atoms: C10_12  and  C11_13 
REMARK    6  A    between atoms: C12_14  and  N2_15 
REMARK    7  A    between atoms: N2_15  and  C13_16 
REMARK    8  A    between atoms: C13_16  and  C14_17 
ROOT
HETATM    1  N1  UNL     1      24.355   3.203  49.909  1.00  0.00    -0.276 NA
HETATM    2  C10 UNL     1      25.268   3.698  49.157  1.00  0.00     0.114 C 
ENDROOT
BRANCH   2   3
HETATM    3  C11 UNL     1      26.592   4.242  49.414  1.00  0.00     0.035 C 
HETATM    4  C12 UNL     1      26.854   5.411  48.860  1.00  0.00     0.084 C 
BRANCH   4   5
HETATM    5  N2  UNL     1      28.087   6.099  48.993  1.00  0.00    -0.394 N 
HETATM    6  H15 UNL     1      28.513   6.317  49.945  1.00  0.00     0.159 HD
BRANCH   5   7
HETATM    7  C13 UNL     1      28.865   6.563  47.839  1.00  0.00     0.159 C 
BRANCH   7   8
HETATM    8  C14 UNL     1      30.298   6.311  47.999  1.00  0.00    -0.023 A 
HETATM    9  C15 UNL     1      30.698   5.025  47.692  1.00  0.00     0.012 A 
HETATM   10  C16 UNL     1      32.011   4.625  47.787  1.00  0.00     0.020 A 
HETATM   11  C17 UNL     1      32.963   5.536  48.205  1.00  0.00     0.116 A 
HETATM   12  N3  UNL     1      32.548   6.783  48.498  1.00  0.00    -0.273 NA
HETATM   13  C18 UNL     1      31.260   7.185  48.407  1.00  0.00     0.124 A 
ENDBRANCH   7   8
ENDBRANCH   5   7
ENDBRANCH   4   5
ENDBRANCH   2   3
BRANCH   1  14
HETATM   14  C9  UNL     1      24.596   3.126  51.332  1.00  0.00     0.316 C 
BRANCH  14  15
HETATM   15  O1  UNL     1      25.226   1.962  51.640  1.00  0.00    -0.366 OA
BRANCH  15  16
HETATM   16  C8  UNL     1      25.513   1.670  52.921  1.00  0.00     0.209 C 
BRANCH  16  17
HETATM   17  C7  UNL     1      26.827   1.087  53.151  1.00  0.00    -0.029 A 
HETATM   18  C2  UNL     1      27.381  -0.146  53.078  1.00  0.00    -0.054 A 
HETATM   19  C1  UNL     1      26.503  -1.203  52.554  1.00  0.00     0.049 C 
HETATM   20  C3  UNL     1      28.671  -0.475  53.403  1.00  0.00     0.007 A 
HETATM   21  C4  UNL     1      29.541   0.497  53.852  1.00  0.00     0.001 A 
HETATM   22  C5  UNL     1      29.057   1.783  53.956  1.00  0.00     0.001 A 
HETATM   23  C6  UNL     1      27.737   2.047  53.609  1.00  0.00     0.010 A 
ENDBRANCH  16  17
ENDBRANCH  15  16
ENDBRANCH  14  15
ENDBRANCH   1  14
TORSDOF 8
ENDMDL
