MODEL 1
REMARK VINA RESULT:      -8.1      0.000      0.000
REMARK  2 active torsions:
REMARK  status: ('A' for Active; 'I' for Inactive)
REMARK    1  A    between atoms: O1_2  and  C2_3 
REMARK    2  A    between atoms: C3_4  and  O2_5 
ROOT
HETATM    1  C2  UNL     1      26.601   0.940  53.773  1.00  0.00     0.104 C 
HETATM    2  C3  UNL     1      25.455   0.323  53.884  1.00  0.00     0.135 C 
HETATM    3  C5  UNL     1      24.152   0.089  53.309  1.00  0.00     0.111 A 
HETATM    4  C6  UNL     1      23.157   0.893  52.905  1.00  0.00    -0.002 A 
HETATM    5  C7  UNL     1      23.294   2.385  53.015  1.00  0.00     0.159 C 
HETATM    6  N1  UNL     1      23.279   2.976  51.662  1.00  0.00    -0.385 N 
HETATM    7  C8  UNL     1      23.615   4.308  51.230  1.00  0.00     0.039 A 
HETATM    8  C9  UNL     1      22.600   5.144  51.649  1.00  0.00     0.033 A 
HETATM    9  C10 UNL     1      22.562   6.533  51.450  1.00  0.00     0.044 A 
HETATM   10  C11 UNL     1      23.633   7.081  50.779  1.00  0.00     0.117 A 
HETATM   11  F1  UNL     1      23.621   8.419  50.574  1.00  0.00    -0.206 F 
HETATM   12  C12 UNL     1      24.637   6.239  50.364  1.00  0.00     0.056 A 
HETATM   13  C13 UNL     1      24.676   4.876  50.558  1.00  0.00     0.000 A 
HETATM   14  C14 UNL     1      25.812   4.086  50.033  1.00  0.00    -0.035 A 
HETATM   15  C15 UNL     1      26.516   3.088  50.435  1.00  0.00    -0.046 A 
HETATM   16  C16 UNL     1      26.488   2.305  51.601  1.00  0.00     0.011 C 
HETATM   17  C17 UNL     1      26.990   1.833  52.701  1.00  0.00     0.040 C 
HETATM   18  C18 UNL     1      26.922   3.574  49.139  1.00  0.00     0.079 A 
HETATM   19  C19 UNL     1      22.415  -0.331  52.538  1.00  0.00     0.214 A 
HETATM   20  O3  UNL     1      23.500  -1.089  52.985  1.00  0.00    -0.344 OA
HETATM   21  H9  UNL     1      23.063   2.797  50.668  1.00  0.00     0.160 HD
ENDROOT
BRANCH   1  22
HETATM   22  O1  UNL     1      27.558   0.751  54.747  1.00  0.00    -0.353 OA
HETATM   23  C1  UNL     1      28.943   0.801  54.503  1.00  0.00     0.210 C 
ENDBRANCH   1  22
BRANCH   2  24
HETATM   24  O2  UNL     1      25.937  -0.231  55.061  1.00  0.00    -0.351 OA
HETATM   25  C4  UNL     1      25.069  -0.989  55.914  1.00  0.00     0.210 C 
ENDBRANCH   2  24
TORSDOF 2
ENDMDL
MODEL 2
REMARK VINA RESULT:      -7.5      3.952      7.020
REMARK  2 active torsions:
REMARK  status: ('A' for Active; 'I' for Inactive)
REMARK    1  A    between atoms: O1_2  and  C2_3 
REMARK    2  A    between atoms: C3_4  and  O2_5 
ROOT
HETATM    1  C2  UNL     1      22.963   5.777  50.527  1.00  0.00     0.104 C 
HETATM    2  C3  UNL     1      24.242   5.611  50.313  1.00  0.00     0.135 C 
HETATM    3  C5  UNL     1      25.300   4.682  49.993  1.00  0.00     0.111 A 
HETATM    4  C6  UNL     1      25.706   3.520  50.525  1.00  0.00    -0.002 A 
HETATM    5  C7  UNL     1      24.996   2.938  51.714  1.00  0.00     0.159 C 
HETATM    6  N1  UNL     1      24.376   1.655  51.330  1.00  0.00    -0.385 N 
HETATM    7  C8  UNL     1      23.407   0.850  52.028  1.00  0.00     0.039 A 
HETATM    8  C9  UNL     1      24.052   0.264  53.097  1.00  0.00     0.033 A 
HETATM    9  C10 UNL     1      23.448  -0.578  54.045  1.00  0.00     0.044 A 
HETATM   10  C11 UNL     1      22.104  -0.824  53.871  1.00  0.00     0.117 A 
HETATM   11  F1  UNL     1      21.496  -1.631  54.771  1.00  0.00    -0.206 F 
HETATM   12  C12 UNL     1      21.471  -0.236  52.801  1.00  0.00     0.056 A 
HETATM   13  C13 UNL     1      22.062   0.589  51.870  1.00  0.00     0.000 A 
HETATM   14  C14 UNL     1      21.263   1.133  50.750  1.00  0.00    -0.035 A 
HETATM   15  C15 UNL     1      21.187   2.250  50.117  1.00  0.00    -0.046 A 
HETATM   16  C16 UNL     1      21.871   3.470  50.245  1.00  0.00     0.011 C 
HETATM   17  C17 UNL     1      21.949   4.744  50.482  1.00  0.00     0.040 C 
HETATM   18  C18 UNL     1      20.264   1.260  49.618  1.00  0.00     0.079 A 
HETATM   19  C19 UNL     1      26.753   3.494  49.482  1.00  0.00     0.214 A 
HETATM   20  O3  UNL     1      26.261   4.709  48.998  1.00  0.00    -0.344 OA
HETATM   21  H9  UNL     1      24.354   0.911  50.613  1.00  0.00     0.160 HD
ENDROOT
BRANCH   1  22
HETATM   22  O1  UNL     1      22.495   7.038  50.826  1.00  0.00    -0.353 OA
HETATM   23  C1  UNL     1      21.211   7.499  50.479  1.00  0.00     0.210 C 
ENDBRANCH   1  22
BRANCH   2  24
HETATM   24  O2  UNL     1      24.392   6.972  50.538  1.00  0.00    -0.351 OA
HETATM   25  C4  UNL     1      25.690   7.578  50.466  1.00  0.00     0.210 C 
ENDBRANCH   2  24
TORSDOF 2
ENDMDL
MODEL 3
REMARK VINA RESULT:      -7.5      3.881      6.174
REMARK  2 active torsions:
REMARK  status: ('A' for Active; 'I' for Inactive)
REMARK    1  A    between atoms: O1_2  and  C2_3 
REMARK    2  A    between atoms: C3_4  and  O2_5 
ROOT
HETATM    1  C2  UNL     1      24.949   1.629  51.851  1.00  0.00     0.104 C 
HETATM    2  C3  UNL     1      24.807   2.866  51.452  1.00  0.00     0.135 C 
HETATM    3  C5  UNL     1      23.950   4.027  51.408  1.00  0.00     0.111 A 
HETATM    4  C6  UNL     1      22.688   4.235  51.003  1.00  0.00    -0.002 A 
HETATM    5  C7  UNL     1      21.869   3.103  50.455  1.00  0.00     0.159 C 
HETATM    6  N1  UNL     1      20.721   2.856  51.348  1.00  0.00    -0.385 N 
HETATM    7  C8  UNL     1      19.801   1.748  51.389  1.00  0.00     0.039 A 
HETATM    8  C9  UNL     1      18.973   1.859  50.290  1.00  0.00     0.033 A 
HETATM    9  C10 UNL     1      17.954   0.957  49.951  1.00  0.00     0.044 A 
HETATM   10  C11 UNL     1      17.784  -0.117  50.797  1.00  0.00     0.117 A 
HETATM   11  F1  UNL     1      16.808  -1.004  50.493  1.00  0.00    -0.206 F 
HETATM   12  C12 UNL     1      18.613  -0.217  51.890  1.00  0.00     0.056 A 
HETATM   13  C13 UNL     1      19.613   0.668  52.226  1.00  0.00     0.000 A 
HETATM   14  C14 UNL     1      20.414   0.450  53.450  1.00  0.00    -0.035 A 
HETATM   15  C15 UNL     1      21.647   0.583  53.792  1.00  0.00    -0.046 A 
HETATM   16  C16 UNL     1      22.791   1.013  53.099  1.00  0.00     0.011 C 
HETATM   17  C17 UNL     1      23.976   0.855  52.593  1.00  0.00     0.040 C 
HETATM   18  C18 UNL     1      20.817   0.099  54.868  1.00  0.00     0.079 A 
HETATM   19  C19 UNL     1      22.875   5.650  51.392  1.00  0.00     0.214 A 
HETATM   20  O3  UNL     1      24.179   5.339  51.787  1.00  0.00    -0.344 OA
HETATM   21  H9  UNL     1      20.159   3.242  52.125  1.00  0.00     0.160 HD
ENDROOT
BRANCH   1  22
HETATM   22  O1  UNL     1      26.120   0.964  51.558  1.00  0.00    -0.353 OA
HETATM   23  C1  UNL     1      26.583  -0.156  52.272  1.00  0.00     0.210 C 
ENDBRANCH   1  22
BRANCH   2  24
HETATM   24  O2  UNL     1      26.077   2.769  50.903  1.00  0.00    -0.351 OA
HETATM   25  C4  UNL     1      26.436   3.565  49.765  1.00  0.00     0.210 C 
ENDBRANCH   2  24
TORSDOF 2
ENDMDL
MODEL 4
REMARK VINA RESULT:      -7.3      2.614      3.727
REMARK  2 active torsions:
REMARK  status: ('A' for Active; 'I' for Inactive)
REMARK    1  A    between atoms: O1_2  and  C2_3 
REMARK    2  A    between atoms: C3_4  and  O2_5 
ROOT
HETATM    1  C2  UNL     1      24.567   2.125  51.447  1.00  0.00     0.104 C 
HETATM    2  C3  UNL     1      23.454   1.918  50.795  1.00  0.00     0.135 C 
HETATM    3  C5  UNL     1      22.695   2.175  49.594  1.00  0.00     0.111 A 
HETATM    4  C6  UNL     1      22.327   3.293  48.950  1.00  0.00    -0.002 A 
HETATM    5  C7  UNL     1      22.721   4.641  49.481  1.00  0.00     0.159 C 
HETATM    6  N1  UNL     1      23.614   5.304  48.511  1.00  0.00    -0.385 N 
HETATM    7  C8  UNL     1      24.436   6.478  48.660  1.00  0.00     0.039 A 
HETATM    8  C9  UNL     1      23.593   7.569  48.689  1.00  0.00     0.033 A 
HETATM    9  C10 UNL     1      24.001   8.902  48.851  1.00  0.00     0.044 A 
HETATM   10  C11 UNL     1      25.355   9.112  48.988  1.00  0.00     0.117 A 
HETATM   11  F1  UNL     1      25.775  10.389  49.146  1.00  0.00    -0.206 F 
HETATM   12  C12 UNL     1      26.187   8.018  48.955  1.00  0.00     0.056 A 
HETATM   13  C13 UNL     1      25.788   6.708  48.796  1.00  0.00     0.000 A 
HETATM   14  C14 UNL     1      26.799   5.628  48.753  1.00  0.00    -0.035 A 
HETATM   15  C15 UNL     1      26.893   4.425  49.197  1.00  0.00    -0.046 A 
HETATM   16  C16 UNL     1      26.027   3.610  49.945  1.00  0.00     0.011 C 
HETATM   17  C17 UNL     1      25.691   2.916  50.989  1.00  0.00     0.040 C 
HETATM   18  C18 UNL     1      28.063   4.845  48.463  1.00  0.00     0.079 A 
HETATM   19  C19 UNL     1      21.661   2.417  47.962  1.00  0.00     0.214 A 
HETATM   20  O3  UNL     1      22.088   1.310  48.700  1.00  0.00    -0.344 OA
HETATM   21  H9  UNL     1      23.965   5.284  47.539  1.00  0.00     0.160 HD
ENDROOT
BRANCH   1  22
HETATM   22  O1  UNL     1      24.727   1.554  52.691  1.00  0.00    -0.353 OA
HETATM   23  C1  UNL     1      25.833   1.797  53.527  1.00  0.00     0.210 C 
ENDBRANCH   1  22
BRANCH   2  24
HETATM   24  O2  UNL     1      23.039   1.148  51.871  1.00  0.00    -0.351 OA
HETATM   25  C4  UNL     1      21.652   0.821  52.035  1.00  0.00     0.210 C 
ENDBRANCH   2  24
TORSDOF 2
ENDMDL
MODEL 5
REMARK VINA RESULT:      -7.2      4.189      6.660
REMARK  2 active torsions:
REMARK  status: ('A' for Active; 'I' for Inactive)
REMARK    1  A    between atoms: O1_2  and  C2_3 
REMARK    2  A    between atoms: C3_4  and  O2_5 
ROOT
HETATM    1  C2  UNL     1      21.807   3.011  48.174  1.00  0.00     0.104 C 
HETATM    2  C3  UNL     1      20.907   3.132  49.114  1.00  0.00     0.135 C 
HETATM    3  C5  UNL     1      20.654   3.341  50.520  1.00  0.00     0.111 A 
HETATM    4  C6  UNL     1      21.078   2.736  51.640  1.00  0.00    -0.002 A 
HETATM    5  C7  UNL     1      22.026   1.574  51.563  1.00  0.00     0.159 C 
HETATM    6  N1  UNL     1      23.302   1.944  52.206  1.00  0.00    -0.385 N 
HETATM    7  C8  UNL     1      24.580   1.279  52.179  1.00  0.00     0.039 A 
HETATM    8  C9  UNL     1      24.470   0.145  52.958  1.00  0.00     0.033 A 
HETATM    9  C10 UNL     1      25.492  -0.794  53.167  1.00  0.00     0.044 A 
HETATM   10  C11 UNL     1      26.690  -0.542  52.536  1.00  0.00     0.117 A 
HETATM   11  F1  UNL     1      27.692  -1.432  52.720  1.00  0.00    -0.206 F 
HETATM   12  C12 UNL     1      26.788   0.592  51.764  1.00  0.00     0.056 A 
HETATM   13  C13 UNL     1      25.787   1.515  51.557  1.00  0.00     0.000 A 
HETATM   14  C14 UNL     1      26.042   2.708  50.719  1.00  0.00    -0.035 A 
HETATM   15  C15 UNL     1      25.386   3.390  49.848  1.00  0.00    -0.046 A 
HETATM   16  C16 UNL     1      24.093   3.269  49.313  1.00  0.00     0.011 C 
HETATM   17  C17 UNL     1      23.242   3.080  48.351  1.00  0.00     0.040 C 
HETATM   18  C18 UNL     1      26.712   3.908  50.083  1.00  0.00     0.079 A 
HETATM   19  C19 UNL     1      20.250   3.705  52.389  1.00  0.00     0.214 A 
HETATM   20  O3  UNL     1      19.861   4.270  51.172  1.00  0.00    -0.344 OA
HETATM   21  H9  UNL     1      23.765   2.629  52.825  1.00  0.00     0.160 HD
ENDROOT
BRANCH   1  22
HETATM   22  O1  UNL     1      21.391   2.796  46.877  1.00  0.00    -0.353 OA
HETATM   23  C1  UNL     1      21.853   3.539  45.775  1.00  0.00     0.210 C 
ENDBRANCH   1  22
BRANCH   2  24
HETATM   24  O2  UNL     1      19.945   2.954  48.131  1.00  0.00    -0.351 OA
HETATM   25  C4  UNL     1      18.564   2.807  48.488  1.00  0.00     0.210 C 
ENDBRANCH   2  24
TORSDOF 2
ENDMDL
MODEL 6
REMARK VINA RESULT:      -7.0      3.831      6.341
REMARK  2 active torsions:
REMARK  status: ('A' for Active; 'I' for Inactive)
REMARK    1  A    between atoms: O1_2  and  C2_3 
REMARK    2  A    between atoms: C3_4  and  O2_5 
ROOT
HETATM    1  C2  UNL     1      20.293   1.941  50.288  1.00  0.00     0.104 C 
HETATM    2  C3  UNL     1      19.792   0.944  50.970  1.00  0.00     0.135 C 
HETATM    3  C5  UNL     1      19.823   0.191  52.201  1.00  0.00     0.111 A 
HETATM    4  C6  UNL     1      20.795  -0.430  52.886  1.00  0.00    -0.002 A 
HETATM    5  C7  UNL     1      22.208  -0.418  52.378  1.00  0.00     0.159 C 
HETATM    6  N1  UNL     1      23.063   0.308  53.337  1.00  0.00    -0.385 N 
HETATM    7  C8  UNL     1      24.413   0.792  53.193  1.00  0.00     0.039 A 
HETATM    8  C9  UNL     1      25.248  -0.307  53.219  1.00  0.00     0.033 A 
HETATM    9  C10 UNL     1      26.644  -0.265  53.080  1.00  0.00     0.044 A 
HETATM   10  C11 UNL     1      27.201   0.983  52.905  1.00  0.00     0.117 A 
HETATM   11  F1  UNL     1      28.545   1.052  52.768  1.00  0.00    -0.206 F 
HETATM   12  C12 UNL     1      26.360   2.070  52.883  1.00  0.00     0.056 A 
HETATM   13  C13 UNL     1      24.990   2.032  53.020  1.00  0.00     0.000 A 
HETATM   14  C14 UNL     1      24.209   3.288  53.002  1.00  0.00    -0.035 A 
HETATM   15  C15 UNL     1      23.079   3.674  52.522  1.00  0.00    -0.046 A 
HETATM   16  C16 UNL     1      22.080   3.022  51.781  1.00  0.00     0.011 C 
HETATM   17  C17 UNL     1      21.341   2.837  50.731  1.00  0.00     0.040 C 
HETATM   18  C18 UNL     1      23.776   4.722  53.229  1.00  0.00     0.079 A 
HETATM   19  C19 UNL     1      19.759  -0.808  53.871  1.00  0.00     0.214 A 
HETATM   20  O3  UNL     1      18.814  -0.137  53.091  1.00  0.00    -0.344 OA
HETATM   21  H9  UNL     1      23.118   0.688  54.296  1.00  0.00     0.160 HD
ENDROOT
BRANCH   1  22
HETATM   22  O1  UNL     1      19.805   2.196  49.025  1.00  0.00    -0.353 OA
HETATM   23  C1  UNL     1      20.549   2.829  48.012  1.00  0.00     0.210 C 
ENDBRANCH   1  22
BRANCH   2  24
HETATM   24  O2  UNL     1      18.959   0.703  49.888  1.00  0.00    -0.351 OA
HETATM   25  C4  UNL     1      17.619   0.236  50.095  1.00  0.00     0.210 C 
ENDBRANCH   2  24
TORSDOF 2
ENDMDL
MODEL 7
REMARK VINA RESULT:      -7.0      8.857     11.369
REMARK  2 active torsions:
REMARK  status: ('A' for Active; 'I' for Inactive)
REMARK    1  A    between atoms: O1_2  and  C2_3 
REMARK    2  A    between atoms: C3_4  and  O2_5 
ROOT
HETATM    1  C2  UNL     1      31.111   6.098  48.402  1.00  0.00     0.104 C 
HETATM    2  C3  UNL     1      32.363   5.722  48.409  1.00  0.00     0.135 C 
HETATM    3  C5  UNL     1      33.745   6.137  48.460  1.00  0.00     0.111 A 
HETATM    4  C6  UNL     1      34.485   6.994  47.741  1.00  0.00    -0.002 A 
HETATM    5  C7  UNL     1      33.870   7.761  46.606  1.00  0.00     0.159 C 
HETATM    6  N1  UNL     1      33.902   9.203  46.918  1.00  0.00    -0.385 N 
HETATM    7  C8  UNL     1      33.234  10.306  46.276  1.00  0.00     0.039 A 
HETATM    8  C9  UNL     1      33.858  10.514  45.063  1.00  0.00     0.033 A 
HETATM    9  C10 UNL     1      33.486  11.484  44.119  1.00  0.00     0.044 A 
HETATM   10  C11 UNL     1      32.412  12.279  44.452  1.00  0.00     0.117 A 
HETATM   11  F1  UNL     1      32.032  13.221  43.559  1.00  0.00    -0.206 F 
HETATM   12  C12 UNL     1      31.799  12.064  45.665  1.00  0.00     0.056 A 
HETATM   13  C13 UNL     1      32.163  11.113  46.593  1.00  0.00     0.000 A 
HETATM   14  C14 UNL     1      31.427  11.010  47.873  1.00  0.00    -0.035 A 
HETATM   15  C15 UNL     1      31.021  10.060  48.638  1.00  0.00    -0.046 A 
HETATM   16  C16 UNL     1      31.117   8.660  48.560  1.00  0.00     0.011 C 
HETATM   17  C17 UNL     1      30.629   7.462  48.468  1.00  0.00     0.040 C 
HETATM   18  C18 UNL     1      30.684  11.369  49.143  1.00  0.00     0.079 A 
HETATM   19  C19 UNL     1      35.622   6.630  48.613  1.00  0.00     0.214 A 
HETATM   20  O3  UNL     1      34.776   5.758  49.303  1.00  0.00    -0.344 OA
HETATM   21  H9  UNL     1      34.313   9.922  47.538  1.00  0.00     0.160 HD
ENDROOT
BRANCH   1  22
HETATM   22  O1  UNL     1      30.127   5.136  48.325  1.00  0.00    -0.353 OA
HETATM   23  C1  UNL     1      28.750   5.424  48.336  1.00  0.00     0.210 C 
ENDBRANCH   1  22
BRANCH   2  24
HETATM   24  O2  UNL     1      31.907   4.415  48.328  1.00  0.00    -0.351 OA
HETATM   25  C4  UNL     1      32.739   3.392  47.765  1.00  0.00     0.210 C 
ENDBRANCH   2  24
TORSDOF 2
ENDMDL
MODEL 8
REMARK VINA RESULT:      -6.9      1.615      3.932
REMARK  2 active torsions:
REMARK  status: ('A' for Active; 'I' for Inactive)
REMARK    1  A    between atoms: O1_2  and  C2_3 
REMARK    2  A    between atoms: C3_4  and  O2_5 
ROOT
HETATM    1  C2  UNL     1      24.353   0.280  52.908  1.00  0.00     0.104 C 
HETATM    2  C3  UNL     1      25.645   0.362  53.094  1.00  0.00     0.135 C 
HETATM    3  C5  UNL     1      26.791   1.231  53.220  1.00  0.00     0.111 A 
HETATM    4  C6  UNL     1      27.301   2.211  52.459  1.00  0.00    -0.002 A 
HETATM    5  C7  UNL     1      26.637   2.596  51.169  1.00  0.00     0.159 C 
HETATM    6  N1  UNL     1      26.147   3.984  51.268  1.00  0.00    -0.385 N 
HETATM    7  C8  UNL     1      25.252   4.715  50.408  1.00  0.00     0.039 A 
HETATM    8  C9  UNL     1      25.939   4.998  49.245  1.00  0.00     0.033 A 
HETATM    9  C10 UNL     1      25.407   5.676  48.137  1.00  0.00     0.044 A 
HETATM   10  C11 UNL     1      24.095   6.081  48.243  1.00  0.00     0.117 A 
HETATM   11  F1  UNL     1      23.557   6.736  47.188  1.00  0.00    -0.206 F 
HETATM   12  C12 UNL     1      23.421   5.796  49.408  1.00  0.00     0.056 A 
HETATM   13  C13 UNL     1      23.941   5.132  50.496  1.00  0.00     0.000 A 
HETATM   14  C14 UNL     1      23.106   4.916  51.698  1.00  0.00    -0.035 A 
HETATM   15  C15 UNL     1      22.931   3.969  52.552  1.00  0.00    -0.046 A 
HETATM   16  C16 UNL     1      23.492   2.689  52.689  1.00  0.00     0.011 C 
HETATM   17  C17 UNL     1      23.444   1.392  52.726  1.00  0.00     0.040 C 
HETATM   18  C18 UNL     1      22.113   5.126  52.823  1.00  0.00     0.079 A 
HETATM   19  C19 UNL     1      28.358   2.354  53.483  1.00  0.00     0.214 A 
HETATM   20  O3  UNL     1      27.757   1.321  54.207  1.00  0.00    -0.344 OA
HETATM   21  H9  UNL     1      26.205   4.861  51.813  1.00  0.00     0.160 HD
ENDROOT
BRANCH   1  22
HETATM   22  O1  UNL     1      23.762  -0.965  52.877  1.00  0.00    -0.353 OA
HETATM   23  C1  UNL     1      22.403  -1.193  53.163  1.00  0.00     0.210 C 
ENDBRANCH   1  22
BRANCH   2  24
HETATM   24  O2  UNL     1      25.661  -1.023  53.161  1.00  0.00    -0.351 OA
HETATM   25  C4  UNL     1      26.822  -1.754  52.745  1.00  0.00     0.210 C 
ENDBRANCH   2  24
TORSDOF 2
ENDMDL
MODEL 9
REMARK VINA RESULT:      -6.9      3.779      5.490
REMARK  2 active torsions:
REMARK  status: ('A' for Active; 'I' for Inactive)
REMARK    1  A    between atoms: O1_2  and  C2_3 
REMARK    2  A    between atoms: C3_4  and  O2_5 
ROOT
HETATM    1  C2  UNL     1      24.458   3.390  50.307  1.00  0.00     0.104 C 
HETATM    2  C3  UNL     1      23.424   3.587  49.532  1.00  0.00     0.135 C 
HETATM    3  C5  UNL     1      22.926   4.190  48.319  1.00  0.00     0.111 A 
HETATM    4  C6  UNL     1      22.958   5.434  47.819  1.00  0.00    -0.002 A 
HETATM    5  C7  UNL     1      23.629   6.542  48.580  1.00  0.00     0.159 C 
HETATM    6  N1  UNL     1      24.786   7.033  47.806  1.00  0.00    -0.385 N 
HETATM    7  C8  UNL     1      25.867   7.898  48.204  1.00  0.00     0.039 A 
HETATM    8  C9  UNL     1      25.352   9.173  48.319  1.00  0.00     0.033 A 
HETATM    9  C10 UNL     1      26.079  10.306  48.715  1.00  0.00     0.044 A 
HETATM   10  C11 UNL     1      27.411  10.104  49.006  1.00  0.00     0.117 A 
HETATM   11  F1  UNL     1      28.135  11.180  49.392  1.00  0.00    -0.206 F 
HETATM   12  C12 UNL     1      27.914   8.830  48.885  1.00  0.00     0.056 A 
HETATM   13  C13 UNL     1      27.202   7.717  48.496  1.00  0.00     0.000 A 
HETATM   14  C14 UNL     1      27.881   6.407  48.384  1.00  0.00    -0.035 A 
HETATM   15  C15 UNL     1      27.589   5.182  48.650  1.00  0.00    -0.046 A 
HETATM   16  C16 UNL     1      26.446   4.565  49.185  1.00  0.00     0.011 C 
HETATM   17  C17 UNL     1      25.803   3.877  50.078  1.00  0.00     0.040 C 
HETATM   18  C18 UNL     1      28.913   5.336  48.098  1.00  0.00     0.079 A 
HETATM   19  C19 UNL     1      22.216   4.907  46.654  1.00  0.00     0.214 A 
HETATM   20  O3  UNL     1      22.229   3.645  47.254  1.00  0.00    -0.344 OA
HETATM   21  H9  UNL     1      25.241   7.029  46.878  1.00  0.00     0.160 HD
ENDROOT
BRANCH   1  22
HETATM   22  O1  UNL     1      24.296   2.654  51.461  1.00  0.00    -0.353 OA
HETATM   23  C1  UNL     1      25.361   2.245  52.285  1.00  0.00     0.210 C 
ENDBRANCH   1  22
BRANCH   2  24
HETATM   24  O2  UNL     1      22.681   2.845  50.438  1.00  0.00    -0.351 OA
HETATM   25  C4  UNL     1      21.421   2.281  50.051  1.00  0.00     0.210 C 
ENDBRANCH   2  24
TORSDOF 2
ENDMDL
