MODEL 1
REMARK VINA RESULT:      -7.1      0.000      0.000
REMARK  6 active torsions:
REMARK  status: ('A' for Active; 'I' for Inactive)
REMARK    1  A    between atoms: C2_2  and  N1_3 
REMARK    2  A    between atoms: N1_3  and  C3_4 
REMARK    3  A    between atoms: C6_7  and  O1_8 
REMARK    4  A    between atoms: O1_8  and  C7_9 
REMARK    5  A    between atoms: C7_9  and  C8_10 
REMARK    6  A    between atoms: C14_17  and  N2_18 
ROOT
HETATM    1  C3  UNL     1      21.184  -0.278  53.719  1.00  0.00     0.030 A 
HETATM    2  C4  UNL     1      22.272  -1.027  54.119  1.00  0.00     0.032 A 
HETATM    3  C5  UNL     1      23.552  -0.563  53.901  1.00  0.00     0.041 A 
HETATM    4  C6  UNL     1      23.794   0.649  53.285  1.00  0.00     0.096 A 
HETATM    5  C14 UNL     1      22.668   1.368  52.899  1.00  0.00     0.078 A 
HETATM    6  C15 UNL     1      21.377   0.937  53.100  1.00  0.00     0.062 A 
ENDROOT
BRANCH   4   7
HETATM    7  O1  UNL     1      25.045   1.191  53.027  1.00  0.00    -0.344 OA
BRANCH   7   8
HETATM    8  C7  UNL     1      25.848   0.699  51.992  1.00  0.00     0.214 C 
BRANCH   8   9
HETATM    9  C8  UNL     1      27.057   0.027  52.550  1.00  0.00    -0.034 A 
HETATM   10  C9  UNL     1      27.276  -1.315  52.637  1.00  0.00     0.012 A 
HETATM   11  C10 UNL     1      28.436  -1.832  53.174  1.00  0.00     0.043 A 
HETATM   12  C11 UNL     1      29.383  -0.910  53.628  1.00  0.00     0.116 A 
HETATM   13  F1  UNL     1      30.537  -1.400  54.162  1.00  0.00    -0.206 F 
HETATM   14  C12 UNL     1      29.213   0.468  53.565  1.00  0.00     0.043 A 
HETATM   15  C13 UNL     1      28.029   0.911  53.016  1.00  0.00     0.012 A 
ENDBRANCH   8   9
ENDBRANCH   7   8
ENDBRANCH   4   7
BRANCH   5  16
HETATM   16  N2  UNL     1      22.856   2.623  52.260  1.00  0.00    -0.296 N 
HETATM   17 CL1  UNL     1      23.618   4.065  52.851  1.00  0.00     0.011 Cl
HETATM   18  H15 UNL     1      22.524   2.808  51.293  1.00  0.00     0.180 HD
ENDBRANCH   5  16
BRANCH   1  19
HETATM   19  N1  UNL     1      19.864  -0.742  53.936  1.00  0.00    -0.390 N 
HETATM   20  H6  UNL     1      19.586  -1.186  54.821  1.00  0.00     0.159 HD
BRANCH  19  21
HETATM   21  C2  UNL     1      18.852  -0.599  52.891  1.00  0.00     0.115 C 
HETATM   22  C1  UNL     1      17.600  -1.361  53.226  1.00  0.00     0.026 C 
ENDBRANCH  19  21
ENDBRANCH   1  19
TORSDOF 6
ENDMDL
MODEL 2
REMARK VINA RESULT:      -7.0      2.732      3.682
REMARK  6 active torsions:
REMARK  status: ('A' for Active; 'I' for Inactive)
REMARK    1  A    between atoms: C2_2  and  N1_3 
REMARK    2  A    between atoms: N1_3  and  C3_4 
REMARK    3  A    between atoms: C6_7  and  O1_8 
REMARK    4  A    between atoms: O1_8  and  C7_9 
REMARK    5  A    between atoms: C7_9  and  C8_10 
REMARK    6  A    between atoms: C14_17  and  N2_18 
ROOT
HETATM    1  C3  UNL     1      22.330   1.912  50.059  1.00  0.00     0.030 A 
HETATM    2  C4  UNL     1      21.810   0.927  50.873  1.00  0.00     0.032 A 
HETATM    3  C5  UNL     1      22.454   0.583  52.043  1.00  0.00     0.041 A 
HETATM    4  C6  UNL     1      23.625   1.198  52.440  1.00  0.00     0.096 A 
HETATM    5  C14 UNL     1      24.111   2.183  51.588  1.00  0.00     0.078 A 
HETATM    6  C15 UNL     1      23.496   2.554  50.415  1.00  0.00     0.062 A 
ENDROOT
BRANCH   4   7
HETATM    7  O1  UNL     1      24.337   0.914  53.598  1.00  0.00    -0.344 OA
BRANCH   7   8
HETATM    8  C7  UNL     1      24.716  -0.394  53.912  1.00  0.00     0.214 C 
BRANCH   8   9
HETATM    9  C8  UNL     1      26.197  -0.542  53.812  1.00  0.00    -0.034 A 
HETATM   10  C9  UNL     1      26.880  -1.320  52.925  1.00  0.00     0.012 A 
HETATM   11  C10 UNL     1      28.258  -1.383  52.920  1.00  0.00     0.043 A 
HETATM   12  C11 UNL     1      28.926  -0.607  53.871  1.00  0.00     0.116 A 
HETATM   13  F1  UNL     1      30.287  -0.655  53.883  1.00  0.00    -0.206 F 
HETATM   14  C12 UNL     1      28.281   0.203  54.798  1.00  0.00     0.043 A 
HETATM   15  C13 UNL     1      26.904   0.216  54.744  1.00  0.00     0.012 A 
ENDBRANCH   8   9
ENDBRANCH   7   8
ENDBRANCH   4   7
BRANCH   5  16
HETATM   16  N2  UNL     1      25.313   2.852  51.946  1.00  0.00    -0.296 N 
HETATM   17 CL1  UNL     1      26.961   2.347  51.749  1.00  0.00     0.011 Cl
HETATM   18  H15 UNL     1      25.315   3.787  52.398  1.00  0.00     0.180 HD
ENDBRANCH   5  16
BRANCH   1  19
HETATM   19  N1  UNL     1      21.680   2.277  48.855  1.00  0.00    -0.390 N 
HETATM   20  H6  UNL     1      20.698   2.583  48.843  1.00  0.00     0.159 HD
BRANCH  19  21
HETATM   21  C2  UNL     1      22.400   2.224  47.585  1.00  0.00     0.115 C 
HETATM   22  C1  UNL     1      21.982   3.339  46.666  1.00  0.00     0.026 C 
ENDBRANCH  19  21
ENDBRANCH   1  19
TORSDOF 6
ENDMDL
MODEL 3
REMARK VINA RESULT:      -6.9      4.297      7.005
REMARK  6 active torsions:
REMARK  status: ('A' for Active; 'I' for Inactive)
REMARK    1  A    between atoms: C2_2  and  N1_3 
REMARK    2  A    between atoms: N1_3  and  C3_4 
REMARK    3  A    between atoms: C6_7  and  O1_8 
REMARK    4  A    between atoms: O1_8  and  C7_9 
REMARK    5  A    between atoms: C7_9  and  C8_10 
REMARK    6  A    between atoms: C14_17  and  N2_18 
ROOT
HETATM    1  C3  UNL     1      26.360   0.233  54.362  1.00  0.00     0.030 A 
HETATM    2  C4  UNL     1      26.327   1.512  53.846  1.00  0.00     0.032 A 
HETATM    3  C5  UNL     1      25.188   1.979  53.224  1.00  0.00     0.041 A 
HETATM    4  C6  UNL     1      24.055   1.200  53.095  1.00  0.00     0.096 A 
HETATM    5  C14 UNL     1      24.136  -0.080  53.630  1.00  0.00     0.078 A 
HETATM    6  C15 UNL     1      25.254  -0.581  54.257  1.00  0.00     0.062 A 
ENDROOT
BRANCH   4   7
HETATM    7  O1  UNL     1      22.870   1.589  52.486  1.00  0.00    -0.344 OA
BRANCH   7   8
HETATM    8  C7  UNL     1      22.738   2.851  51.899  1.00  0.00     0.214 C 
BRANCH   8   9
HETATM    9  C8  UNL     1      22.571   2.720  50.422  1.00  0.00    -0.034 A 
HETATM   10  C9  UNL     1      22.092   1.636  49.751  1.00  0.00     0.012 A 
HETATM   11  C10 UNL     1      21.979   1.620  48.376  1.00  0.00     0.043 A 
HETATM   12  C11 UNL     1      22.382   2.775  47.699  1.00  0.00     0.116 A 
HETATM   13  F1  UNL     1      22.278   2.780  46.341  1.00  0.00    -0.206 F 
HETATM   14  C12 UNL     1      22.878   3.908  48.333  1.00  0.00     0.043 A 
HETATM   15  C13 UNL     1      22.962   3.851  49.707  1.00  0.00     0.012 A 
ENDBRANCH   8   9
ENDBRANCH   7   8
ENDBRANCH   4   7
BRANCH   5  16
HETATM   16  N2  UNL     1      22.999  -0.928  53.527  1.00  0.00    -0.296 N 
HETATM   17 CL1  UNL     1      21.930  -1.502  54.765  1.00  0.00     0.011 Cl
HETATM   18  H15 UNL     1      22.677  -1.315  52.619  1.00  0.00     0.180 HD
ENDBRANCH   5  16
BRANCH   1  19
HETATM   19  N1  UNL     1      27.523  -0.261  55.004  1.00  0.00    -0.390 N 
HETATM   20  H6  UNL     1      27.467  -0.922  55.790  1.00  0.00     0.159 HD
BRANCH  19  21
HETATM   21  C2  UNL     1      28.847   0.164  54.555  1.00  0.00     0.115 C 
HETATM   22  C1  UNL     1      29.473  -0.851  53.639  1.00  0.00     0.026 C 
ENDBRANCH  19  21
ENDBRANCH   1  19
TORSDOF 6
ENDMDL
MODEL 4
REMARK VINA RESULT:      -6.9      3.705      7.203
REMARK  6 active torsions:
REMARK  status: ('A' for Active; 'I' for Inactive)
REMARK    1  A    between atoms: C2_2  and  N1_3 
REMARK    2  A    between atoms: N1_3  and  C3_4 
REMARK    3  A    between atoms: C6_7  and  O1_8 
REMARK    4  A    between atoms: O1_8  and  C7_9 
REMARK    5  A    between atoms: C7_9  and  C8_10 
REMARK    6  A    between atoms: C14_17  and  N2_18 
ROOT
HETATM    1  C3  UNL     1      26.874   0.213  54.039  1.00  0.00     0.030 A 
HETATM    2  C4  UNL     1      25.692  -0.499  54.062  1.00  0.00     0.032 A 
HETATM    3  C5  UNL     1      24.614  -0.075  53.314  1.00  0.00     0.041 A 
HETATM    4  C6  UNL     1      24.672   1.057  52.525  1.00  0.00     0.096 A 
HETATM    5  C14 UNL     1      25.883   1.741  52.535  1.00  0.00     0.078 A 
HETATM    6  C15 UNL     1      26.979   1.349  53.268  1.00  0.00     0.062 A 
ENDROOT
BRANCH   4   7
HETATM    7  O1  UNL     1      23.638   1.553  51.743  1.00  0.00    -0.344 OA
BRANCH   7   8
HETATM    8  C7  UNL     1      22.553   2.223  52.317  1.00  0.00     0.214 C 
BRANCH   8   9
HETATM    9  C8  UNL     1      21.368   1.320  52.390  1.00  0.00    -0.034 A 
HETATM   10  C9  UNL     1      20.976   0.576  53.461  1.00  0.00     0.012 A 
HETATM   11  C10 UNL     1      19.857  -0.230  53.420  1.00  0.00     0.043 A 
HETATM   12  C11 UNL     1      19.139  -0.247  52.222  1.00  0.00     0.116 A 
HETATM   13  F1  UNL     1      18.030  -1.036  52.160  1.00  0.00    -0.206 F 
HETATM   14  C12 UNL     1      19.493   0.492  51.098  1.00  0.00     0.043 A 
HETATM   15  C13 UNL     1      20.621   1.273  51.213  1.00  0.00     0.012 A 
ENDBRANCH   8   9
ENDBRANCH   7   8
ENDBRANCH   4   7
BRANCH   5  16
HETATM   16  N2  UNL     1      26.001   2.914  51.742  1.00  0.00    -0.296 N 
HETATM   17 CL1  UNL     1      26.435   3.083  50.072  1.00  0.00     0.011 Cl
HETATM   18  H15 UNL     1      25.822   3.863  52.126  1.00  0.00     0.180 HD
ENDBRANCH   5  16
BRANCH   1  19
HETATM   19  N1  UNL     1      27.990  -0.210  54.803  1.00  0.00    -0.390 N 
HETATM   20  H6  UNL     1      27.888  -0.539  55.772  1.00  0.00     0.159 HD
BRANCH  19  21
HETATM   21  C2  UNL     1      29.331  -0.187  54.222  1.00  0.00     0.115 C 
HETATM   22  C1  UNL     1      29.596  -1.414  53.394  1.00  0.00     0.026 C 
ENDBRANCH  19  21
ENDBRANCH   1  19
TORSDOF 6
ENDMDL
MODEL 5
REMARK VINA RESULT:      -6.8      4.059      6.567
REMARK  6 active torsions:
REMARK  status: ('A' for Active; 'I' for Inactive)
REMARK    1  A    between atoms: C2_2  and  N1_3 
REMARK    2  A    between atoms: N1_3  and  C3_4 
REMARK    3  A    between atoms: C6_7  and  O1_8 
REMARK    4  A    between atoms: O1_8  and  C7_9 
REMARK    5  A    between atoms: C7_9  and  C8_10 
REMARK    6  A    between atoms: C14_17  and  N2_18 
ROOT
HETATM    1  C3  UNL     1      26.530   0.264  54.311  1.00  0.00     0.030 A 
HETATM    2  C4  UNL     1      26.604   1.578  53.896  1.00  0.00     0.032 A 
HETATM    3  C5  UNL     1      25.534   2.161  53.250  1.00  0.00     0.041 A 
HETATM    4  C6  UNL     1      24.367   1.468  52.996  1.00  0.00     0.096 A 
HETATM    5  C14 UNL     1      24.340   0.148  53.432  1.00  0.00     0.078 A 
HETATM    6  C15 UNL     1      25.386  -0.467  54.080  1.00  0.00     0.062 A 
ENDROOT
BRANCH   4   7
HETATM    7  O1  UNL     1      23.246   1.976  52.354  1.00  0.00    -0.344 OA
BRANCH   7   8
HETATM    8  C7  UNL     1      23.246   2.213  50.976  1.00  0.00     0.214 C 
BRANCH   8   9
HETATM    9  C8  UNL     1      23.954   3.490  50.670  1.00  0.00    -0.034 A 
HETATM   10  C9  UNL     1      23.650   4.726  51.156  1.00  0.00     0.012 A 
HETATM   11  C10 UNL     1      24.374   5.846  50.805  1.00  0.00     0.043 A 
HETATM   12  C11 UNL     1      25.442   5.654  49.924  1.00  0.00     0.116 A 
HETATM   13  F1  UNL     1      26.170   6.747  49.566  1.00  0.00    -0.206 F 
HETATM   14  C12 UNL     1      25.796   4.417  49.399  1.00  0.00     0.043 A 
HETATM   15  C13 UNL     1      25.028   3.343  49.793  1.00  0.00     0.012 A 
ENDBRANCH   8   9
ENDBRANCH   7   8
ENDBRANCH   4   7
BRANCH   5  16
HETATM   16  N2  UNL     1      23.164  -0.615  53.199  1.00  0.00    -0.296 N 
HETATM   17 CL1  UNL     1      21.860  -0.997  54.275  1.00  0.00     0.011 Cl
HETATM   18  H15 UNL     1      22.961  -1.053  52.279  1.00  0.00     0.180 HD
ENDBRANCH   5  16
BRANCH   1  19
HETATM   19  N1  UNL     1      27.620  -0.349  54.976  1.00  0.00    -0.390 N 
HETATM   20  H6  UNL     1      27.479  -0.989  55.768  1.00  0.00     0.159 HD
BRANCH  19  21
HETATM   21  C2  UNL     1      28.990  -0.080  54.544  1.00  0.00     0.115 C 
HETATM   22  C1  UNL     1      29.449  -1.073  53.511  1.00  0.00     0.026 C 
ENDBRANCH  19  21
ENDBRANCH   1  19
TORSDOF 6
ENDMDL
MODEL 6
REMARK VINA RESULT:      -6.7      4.768      7.556
REMARK  6 active torsions:
REMARK  status: ('A' for Active; 'I' for Inactive)
REMARK    1  A    between atoms: C2_2  and  N1_3 
REMARK    2  A    between atoms: N1_3  and  C3_4 
REMARK    3  A    between atoms: C6_7  and  O1_8 
REMARK    4  A    between atoms: O1_8  and  C7_9 
REMARK    5  A    between atoms: C7_9  and  C8_10 
REMARK    6  A    between atoms: C14_17  and  N2_18 
ROOT
HETATM    1  C3  UNL     1      26.590   0.141  53.105  1.00  0.00     0.030 A 
HETATM    2  C4  UNL     1      25.228  -0.040  53.239  1.00  0.00     0.032 A 
HETATM    3  C5  UNL     1      24.351   0.862  52.675  1.00  0.00     0.041 A 
HETATM    4  C6  UNL     1      24.790   1.963  51.965  1.00  0.00     0.096 A 
HETATM    5  C14 UNL     1      26.169   2.103  51.858  1.00  0.00     0.078 A 
HETATM    6  C15 UNL     1      27.074   1.225  52.407  1.00  0.00     0.062 A 
ENDROOT
BRANCH   4   7
HETATM    7  O1  UNL     1      23.979   2.917  51.366  1.00  0.00    -0.344 OA
BRANCH   7   8
HETATM    8  C7  UNL     1      23.033   3.631  52.107  1.00  0.00     0.214 C 
BRANCH   8   9
HETATM    9  C8  UNL     1      22.862   5.002  51.545  1.00  0.00    -0.034 A 
HETATM   10  C9  UNL     1      21.684   5.645  51.308  1.00  0.00     0.012 A 
HETATM   11  C10 UNL     1      21.641   6.919  50.782  1.00  0.00     0.043 A 
HETATM   12  C11 UNL     1      22.868   7.525  50.502  1.00  0.00     0.116 A 
HETATM   13  F1  UNL     1      22.848   8.784  49.982  1.00  0.00    -0.206 F 
HETATM   14  C12 UNL     1      24.099   6.916  50.723  1.00  0.00     0.043 A 
HETATM   15  C13 UNL     1      24.064   5.644  51.250  1.00  0.00     0.012 A 
ENDBRANCH   8   9
ENDBRANCH   7   8
ENDBRANCH   4   7
BRANCH   5  16
HETATM   16  N2  UNL     1      26.680   3.218  51.139  1.00  0.00    -0.296 N 
HETATM   17 CL1  UNL     1      26.666   3.537  49.435  1.00  0.00     0.011 Cl
HETATM   18  H15 UNL     1      27.150   4.014  51.612  1.00  0.00     0.180 HD
ENDBRANCH   5  16
BRANCH   1  19
HETATM   19  N1  UNL     1      27.503  -0.777  53.680  1.00  0.00    -0.390 N 
HETATM   20  H6  UNL     1      27.315  -1.788  53.696  1.00  0.00     0.159 HD
BRANCH  19  21
HETATM   21  C2  UNL     1      28.751  -0.300  54.273  1.00  0.00     0.115 C 
HETATM   22  C1  UNL     1      29.950  -0.903  53.595  1.00  0.00     0.026 C 
ENDBRANCH  19  21
ENDBRANCH   1  19
TORSDOF 6
ENDMDL
MODEL 7
REMARK VINA RESULT:      -6.7      4.117      7.404
REMARK  6 active torsions:
REMARK  status: ('A' for Active; 'I' for Inactive)
REMARK    1  A    between atoms: C2_2  and  N1_3 
REMARK    2  A    between atoms: N1_3  and  C3_4 
REMARK    3  A    between atoms: C6_7  and  O1_8 
REMARK    4  A    between atoms: O1_8  and  C7_9 
REMARK    5  A    between atoms: C7_9  and  C8_10 
REMARK    6  A    between atoms: C14_17  and  N2_18 
ROOT
HETATM    1  C3  UNL     1      26.998   0.323  54.358  1.00  0.00     0.030 A 
HETATM    2  C4  UNL     1      26.960   1.587  53.806  1.00  0.00     0.032 A 
HETATM    3  C5  UNL     1      25.808   2.044  53.200  1.00  0.00     0.041 A 
HETATM    4  C6  UNL     1      24.667   1.270  53.122  1.00  0.00     0.096 A 
HETATM    5  C14 UNL     1      24.754   0.004  53.691  1.00  0.00     0.078 A 
HETATM    6  C15 UNL     1      25.884  -0.486  54.304  1.00  0.00     0.062 A 
ENDROOT
BRANCH   4   7
HETATM    7  O1  UNL     1      23.470   1.650  52.533  1.00  0.00    -0.344 OA
BRANCH   7   8
HETATM    8  C7  UNL     1      23.349   1.761  51.144  1.00  0.00     0.214 C 
BRANCH   8   9
HETATM    9  C8  UNL     1      21.955   1.447  50.718  1.00  0.00    -0.034 A 
HETATM   10  C9  UNL     1      21.388   1.731  49.513  1.00  0.00     0.012 A 
HETATM   11  C10 UNL     1      20.082   1.393  49.222  1.00  0.00     0.043 A 
HETATM   12  C11 UNL     1      19.364   0.742  50.228  1.00  0.00     0.116 A 
HETATM   13  F1  UNL     1      18.072   0.399  49.962  1.00  0.00    -0.206 F 
HETATM   14  C12 UNL     1      19.892   0.427  51.476  1.00  0.00     0.043 A 
HETATM   15  C13 UNL     1      21.201   0.795  51.694  1.00  0.00     0.012 A 
ENDBRANCH   8   9
ENDBRANCH   7   8
ENDBRANCH   4   7
BRANCH   5  16
HETATM   16  N2  UNL     1      23.610  -0.838  53.641  1.00  0.00    -0.296 N 
HETATM   17 CL1  UNL     1      22.264  -0.943  54.729  1.00  0.00     0.011 Cl
HETATM   18  H15 UNL     1      23.464  -1.529  52.880  1.00  0.00     0.180 HD
ENDBRANCH   5  16
BRANCH   1  19
HETATM   19  N1  UNL     1      28.174  -0.161  54.983  1.00  0.00    -0.390 N 
HETATM   20  H6  UNL     1      28.195  -0.397  55.984  1.00  0.00     0.159 HD
BRANCH  19  21
HETATM   21  C2  UNL     1      29.400  -0.337  54.209  1.00  0.00     0.115 C 
HETATM   22  C1  UNL     1      29.332  -1.560  53.336  1.00  0.00     0.026 C 
ENDBRANCH  19  21
ENDBRANCH   1  19
TORSDOF 6
ENDMDL
MODEL 8
REMARK VINA RESULT:      -6.5      3.840      6.117
REMARK  6 active torsions:
REMARK  status: ('A' for Active; 'I' for Inactive)
REMARK    1  A    between atoms: C2_2  and  N1_3 
REMARK    2  A    between atoms: N1_3  and  C3_4 
REMARK    3  A    between atoms: C6_7  and  O1_8 
REMARK    4  A    between atoms: O1_8  and  C7_9 
REMARK    5  A    between atoms: C7_9  and  C8_10 
REMARK    6  A    between atoms: C14_17  and  N2_18 
ROOT
HETATM    1  C3  UNL     1      25.938   5.358  49.072  1.00  0.00     0.030 A 
HETATM    2  C4  UNL     1      26.872   4.354  49.232  1.00  0.00     0.032 A 
HETATM    3  C5  UNL     1      26.567   3.239  49.983  1.00  0.00     0.041 A 
HETATM    4  C6  UNL     1      25.338   3.083  50.595  1.00  0.00     0.096 A 
HETATM    5  C14 UNL     1      24.432   4.119  50.405  1.00  0.00     0.078 A 
HETATM    6  C15 UNL     1      24.700   5.247  49.664  1.00  0.00     0.062 A 
ENDROOT
BRANCH   4   7
HETATM    7  O1  UNL     1      24.949   1.996  51.365  1.00  0.00    -0.344 OA
BRANCH   7   8
HETATM    8  C7  UNL     1      25.257   1.927  52.728  1.00  0.00     0.214 C 
BRANCH   8   9
HETATM    9  C8  UNL     1      26.473   1.089  52.941  1.00  0.00    -0.034 A 
HETATM   10  C9  UNL     1      26.578  -0.256  52.754  1.00  0.00     0.012 A 
HETATM   11  C10 UNL     1      27.757  -0.936  52.983  1.00  0.00     0.043 A 
HETATM   12  C11 UNL     1      28.845  -0.175  53.418  1.00  0.00     0.116 A 
HETATM   13  F1  UNL     1      30.019  -0.826  53.650  1.00  0.00    -0.206 F 
HETATM   14  C12 UNL     1      28.794   1.199  53.626  1.00  0.00     0.043 A 
HETATM   15  C13 UNL     1      27.585   1.809  53.377  1.00  0.00     0.012 A 
ENDBRANCH   8   9
ENDBRANCH   7   8
ENDBRANCH   4   7
BRANCH   5  16
HETATM   16  N2  UNL     1      23.150   4.014  51.011  1.00  0.00    -0.296 N 
HETATM   17 CL1  UNL     1      22.583   4.655  52.520  1.00  0.00     0.011 Cl
HETATM   18  H15 UNL     1      22.367   3.498  50.566  1.00  0.00     0.180 HD
ENDBRANCH   5  16
BRANCH   1  19
HETATM   19  N1  UNL     1      26.237   6.511  48.304  1.00  0.00    -0.390 N 
HETATM   20  H6  UNL     1      25.747   6.714  47.423  1.00  0.00     0.159 HD
BRANCH  19  21
HETATM   21  C2  UNL     1      27.264   7.448  48.753  1.00  0.00     0.115 C 
HETATM   22  C1  UNL     1      26.766   8.318  49.874  1.00  0.00     0.026 C 
ENDBRANCH  19  21
ENDBRANCH   1  19
TORSDOF 6
ENDMDL
MODEL 9
REMARK VINA RESULT:      -6.5      4.898      7.355
REMARK  6 active torsions:
REMARK  status: ('A' for Active; 'I' for Inactive)
REMARK    1  A    between atoms: C2_2  and  N1_3 
REMARK    2  A    between atoms: N1_3  and  C3_4 
REMARK    3  A    between atoms: C6_7  and  O1_8 
REMARK    4  A    between atoms: O1_8  and  C7_9 
REMARK    5  A    between atoms: C7_9  and  C8_10 
REMARK    6  A    between atoms: C14_17  and  N2_18 
ROOT
HETATM    1  C3  UNL     1      26.341   6.702  48.891  1.00  0.00     0.030 A 
HETATM    2  C4  UNL     1      27.262   5.711  48.618  1.00  0.00     0.032 A 
HETATM    3  C5  UNL     1      27.055   4.428  49.078  1.00  0.00     0.041 A 
HETATM    4  C6  UNL     1      25.938   4.087  49.816  1.00  0.00     0.096 A 
HETATM    5  C14 UNL     1      25.040   5.118  50.065  1.00  0.00     0.078 A 
HETATM    6  C15 UNL     1      25.212   6.410  49.624  1.00  0.00     0.062 A 
ENDROOT
BRANCH   4   7
HETATM    7  O1  UNL     1      25.652   2.825  50.316  1.00  0.00    -0.344 OA
BRANCH   7   8
HETATM    8  C7  UNL     1      26.578   2.128  51.099  1.00  0.00     0.214 C 
BRANCH   8   9
HETATM    9  C8  UNL     1      25.877   1.172  52.003  1.00  0.00    -0.034 A 
HETATM   10  C9  UNL     1      26.411   0.065  52.590  1.00  0.00     0.012 A 
HETATM   11  C10 UNL     1      25.668  -0.756  53.413  1.00  0.00     0.043 A 
HETATM   12  C11 UNL     1      24.334  -0.397  53.619  1.00  0.00     0.116 A 
HETATM   13  F1  UNL     1      23.582  -1.193  54.429  1.00  0.00    -0.206 F 
HETATM   14  C12 UNL     1      23.737   0.721  53.045  1.00  0.00     0.043 A 
HETATM   15  C13 UNL     1      24.540   1.493  52.235  1.00  0.00     0.012 A 
ENDBRANCH   8   9
ENDBRANCH   7   8
ENDBRANCH   4   7
BRANCH   5  16
HETATM   16  N2  UNL     1      23.872   4.827  50.821  1.00  0.00    -0.296 N 
HETATM   17 CL1  UNL     1      23.587   4.985  52.524  1.00  0.00     0.011 Cl
HETATM   18  H15 UNL     1      23.005   4.461  50.382  1.00  0.00     0.180 HD
ENDBRANCH   5  16
BRANCH   1  19
HETATM   19  N1  UNL     1      26.540   8.026  48.426  1.00  0.00    -0.390 N 
HETATM   20  H6  UNL     1      25.893   8.467  47.759  1.00  0.00     0.159 HD
BRANCH  19  21
HETATM   21  C2  UNL     1      27.686   8.804  48.890  1.00  0.00     0.115 C 
HETATM   22  C1  UNL     1      27.477   9.314  50.290  1.00  0.00     0.026 C 
ENDBRANCH  19  21
ENDBRANCH   1  19
TORSDOF 6
ENDMDL
