MODEL 1
REMARK VINA RESULT:      -8.1      0.000      0.000
REMARK  5 active torsions:
REMARK  status: ('A' for Active; 'I' for Inactive)
REMARK    1  A    between atoms: C2_2  and  C3_3 
REMARK    2  A    between atoms: C3_3  and  C4_4 
REMARK    3  A    between atoms: C9_11  and  C10_12 
REMARK    4  A    between atoms: C10_12  and  C11_13 
REMARK    5  A    between atoms: C12_14  and  C14_16 
ROOT
HETATM    1  C4  UNL     1      24.915   0.195  52.947  1.00  0.00     0.021 A 
HETATM    2  C5  UNL     1      25.767  -1.069  52.826  1.00  0.00    -0.018 A 
HETATM    3  C6  UNL     1      26.428   0.068  52.963  1.00  0.00     0.083 A 
HETATM    4  C7  UNL     1      26.412   0.034  54.456  1.00  0.00     0.233 C 
HETATM    5  O1  UNL     1      26.341  -0.193  55.715  1.00  0.00    -0.272 OA
HETATM    6  N1  UNL     1      26.794   1.323  54.064  1.00  0.00    -0.354 N 
HETATM    7  C8  UNL     1      25.830   1.403  52.952  1.00  0.00     0.112 A 
HETATM    8  C9  UNL     1      26.713   0.936  51.864  1.00  0.00     0.034 A 
HETATM    9  H8  UNL     1      27.516   2.069  54.431  1.00  0.00     0.162 HD
ENDROOT
BRANCH   8  10
HETATM   10  C10 UNL     1      26.617   2.030  51.276  1.00  0.00    -0.012 C 
BRANCH  10  11
HETATM   11  C11 UNL     1      26.731   3.212  50.511  1.00  0.00     0.004 C 
HETATM   12  C12 UNL     1      25.833   3.764  49.753  1.00  0.00    -0.052 C 
HETATM   13  C13 UNL     1      24.495   3.170  49.597  1.00  0.00     0.049 C 
BRANCH  12  14
HETATM   14  C14 UNL     1      26.258   4.977  49.083  1.00  0.00    -0.030 A 
HETATM   15  C15 UNL     1      27.569   5.138  48.709  1.00  0.00     0.012 A 
HETATM   16  C16 UNL     1      28.044   6.272  48.077  1.00  0.00     0.001 A 
HETATM   17  C17 UNL     1      27.175   7.330  47.787  1.00  0.00     0.000 A 
HETATM   18  C18 UNL     1      25.837   7.207  48.150  1.00  0.00     0.001 A 
HETATM   19  C19 UNL     1      25.462   6.043  48.772  1.00  0.00     0.012 A 
ENDBRANCH  12  14
ENDBRANCH  10  11
ENDBRANCH   8  10
BRANCH   1  20
HETATM   20  C3  UNL     1      23.521   0.317  53.037  1.00  0.00     0.006 C 
BRANCH  20  21
HETATM   21  C2  UNL     1      22.661   1.358  52.423  1.00  0.00     0.002 C 
HETATM   22  C1  UNL     1      21.973   0.890  51.173  1.00  0.00     0.005 C 
ENDBRANCH  20  21
ENDBRANCH   1  20
TORSDOF 5
ENDMDL
MODEL 2
REMARK VINA RESULT:      -8.0      1.730      3.127
REMARK  5 active torsions:
REMARK  status: ('A' for Active; 'I' for Inactive)
REMARK    1  A    between atoms: C2_2  and  C3_3 
REMARK    2  A    between atoms: C3_3  and  C4_4 
REMARK    3  A    between atoms: C9_11  and  C10_12 
REMARK    4  A    between atoms: C10_12  and  C11_13 
REMARK    5  A    between atoms: C12_14  and  C14_16 
ROOT
HETATM    1  C4  UNL     1      27.396   0.433  53.691  1.00  0.00     0.021 A 
HETATM    2  C5  UNL     1      26.084   0.046  54.374  1.00  0.00    -0.018 A 
HETATM    3  C6  UNL     1      26.078   0.036  53.051  1.00  0.00     0.083 A 
HETATM    4  C7  UNL     1      26.554  -1.375  52.941  1.00  0.00     0.233 C 
HETATM    5  O1  UNL     1      26.917  -2.600  53.049  1.00  0.00    -0.272 OA
HETATM    6  N1  UNL     1      26.680  -0.785  51.678  1.00  0.00    -0.354 N 
HETATM    7  C8  UNL     1      27.167   0.507  52.195  1.00  0.00     0.112 A 
HETATM    8  C9  UNL     1      25.872   1.214  52.268  1.00  0.00     0.034 A 
HETATM    9  H8  UNL     1      26.524  -1.120  50.641  1.00  0.00     0.162 HD
ENDROOT
BRANCH   8  10
HETATM   10  C10 UNL     1      26.250   2.054  51.429  1.00  0.00    -0.012 C 
BRANCH  10  11
HETATM   11  C11 UNL     1      26.569   3.174  50.630  1.00  0.00     0.004 C 
HETATM   12  C12 UNL     1      25.820   3.770  49.753  1.00  0.00    -0.052 C 
HETATM   13  C13 UNL     1      24.450   3.306  49.477  1.00  0.00     0.049 C 
BRANCH  12  14
HETATM   14  C14 UNL     1      26.439   4.895  49.081  1.00  0.00    -0.030 A 
HETATM   15  C15 UNL     1      27.766   4.846  48.730  1.00  0.00     0.012 A 
HETATM   16  C16 UNL     1      28.421   5.885  48.097  1.00  0.00     0.001 A 
HETATM   17  C17 UNL     1      27.733   7.062  47.781  1.00  0.00     0.000 A 
HETATM   18  C18 UNL     1      26.385   7.152  48.120  1.00  0.00     0.001 A 
HETATM   19  C19 UNL     1      25.824   6.067  48.745  1.00  0.00     0.012 A 
ENDBRANCH  12  14
ENDBRANCH  10  11
ENDBRANCH   8  10
BRANCH   1  20
HETATM   20  C3  UNL     1      28.646   0.703  54.266  1.00  0.00     0.006 C 
BRANCH  20  21
HETATM   21  C2  UNL     1      29.978   0.248  53.796  1.00  0.00     0.002 C 
HETATM   22  C1  UNL     1      30.090  -1.247  53.706  1.00  0.00     0.005 C 
ENDBRANCH  20  21
ENDBRANCH   1  20
TORSDOF 5
ENDMDL
MODEL 3
REMARK VINA RESULT:      -7.9      2.306      6.601
REMARK  5 active torsions:
REMARK  status: ('A' for Active; 'I' for Inactive)
REMARK    1  A    between atoms: C2_2  and  C3_3 
REMARK    2  A    between atoms: C3_3  and  C4_4 
REMARK    3  A    between atoms: C9_11  and  C10_12 
REMARK    4  A    between atoms: C10_12  and  C11_13 
REMARK    5  A    between atoms: C12_14  and  C14_16 
ROOT
HETATM    1  C4  UNL     1      26.781   0.765  52.690  1.00  0.00     0.021 A 
HETATM    2  C5  UNL     1      27.456   1.048  54.032  1.00  0.00    -0.018 A 
HETATM    3  C6  UNL     1      26.778  -0.085  53.948  1.00  0.00     0.083 A 
HETATM    4  C7  UNL     1      27.930  -0.874  53.421  1.00  0.00     0.233 C 
HETATM    5  O1  UNL     1      29.036  -1.390  53.028  1.00  0.00    -0.272 OA
HETATM    6  N1  UNL     1      26.771  -1.635  53.229  1.00  0.00    -0.354 N 
HETATM    7  C8  UNL     1      25.939  -0.489  52.820  1.00  0.00     0.112 A 
HETATM    8  C9  UNL     1      25.363  -0.156  54.139  1.00  0.00     0.034 A 
HETATM    9  H8  UNL     1      26.518  -2.704  53.305  1.00  0.00     0.162 HD
ENDROOT
BRANCH   8  10
HETATM   10  C10 UNL     1      24.213  -0.408  53.732  1.00  0.00    -0.012 C 
BRANCH  10  11
HETATM   11  C11 UNL     1      22.841  -0.490  53.403  1.00  0.00     0.004 C 
HETATM   12  C12 UNL     1      22.123   0.374  52.752  1.00  0.00    -0.052 C 
HETATM   13  C13 UNL     1      22.707   1.628  52.248  1.00  0.00     0.049 C 
BRANCH  12  14
HETATM   14  C14 UNL     1      20.731   0.008  52.580  1.00  0.00    -0.030 A 
HETATM   15  C15 UNL     1      20.049   0.396  51.453  1.00  0.00     0.012 A 
HETATM   16  C16 UNL     1      18.719   0.091  51.229  1.00  0.00     0.001 A 
HETATM   17  C17 UNL     1      17.999  -0.647  52.174  1.00  0.00     0.000 A 
HETATM   18  C18 UNL     1      18.654  -1.060  53.332  1.00  0.00     0.001 A 
HETATM   19  C19 UNL     1      19.974  -0.709  53.461  1.00  0.00     0.012 A 
ENDBRANCH  12  14
ENDBRANCH  10  11
ENDBRANCH   8  10
BRANCH   1  20
HETATM   20  C3  UNL     1      26.859   1.487  51.491  1.00  0.00     0.006 C 
BRANCH  20  21
HETATM   21  C2  UNL     1      25.964   2.577  51.028  1.00  0.00     0.002 C 
HETATM   22  C1  UNL     1      26.499   3.308  49.832  1.00  0.00     0.005 C 
ENDBRANCH  20  21
ENDBRANCH   1  20
TORSDOF 5
ENDMDL
MODEL 4
REMARK VINA RESULT:      -7.4      2.962      6.562
REMARK  5 active torsions:
REMARK  status: ('A' for Active; 'I' for Inactive)
REMARK    1  A    between atoms: C2_2  and  C3_3 
REMARK    2  A    between atoms: C3_3  and  C4_4 
REMARK    3  A    between atoms: C9_11  and  C10_12 
REMARK    4  A    between atoms: C10_12  and  C11_13 
REMARK    5  A    between atoms: C12_14  and  C14_16 
ROOT
HETATM    1  C4  UNL     1      23.455   3.629  49.842  1.00  0.00     0.021 A 
HETATM    2  C5  UNL     1      22.127   2.980  49.452  1.00  0.00    -0.018 A 
HETATM    3  C6  UNL     1      22.482   2.864  50.721  1.00  0.00     0.083 A 
HETATM    4  C7  UNL     1      21.847   4.147  51.140  1.00  0.00     0.233 C 
HETATM    5  O1  UNL     1      21.204   5.243  51.316  1.00  0.00    -0.272 OA
HETATM    6  N1  UNL     1      22.690   3.733  52.178  1.00  0.00    -0.354 N 
HETATM    7  C8  UNL     1      23.769   3.277  51.283  1.00  0.00     0.112 A 
HETATM    8  C9  UNL     1      23.383   1.854  51.184  1.00  0.00     0.034 A 
HETATM    9  H8  UNL     1      22.641   3.748  53.277  1.00  0.00     0.162 HD
ENDROOT
BRANCH   8  10
HETATM   10  C10 UNL     1      24.450   1.497  51.719  1.00  0.00    -0.012 C 
BRANCH  10  11
HETATM   11  C11 UNL     1      25.699   0.966  52.111  1.00  0.00     0.004 C 
HETATM   12  C12 UNL     1      25.928  -0.030  52.911  1.00  0.00    -0.052 C 
HETATM   13  C13 UNL     1      24.824  -0.772  53.543  1.00  0.00     0.049 C 
BRANCH  12  14
HETATM   14  C14 UNL     1      27.329  -0.332  53.128  1.00  0.00    -0.030 A 
HETATM   15  C15 UNL     1      27.776  -1.629  53.054  1.00  0.00     0.012 A 
HETATM   16  C16 UNL     1      29.094  -1.989  53.260  1.00  0.00     0.001 A 
HETATM   17  C17 UNL     1      30.050  -1.013  53.561  1.00  0.00     0.000 A 
HETATM   18  C18 UNL     1      29.638   0.314  53.647  1.00  0.00     0.001 A 
HETATM   19  C19 UNL     1      28.309   0.571  53.424  1.00  0.00     0.012 A 
ENDBRANCH  12  14
ENDBRANCH  10  11
ENDBRANCH   8  10
BRANCH   1  20
HETATM   20  C3  UNL     1      24.312   4.425  49.068  1.00  0.00     0.006 C 
BRANCH  20  21
HETATM   21  C2  UNL     1      25.650   4.946  49.442  1.00  0.00     0.002 C 
HETATM   22  C1  UNL     1      26.728   3.903  49.371  1.00  0.00     0.005 C 
ENDBRANCH  20  21
ENDBRANCH   1  20
TORSDOF 5
ENDMDL
MODEL 5
REMARK VINA RESULT:      -7.2      3.260      7.469
REMARK  5 active torsions:
REMARK  status: ('A' for Active; 'I' for Inactive)
REMARK    1  A    between atoms: C2_2  and  C3_3 
REMARK    2  A    between atoms: C3_3  and  C4_4 
REMARK    3  A    between atoms: C9_11  and  C10_12 
REMARK    4  A    between atoms: C10_12  and  C11_13 
REMARK    5  A    between atoms: C12_14  and  C14_16 
ROOT
HETATM    1  C4  UNL     1      25.093   5.481  49.681  1.00  0.00     0.021 A 
HETATM    2  C5  UNL     1      24.217   6.315  48.746  1.00  0.00    -0.018 A 
HETATM    3  C6  UNL     1      23.895   6.347  50.029  1.00  0.00     0.083 A 
HETATM    4  C7  UNL     1      24.808   7.484  50.351  1.00  0.00     0.233 C 
HETATM    5  O1  UNL     1      25.604   8.486  50.422  1.00  0.00    -0.272 OA
HETATM    6  N1  UNL     1      24.403   6.909  51.561  1.00  0.00    -0.354 N 
HETATM    7  C8  UNL     1      24.498   5.521  51.075  1.00  0.00     0.112 A 
HETATM    8  C9  UNL     1      23.095   5.341  50.652  1.00  0.00     0.034 A 
HETATM    9  H8  UNL     1      24.132   7.294  52.557  1.00  0.00     0.162 HD
ENDROOT
BRANCH   8  10
HETATM   10  C10 UNL     1      22.928   4.434  51.489  1.00  0.00    -0.012 C 
BRANCH  10  11
HETATM   11  C11 UNL     1      22.698   3.259  52.239  1.00  0.00     0.004 C 
HETATM   12  C12 UNL     1      22.630   2.036  51.809  1.00  0.00    -0.052 C 
HETATM   13  C13 UNL     1      22.800   1.718  50.381  1.00  0.00     0.049 C 
BRANCH  12  14
HETATM   14  C14 UNL     1      22.369   1.040  52.829  1.00  0.00    -0.030 A 
HETATM   15  C15 UNL     1      21.125   0.947  53.403  1.00  0.00     0.012 A 
HETATM   16  C16 UNL     1      20.810   0.029  54.387  1.00  0.00     0.001 A 
HETATM   17  C17 UNL     1      21.781  -0.868  54.847  1.00  0.00     0.000 A 
HETATM   18  C18 UNL     1      23.056  -0.806  54.292  1.00  0.00     0.001 A 
HETATM   19  C19 UNL     1      23.270   0.139  53.320  1.00  0.00     0.012 A 
ENDBRANCH  12  14
ENDBRANCH  10  11
ENDBRANCH   8  10
BRANCH   1  20
HETATM   20  C3  UNL     1      26.260   4.760  49.391  1.00  0.00     0.006 C 
BRANCH  20  21
HETATM   21  C2  UNL     1      26.460   3.292  49.461  1.00  0.00     0.002 C 
HETATM   22  C1  UNL     1      26.524   2.774  50.869  1.00  0.00     0.005 C 
ENDBRANCH  20  21
ENDBRANCH   1  20
TORSDOF 5
ENDMDL
MODEL 6
REMARK VINA RESULT:      -7.1      1.490      2.274
REMARK  5 active torsions:
REMARK  status: ('A' for Active; 'I' for Inactive)
REMARK    1  A    between atoms: C2_2  and  C3_3 
REMARK    2  A    between atoms: C3_3  and  C4_4 
REMARK    3  A    between atoms: C9_11  and  C10_12 
REMARK    4  A    between atoms: C10_12  and  C11_13 
REMARK    5  A    between atoms: C12_14  and  C14_16 
ROOT
HETATM    1  C4  UNL     1      24.803   2.092  52.368  1.00  0.00     0.021 A 
HETATM    2  C5  UNL     1      25.039   0.590  52.206  1.00  0.00    -0.018 A 
HETATM    3  C6  UNL     1      26.097   1.367  52.041  1.00  0.00     0.083 A 
HETATM    4  C7  UNL     1      26.468   1.370  53.487  1.00  0.00     0.233 C 
HETATM    5  O1  UNL     1      26.653   1.215  54.746  1.00  0.00    -0.272 OA
HETATM    6  N1  UNL     1      27.195   2.388  52.859  1.00  0.00    -0.354 N 
HETATM    7  C8  UNL     1      26.077   2.829  52.006  1.00  0.00     0.112 A 
HETATM    8  C9  UNL     1      26.388   2.026  50.807  1.00  0.00     0.034 A 
HETATM    9  H8  UNL     1      28.218   2.787  52.949  1.00  0.00     0.162 HD
ENDROOT
BRANCH   8  10
HETATM   10  C10 UNL     1      26.566   3.055  50.127  1.00  0.00    -0.012 C 
BRANCH  10  11
HETATM   11  C11 UNL     1      27.010   4.160  49.367  1.00  0.00     0.004 C 
HETATM   12  C12 UNL     1      26.418   5.302  49.197  1.00  0.00    -0.052 C 
HETATM   13  C13 UNL     1      25.120   5.593  49.830  1.00  0.00     0.049 C 
BRANCH  12  14
HETATM   14  C14 UNL     1      27.125   6.239  48.345  1.00  0.00    -0.030 A 
HETATM   15  C15 UNL     1      26.445   7.257  47.724  1.00  0.00     0.012 A 
HETATM   16  C16 UNL     1      27.053   8.178  46.892  1.00  0.00     0.001 A 
HETATM   17  C17 UNL     1      28.428   8.101  46.645  1.00  0.00     0.000 A 
HETATM   18  C18 UNL     1      29.155   7.082  47.254  1.00  0.00     0.001 A 
HETATM   19  C19 UNL     1      28.461   6.218  48.065  1.00  0.00     0.012 A 
ENDBRANCH  12  14
ENDBRANCH  10  11
ENDBRANCH   8  10
BRANCH   1  20
HETATM   20  C3  UNL     1      23.642   2.767  52.770  1.00  0.00     0.006 C 
BRANCH  20  21
HETATM   21  C2  UNL     1      23.400   4.230  52.775  1.00  0.00     0.002 C 
HETATM   22  C1  UNL     1      22.040   4.603  52.258  1.00  0.00     0.005 C 
ENDBRANCH  20  21
ENDBRANCH   1  20
TORSDOF 5
ENDMDL
MODEL 7
REMARK VINA RESULT:      -7.1      3.983      6.642
REMARK  5 active torsions:
REMARK  status: ('A' for Active; 'I' for Inactive)
REMARK    1  A    between atoms: C2_2  and  C3_3 
REMARK    2  A    between atoms: C3_3  and  C4_4 
REMARK    3  A    between atoms: C9_11  and  C10_12 
REMARK    4  A    between atoms: C10_12  and  C11_13 
REMARK    5  A    between atoms: C12_14  and  C14_16 
ROOT
HETATM    1  C4  UNL     1      22.194   4.572  50.243  1.00  0.00     0.021 A 
HETATM    2  C5  UNL     1      20.847   4.884  50.895  1.00  0.00    -0.018 A 
HETATM    3  C6  UNL     1      21.922   5.188  51.604  1.00  0.00     0.083 A 
HETATM    4  C7  UNL     1      22.068   6.554  51.017  1.00  0.00     0.233 C 
HETATM    5  O1  UNL     1      22.000   7.697  50.442  1.00  0.00    -0.272 OA
HETATM    6  N1  UNL     1      23.257   6.252  51.692  1.00  0.00    -0.354 N 
HETATM    7  C8  UNL     1      23.298   4.848  51.243  1.00  0.00     0.112 A 
HETATM    8  C9  UNL     1      22.621   4.230  52.400  1.00  0.00     0.034 A 
HETATM    9  H8  UNL     1      23.966   6.818  52.315  1.00  0.00     0.162 HD
ENDROOT
BRANCH   8  10
HETATM   10  C10 UNL     1      23.641   3.574  52.685  1.00  0.00    -0.012 C 
BRANCH  10  11
HETATM   11  C11 UNL     1      24.695   2.650  52.866  1.00  0.00     0.004 C 
HETATM   12  C12 UNL     1      24.621   1.356  52.932  1.00  0.00    -0.052 C 
HETATM   13  C13 UNL     1      23.330   0.657  52.814  1.00  0.00     0.049 C 
BRANCH  12  14
HETATM   14  C14 UNL     1      25.886   0.679  53.135  1.00  0.00    -0.030 A 
HETATM   15  C15 UNL     1      26.899   1.299  53.826  1.00  0.00     0.012 A 
HETATM   16  C16 UNL     1      28.132   0.717  54.048  1.00  0.00     0.001 A 
HETATM   17  C17 UNL     1      28.401  -0.567  53.561  1.00  0.00     0.000 A 
HETATM   18  C18 UNL     1      27.401  -1.231  52.855  1.00  0.00     0.001 A 
HETATM   19  C19 UNL     1      26.210  -0.569  52.688  1.00  0.00     0.012 A 
ENDBRANCH  12  14
ENDBRANCH  10  11
ENDBRANCH   8  10
BRANCH   1  20
HETATM   20  C3  UNL     1      22.462   4.100  48.950  1.00  0.00     0.006 C 
BRANCH  20  21
HETATM   21  C2  UNL     1      22.842   2.723  48.548  1.00  0.00     0.002 C 
HETATM   22  C1  UNL     1      22.185   1.665  49.386  1.00  0.00     0.005 C 
ENDBRANCH  20  21
ENDBRANCH   1  20
TORSDOF 5
ENDMDL
MODEL 8
REMARK VINA RESULT:      -6.7      1.984      3.214
REMARK  5 active torsions:
REMARK  status: ('A' for Active; 'I' for Inactive)
REMARK    1  A    between atoms: C2_2  and  C3_3 
REMARK    2  A    between atoms: C3_3  and  C4_4 
REMARK    3  A    between atoms: C9_11  and  C10_12 
REMARK    4  A    between atoms: C10_12  and  C11_13 
REMARK    5  A    between atoms: C12_14  and  C14_16 
ROOT
HETATM    1  C4  UNL     1      24.642  -0.081  53.212  1.00  0.00     0.021 A 
HETATM    2  C5  UNL     1      23.862   0.096  54.515  1.00  0.00    -0.018 A 
HETATM    3  C6  UNL     1      23.341   0.666  53.441  1.00  0.00     0.083 A 
HETATM    4  C7  UNL     1      22.570  -0.543  53.027  1.00  0.00     0.233 C 
HETATM    5  O1  UNL     1      21.950  -1.653  52.862  1.00  0.00    -0.272 OA
HETATM    6  N1  UNL     1      22.577   0.346  51.946  1.00  0.00    -0.354 N 
HETATM    7  C8  UNL     1      23.983   0.750  52.129  1.00  0.00     0.112 A 
HETATM    8  C9  UNL     1      23.759   1.947  52.965  1.00  0.00     0.034 A 
HETATM    9  H8  UNL     1      21.846   0.652  51.181  1.00  0.00     0.162 HD
ENDROOT
BRANCH   8  10
HETATM   10  C10 UNL     1      24.255   2.685  52.092  1.00  0.00    -0.012 C 
BRANCH  10  11
HETATM   11  C11 UNL     1      25.031   3.494  51.232  1.00  0.00     0.004 C 
HETATM   12  C12 UNL     1      24.821   3.760  49.980  1.00  0.00    -0.052 C 
HETATM   13  C13 UNL     1      23.660   3.203  49.264  1.00  0.00     0.049 C 
BRANCH  12  14
HETATM   14  C14 UNL     1      25.809   4.621  49.361  1.00  0.00    -0.030 A 
HETATM   15  C15 UNL     1      25.471   5.895  48.974  1.00  0.00     0.012 A 
HETATM   16  C16 UNL     1      26.359   6.765  48.370  1.00  0.00     0.001 A 
HETATM   17  C17 UNL     1      27.677   6.365  48.124  1.00  0.00     0.000 A 
HETATM   18  C18 UNL     1      28.061   5.080  48.500  1.00  0.00     0.001 A 
HETATM   19  C19 UNL     1      27.107   4.292  49.094  1.00  0.00     0.012 A 
ENDBRANCH  12  14
ENDBRANCH  10  11
ENDBRANCH   8  10
BRANCH   1  20
HETATM   20  C3  UNL     1      25.788  -0.852  52.964  1.00  0.00     0.006 C 
BRANCH  20  21
HETATM   21  C2  UNL     1      27.088  -0.393  52.417  1.00  0.00     0.002 C 
HETATM   22  C1  UNL     1      28.261  -0.833  53.244  1.00  0.00     0.005 C 
ENDBRANCH  20  21
ENDBRANCH   1  20
TORSDOF 5
ENDMDL
MODEL 9
REMARK VINA RESULT:      -6.7      3.230      7.573
REMARK  5 active torsions:
REMARK  status: ('A' for Active; 'I' for Inactive)
REMARK    1  A    between atoms: C2_2  and  C3_3 
REMARK    2  A    between atoms: C3_3  and  C4_4 
REMARK    3  A    between atoms: C9_11  and  C10_12 
REMARK    4  A    between atoms: C10_12  and  C11_13 
REMARK    5  A    between atoms: C12_14  and  C14_16 
ROOT
HETATM    1  C4  UNL     1      26.775   6.050  48.692  1.00  0.00     0.021 A 
HETATM    2  C5  UNL     1      25.957   7.079  47.912  1.00  0.00    -0.018 A 
HETATM    3  C6  UNL     1      25.518   6.783  49.125  1.00  0.00     0.083 A 
HETATM    4  C7  UNL     1      26.352   7.815  49.808  1.00  0.00     0.233 C 
HETATM    5  O1  UNL     1      27.099   8.779  50.205  1.00  0.00    -0.272 OA
HETATM    6  N1  UNL     1      25.860   6.948  50.791  1.00  0.00    -0.354 N 
HETATM    7  C8  UNL     1      26.054   5.729  49.986  1.00  0.00     0.112 A 
HETATM    8  C9  UNL     1      24.703   5.641  49.395  1.00  0.00     0.034 A 
HETATM    9  H8  UNL     1      25.484   7.066  51.819  1.00  0.00     0.162 HD
ENDROOT
BRANCH   8  10
HETATM   10  C10 UNL     1      24.495   4.550  49.960  1.00  0.00    -0.012 C 
BRANCH  10  11
HETATM   11  C11 UNL     1      24.038   3.414  50.665  1.00  0.00     0.004 C 
HETATM   12  C12 UNL     1      23.173   2.527  50.277  1.00  0.00    -0.052 C 
HETATM   13  C13 UNL     1      22.526   2.617  48.957  1.00  0.00     0.049 C 
BRANCH  12  14
HETATM   14  C14 UNL     1      22.901   1.475  51.236  1.00  0.00    -0.030 A 
HETATM   15  C15 UNL     1      23.834   1.151  52.190  1.00  0.00     0.012 A 
HETATM   16  C16 UNL     1      23.645   0.153  53.128  1.00  0.00     0.001 A 
HETATM   17  C17 UNL     1      22.457  -0.585  53.138  1.00  0.00     0.000 A 
HETATM   18  C18 UNL     1      21.485  -0.289  52.186  1.00  0.00     0.001 A 
HETATM   19  C19 UNL     1      21.766   0.719  51.299  1.00  0.00     0.012 A 
ENDBRANCH  12  14
ENDBRANCH  10  11
ENDBRANCH   8  10
BRANCH   1  20
HETATM   20  C3  UNL     1      27.991   5.442  48.348  1.00  0.00     0.006 C 
BRANCH  20  21
HETATM   21  C2  UNL     1      29.350   6.034  48.407  1.00  0.00     0.002 C 
HETATM   22  C1  UNL     1      29.540   7.167  47.441  1.00  0.00     0.005 C 
ENDBRANCH  20  21
ENDBRANCH   1  20
TORSDOF 5
ENDMDL
