MODEL 1
REMARK VINA RESULT:      -7.8      0.000      0.000
REMARK  6 active torsions:
REMARK  status: ('A' for Active; 'I' for Inactive)
REMARK    1  A    between atoms: C4_6  and  C5_7 
REMARK    2  A    between atoms: C5_7  and  N3_8 
REMARK    3  A    between atoms: C8_11  and  N4_12 
REMARK    4  A    between atoms: C11_15  and  C12_16 
REMARK    5  A    between atoms: C12_16  and  N5_17 
REMARK    6  A    between atoms: N5_17  and  C13_18 
ROOT
HETATM    1  N1  UNL     1      22.286  -1.744  55.332  1.00  0.00    -0.171 NA
HETATM    2  C1  UNL     1      22.361  -1.069  54.395  1.00  0.00     0.189 C 
HETATM    3  N2  UNL     1      22.467  -0.267  53.250  1.00  0.00    -0.262 N 
HETATM    4  C2  UNL     1      21.462  -0.107  52.374  1.00  0.00     0.109 A 
HETATM    5  C3  UNL     1      21.934   0.746  51.434  1.00  0.00     0.029 A 
HETATM    6  C4  UNL     1      23.253   1.148  51.692  1.00  0.00    -0.014 A 
HETATM    7  C11 UNL     1      23.547   0.475  52.858  1.00  0.00     0.052 A 
ENDROOT
BRANCH   7   8
HETATM    8  C12 UNL     1      24.877   0.583  53.533  1.00  0.00     0.178 C 
BRANCH   8   9
HETATM    9  N5  UNL     1      25.783  -0.411  53.022  1.00  0.00    -0.384 N 
HETATM   10  H18 UNL     1      25.275  -1.066  52.345  1.00  0.00     0.160 HD
BRANCH   9  11
HETATM   11  C13 UNL     1      27.144  -0.749  53.176  1.00  0.00     0.028 A 
HETATM   12  C14 UNL     1      27.678  -1.989  52.916  1.00  0.00     0.029 A 
HETATM   13  C15 UNL     1      28.997  -2.346  53.055  1.00  0.00     0.002 A 
HETATM   14  C16 UNL     1      29.858  -1.376  53.494  1.00  0.00     0.000 A 
HETATM   15  C17 UNL     1      29.393  -0.113  53.774  1.00  0.00     0.002 A 
HETATM   16  C18 UNL     1      28.064   0.174  53.613  1.00  0.00     0.029 A 
ENDBRANCH   9  11
ENDBRANCH   8   9
ENDBRANCH   7   8
BRANCH   6  17
HETATM   17  C5  UNL     1      23.915   2.100  50.819  1.00  0.00     0.157 C 
BRANCH  17  18
HETATM   18  N3  UNL     1      23.578   3.457  50.863  1.00  0.00    -0.408 N 
HETATM   19  C6  UNL     1      23.480   4.158  52.068  1.00  0.00     0.119 C 
HETATM   20  C7  UNL     1      22.813   5.523  51.912  1.00  0.00     0.055 C 
HETATM   21  C8  UNL     1      23.556   6.354  50.932  1.00  0.00     0.221 C 
HETATM   22  C9  UNL     1      24.606   5.515  50.212  1.00  0.00     0.055 C 
HETATM   23  C10 UNL     1      24.018   4.225  49.724  1.00  0.00     0.119 C 
BRANCH  21  24
HETATM   24  N4  UNL     1      24.230   7.434  51.593  1.00  0.00     0.083 N 
HETATM   25  H10 UNL     1      24.915   7.951  50.987  1.00  0.00     0.313 HD
HETATM   26  H11 UNL     1      24.657   7.166  52.511  1.00  0.00     0.313 HD
ENDBRANCH  21  24
ENDBRANCH  17  18
ENDBRANCH   6  17
TORSDOF 6
ENDMDL
MODEL 2
REMARK VINA RESULT:      -7.8      1.869      5.255
REMARK  6 active torsions:
REMARK  status: ('A' for Active; 'I' for Inactive)
REMARK    1  A    between atoms: C4_6  and  C5_7 
REMARK    2  A    between atoms: C5_7  and  N3_8 
REMARK    3  A    between atoms: C8_11  and  N4_12 
REMARK    4  A    between atoms: C11_15  and  C12_16 
REMARK    5  A    between atoms: C12_16  and  N5_17 
REMARK    6  A    between atoms: N5_17  and  C13_18 
ROOT
HETATM    1  N1  UNL     1      29.387  -2.722  53.445  1.00  0.00    -0.171 NA
HETATM    2  C1  UNL     1      28.994  -1.635  53.472  1.00  0.00     0.189 C 
HETATM    3  N2  UNL     1      28.503  -0.323  53.524  1.00  0.00    -0.262 N 
HETATM    4  C2  UNL     1      29.268   0.730  53.858  1.00  0.00     0.109 A 
HETATM    5  C3  UNL     1      28.453   1.810  53.770  1.00  0.00     0.029 A 
HETATM    6  C4  UNL     1      27.152   1.467  53.377  1.00  0.00    -0.014 A 
HETATM    7  C11 UNL     1      27.234   0.098  53.234  1.00  0.00     0.052 A 
ENDROOT
BRANCH   7   8
HETATM    8  C12 UNL     1      26.064  -0.739  52.828  1.00  0.00     0.178 C 
BRANCH   8   9
HETATM    9  N5  UNL     1      25.008  -0.634  53.800  1.00  0.00    -0.384 N 
HETATM   10  H18 UNL     1      25.410  -0.664  54.792  1.00  0.00     0.160 HD
BRANCH   9  11
HETATM   11  C13 UNL     1      23.604  -0.506  53.793  1.00  0.00     0.028 A 
HETATM   12  C14 UNL     1      22.887   0.222  52.873  1.00  0.00     0.029 A 
HETATM   13  C15 UNL     1      21.522   0.365  52.840  1.00  0.00     0.002 A 
HETATM   14  C16 UNL     1      20.809  -0.279  53.817  1.00  0.00     0.000 A 
HETATM   15  C17 UNL     1      21.460  -1.026  54.770  1.00  0.00     0.002 A 
HETATM   16  C18 UNL     1      22.825  -1.124  54.742  1.00  0.00     0.029 A 
ENDBRANCH   9  11
ENDBRANCH   8   9
ENDBRANCH   7   8
BRANCH   6  17
HETATM   17  C5  UNL     1      26.147   2.496  53.182  1.00  0.00     0.157 C 
BRANCH  17  18
HETATM   18  N3  UNL     1      25.530   2.657  51.937  1.00  0.00    -0.408 N 
HETATM   19  C6  UNL     1      24.278   3.263  51.802  1.00  0.00     0.119 C 
HETATM   20  C7  UNL     1      23.664   3.064  50.419  1.00  0.00     0.055 C 
HETATM   21  C8  UNL     1      24.569   3.595  49.369  1.00  0.00     0.221 C 
HETATM   22  C9  UNL     1      25.924   3.955  49.968  1.00  0.00     0.055 C 
HETATM   23  C10 UNL     1      26.439   2.845  50.833  1.00  0.00     0.119 C 
BRANCH  21  24
HETATM   24  N4  UNL     1      24.018   4.780  48.777  1.00  0.00     0.083 N 
HETATM   25  H10 UNL     1      23.089   5.069  49.174  1.00  0.00     0.313 HD
HETATM   26  H11 UNL     1      23.996   4.758  47.731  1.00  0.00     0.313 HD
ENDBRANCH  21  24
ENDBRANCH  17  18
ENDBRANCH   6  17
TORSDOF 6
ENDMDL
MODEL 3
REMARK VINA RESULT:      -7.8      1.699      5.489
REMARK  6 active torsions:
REMARK  status: ('A' for Active; 'I' for Inactive)
REMARK    1  A    between atoms: C4_6  and  C5_7 
REMARK    2  A    between atoms: C5_7  and  N3_8 
REMARK    3  A    between atoms: C8_11  and  N4_12 
REMARK    4  A    between atoms: C11_15  and  C12_16 
REMARK    5  A    between atoms: C12_16  and  N5_17 
REMARK    6  A    between atoms: N5_17  and  C13_18 
ROOT
HETATM    1  N1  UNL     1      25.766   7.527  50.266  1.00  0.00    -0.171 NA
HETATM    2  C1  UNL     1      25.094   6.624  50.531  1.00  0.00     0.189 C 
HETATM    3  N2  UNL     1      24.294   5.524  50.870  1.00  0.00    -0.262 N 
HETATM    4  C2  UNL     1      23.054   5.650  51.371  1.00  0.00     0.109 A 
HETATM    5  C3  UNL     1      22.603   4.383  51.542  1.00  0.00     0.029 A 
HETATM    6  C4  UNL     1      23.548   3.423  51.152  1.00  0.00    -0.014 A 
HETATM    7  C11 UNL     1      24.607   4.199  50.733  1.00  0.00     0.052 A 
ENDROOT
BRANCH   7   8
HETATM    8  C12 UNL     1      25.883   3.610  50.224  1.00  0.00     0.178 C 
BRANCH   8   9
HETATM    9  N5  UNL     1      26.711   3.178  51.319  1.00  0.00    -0.384 N 
HETATM   10  H18 UNL     1      27.345   3.977  51.645  1.00  0.00     0.160 HD
BRANCH   9  11
HETATM   11  C13 UNL     1      26.907   1.998  52.066  1.00  0.00     0.028 A 
HETATM   12  C14 UNL     1      26.667   0.727  51.601  1.00  0.00     0.029 A 
HETATM   13  C15 UNL     1      26.849  -0.439  52.303  1.00  0.00     0.002 A 
HETATM   14  C16 UNL     1      27.313  -0.322  53.587  1.00  0.00     0.000 A 
HETATM   15  C17 UNL     1      27.573   0.919  54.117  1.00  0.00     0.002 A 
HETATM   16  C18 UNL     1      27.369   2.040  53.360  1.00  0.00     0.029 A 
ENDBRANCH   9  11
ENDBRANCH   8   9
ENDBRANCH   7   8
BRANCH   6  17
HETATM   17  C5  UNL     1      23.229   2.009  51.218  1.00  0.00     0.157 C 
BRANCH  17  18
HETATM   18  N3  UNL     1      22.596   1.476  52.345  1.00  0.00    -0.408 N 
HETATM   19  C6  UNL     1      21.277   1.015  52.307  1.00  0.00     0.119 C 
HETATM   20  C7  UNL     1      20.692   0.763  53.695  1.00  0.00     0.055 C 
HETATM   21  C8  UNL     1      21.523  -0.218  54.437  1.00  0.00     0.221 C 
HETATM   22  C9  UNL     1      22.822  -0.490  53.687  1.00  0.00     0.055 C 
HETATM   23  C10 UNL     1      23.473   0.791  53.263  1.00  0.00     0.119 C 
BRANCH  21  24
HETATM   24  N4  UNL     1      20.826  -1.464  54.581  1.00  0.00     0.083 N 
HETATM   25  H10 UNL     1      21.426  -2.258  54.917  1.00  0.00     0.313 HD
HETATM   26  H11 UNL     1      20.269  -1.736  53.737  1.00  0.00     0.313 HD
ENDBRANCH  21  24
ENDBRANCH  17  18
ENDBRANCH   6  17
TORSDOF 6
ENDMDL
MODEL 4
REMARK VINA RESULT:      -7.6      2.043      6.648
REMARK  6 active torsions:
REMARK  status: ('A' for Active; 'I' for Inactive)
REMARK    1  A    between atoms: C4_6  and  C5_7 
REMARK    2  A    between atoms: C5_7  and  N3_8 
REMARK    3  A    between atoms: C8_11  and  N4_12 
REMARK    4  A    between atoms: C11_15  and  C12_16 
REMARK    5  A    between atoms: C12_16  and  N5_17 
REMARK    6  A    between atoms: N5_17  and  C13_18 
ROOT
HETATM    1  N1  UNL     1      22.584   4.100  48.605  1.00  0.00    -0.171 NA
HETATM    2  C1  UNL     1      23.546   3.791  49.166  1.00  0.00     0.189 C 
HETATM    3  N2  UNL     1      24.707   3.394  49.844  1.00  0.00    -0.262 N 
HETATM    4  C2  UNL     1      25.936   3.492  49.309  1.00  0.00     0.109 A 
HETATM    5  C3  UNL     1      26.783   3.040  50.266  1.00  0.00     0.029 A 
HETATM    6  C4  UNL     1      26.111   2.644  51.431  1.00  0.00    -0.014 A 
HETATM    7  C11 UNL     1      24.792   2.887  51.112  1.00  0.00     0.052 A 
ENDROOT
BRANCH   7   8
HETATM    8  C12 UNL     1      23.671   2.607  52.061  1.00  0.00     0.178 C 
BRANCH   8   9
HETATM    9  N5  UNL     1      23.381   1.198  52.094  1.00  0.00    -0.384 N 
HETATM   10  H18 UNL     1      23.826   0.705  51.255  1.00  0.00     0.160 HD
BRANCH   9  11
HETATM   11  C13 UNL     1      22.674   0.305  52.927  1.00  0.00     0.028 A 
HETATM   12  C14 UNL     1      21.324   0.058  52.843  1.00  0.00     0.029 A 
HETATM   13  C15 UNL     1      20.608  -0.804  53.638  1.00  0.00     0.002 A 
HETATM   14  C16 UNL     1      21.307  -1.479  54.603  1.00  0.00     0.000 A 
HETATM   15  C17 UNL     1      22.660  -1.281  54.744  1.00  0.00     0.002 A 
HETATM   16  C18 UNL     1      23.310  -0.405  53.917  1.00  0.00     0.029 A 
ENDBRANCH   9  11
ENDBRANCH   8   9
ENDBRANCH   7   8
BRANCH   6  17
HETATM   17  C5  UNL     1      26.854   2.175  52.586  1.00  0.00     0.157 C 
BRANCH  17  18
HETATM   18  N3  UNL     1      26.887   0.813  52.902  1.00  0.00    -0.408 N 
HETATM   19  C6  UNL     1      26.777  -0.179  51.923  1.00  0.00     0.119 C 
HETATM   20  C7  UNL     1      26.533  -1.569  52.507  1.00  0.00     0.055 C 
HETATM   21  C8  UNL     1      27.625  -1.937  53.442  1.00  0.00     0.221 C 
HETATM   22  C9  UNL     1      28.521  -0.734  53.714  1.00  0.00     0.055 C 
HETATM   23  C10 UNL     1      27.703   0.478  54.044  1.00  0.00     0.119 C 
BRANCH  21  24
HETATM   24  N4  UNL     1      28.440  -2.978  52.883  1.00  0.00     0.083 N 
HETATM   25  H10 UNL     1      28.937  -3.567  53.597  1.00  0.00     0.313 HD
HETATM   26  H11 UNL     1      29.097  -2.645  52.138  1.00  0.00     0.313 HD
ENDBRANCH  21  24
ENDBRANCH  17  18
ENDBRANCH   6  17
TORSDOF 6
ENDMDL
MODEL 5
REMARK VINA RESULT:      -7.6      2.094      6.183
REMARK  6 active torsions:
REMARK  status: ('A' for Active; 'I' for Inactive)
REMARK    1  A    between atoms: C4_6  and  C5_7 
REMARK    2  A    between atoms: C5_7  and  N3_8 
REMARK    3  A    between atoms: C8_11  and  N4_12 
REMARK    4  A    between atoms: C11_15  and  C12_16 
REMARK    5  A    between atoms: C12_16  and  N5_17 
REMARK    6  A    between atoms: N5_17  and  C13_18 
ROOT
HETATM    1  N1  UNL     1      20.124   1.320  49.347  1.00  0.00    -0.171 NA
HETATM    2  C1  UNL     1      20.913   1.261  50.190  1.00  0.00     0.189 C 
HETATM    3  N2  UNL     1      21.858   1.206  51.224  1.00  0.00    -0.262 N 
HETATM    4  C2  UNL     1      21.958   0.166  52.068  1.00  0.00     0.109 A 
HETATM    5  C3  UNL     1      22.989   0.469  52.895  1.00  0.00     0.029 A 
HETATM    6  C4  UNL     1      23.567   1.711  52.593  1.00  0.00    -0.014 A 
HETATM    7  C11 UNL     1      22.812   2.140  51.523  1.00  0.00     0.052 A 
ENDROOT
BRANCH   7   8
HETATM    8  C12 UNL     1      23.052   3.451  50.845  1.00  0.00     0.178 C 
BRANCH   8   9
HETATM    9  N5  UNL     1      24.162   3.351  49.934  1.00  0.00    -0.384 N 
HETATM   10  H18 UNL     1      24.219   2.363  49.524  1.00  0.00     0.160 HD
BRANCH   9  11
HETATM   11  C13 UNL     1      25.180   4.195  49.447  1.00  0.00     0.028 A 
HETATM   12  C14 UNL     1      24.984   5.479  48.995  1.00  0.00     0.029 A 
HETATM   13  C15 UNL     1      25.955   6.325  48.516  1.00  0.00     0.002 A 
HETATM   14  C16 UNL     1      27.236   5.842  48.486  1.00  0.00     0.000 A 
HETATM   15  C17 UNL     1      27.505   4.566  48.922  1.00  0.00     0.002 A 
HETATM   16  C18 UNL     1      26.488   3.777  49.387  1.00  0.00     0.029 A 
ENDBRANCH   9  11
ENDBRANCH   8   9
ENDBRANCH   7   8
BRANCH   6  17
HETATM   17  C5  UNL     1      24.717   2.187  53.340  1.00  0.00     0.157 C 
BRANCH  17  18
HETATM   18  N3  UNL     1      25.916   1.468  53.330  1.00  0.00    -0.408 N 
HETATM   19  C6  UNL     1      26.341   0.718  54.430  1.00  0.00     0.119 C 
HETATM   20  C7  UNL     1      27.797   0.270  54.322  1.00  0.00     0.055 C 
HETATM   21  C8  UNL     1      28.002  -0.529  53.087  1.00  0.00     0.221 C 
HETATM   22  C9  UNL     1      26.768  -0.457  52.196  1.00  0.00     0.055 C 
HETATM   23  C10 UNL     1      26.304   0.960  52.037  1.00  0.00     0.119 C 
BRANCH  21  24
HETATM   24  N4  UNL     1      28.236  -1.907  53.410  1.00  0.00     0.083 N 
HETATM   25  H10 UNL     1      28.152  -2.562  52.593  1.00  0.00     0.313 HD
HETATM   26  H11 UNL     1      27.682  -2.247  54.231  1.00  0.00     0.313 HD
ENDBRANCH  21  24
ENDBRANCH  17  18
ENDBRANCH   6  17
TORSDOF 6
ENDMDL
MODEL 6
REMARK VINA RESULT:      -7.6      1.449      1.866
REMARK  6 active torsions:
REMARK  status: ('A' for Active; 'I' for Inactive)
REMARK    1  A    between atoms: C4_6  and  C5_7 
REMARK    2  A    between atoms: C5_7  and  N3_8 
REMARK    3  A    between atoms: C8_11  and  N4_12 
REMARK    4  A    between atoms: C11_15  and  C12_16 
REMARK    5  A    between atoms: C12_16  and  N5_17 
REMARK    6  A    between atoms: N5_17  and  C13_18 
ROOT
HETATM    1  N1  UNL     1      25.056  -1.282  55.596  1.00  0.00    -0.171 NA
HETATM    2  C1  UNL     1      24.481  -0.745  54.749  1.00  0.00     0.189 C 
HETATM    3  N2  UNL     1      23.800  -0.100  53.707  1.00  0.00    -0.262 N 
HETATM    4  C2  UNL     1      22.638  -0.549  53.205  1.00  0.00     0.109 A 
HETATM    5  C3  UNL     1      22.289   0.344  52.247  1.00  0.00     0.029 A 
HETATM    6  C4  UNL     1      23.223   1.383  52.119  1.00  0.00    -0.014 A 
HETATM    7  C11 UNL     1      24.166   1.054  53.070  1.00  0.00     0.052 A 
ENDROOT
BRANCH   7   8
HETATM    8  C12 UNL     1      25.389   1.881  53.307  1.00  0.00     0.178 C 
BRANCH   8   9
HETATM    9  N5  UNL     1      26.523   1.307  52.633  1.00  0.00    -0.384 N 
HETATM   10  H18 UNL     1      26.545   1.617  51.608  1.00  0.00     0.160 HD
BRANCH   9  11
HETATM   11  C13 UNL     1      27.599   0.454  52.959  1.00  0.00     0.028 A 
HETATM   12  C14 UNL     1      27.580  -0.915  52.832  1.00  0.00     0.029 A 
HETATM   13  C15 UNL     1      28.610  -1.770  53.140  1.00  0.00     0.002 A 
HETATM   14  C16 UNL     1      29.762  -1.203  53.618  1.00  0.00     0.000 A 
HETATM   15  C17 UNL     1      29.851   0.160  53.770  1.00  0.00     0.002 A 
HETATM   16  C18 UNL     1      28.784   0.953  53.444  1.00  0.00     0.029 A 
ENDBRANCH   9  11
ENDBRANCH   8   9
ENDBRANCH   7   8
BRANCH   6  17
HETATM   17  C5  UNL     1      22.998   2.462  51.176  1.00  0.00     0.157 C 
BRANCH  17  18
HETATM   18  N3  UNL     1      24.043   3.321  50.819  1.00  0.00    -0.408 N 
HETATM   19  C6  UNL     1      24.718   3.201  49.601  1.00  0.00     0.119 C 
HETATM   20  C7  UNL     1      26.001   4.028  49.546  1.00  0.00     0.055 C 
HETATM   21  C8  UNL     1      25.704   5.461  49.792  1.00  0.00     0.221 C 
HETATM   22  C9  UNL     1      24.262   5.634  50.255  1.00  0.00     0.055 C 
HETATM   23  C10 UNL     1      23.930   4.660  51.344  1.00  0.00     0.119 C 
BRANCH  21  24
HETATM   24  N4  UNL     1      25.878   6.227  48.591  1.00  0.00     0.083 N 
HETATM   25  H10 UNL     1      25.085   6.882  48.378  1.00  0.00     0.313 HD
HETATM   26  H11 UNL     1      26.131   5.648  47.755  1.00  0.00     0.313 HD
ENDBRANCH  21  24
ENDBRANCH  17  18
ENDBRANCH   6  17
TORSDOF 6
ENDMDL
MODEL 7
REMARK VINA RESULT:      -7.5      2.182      6.370
REMARK  6 active torsions:
REMARK  status: ('A' for Active; 'I' for Inactive)
REMARK    1  A    between atoms: C4_6  and  C5_7 
REMARK    2  A    between atoms: C5_7  and  N3_8 
REMARK    3  A    between atoms: C8_11  and  N4_12 
REMARK    4  A    between atoms: C11_15  and  C12_16 
REMARK    5  A    between atoms: C12_16  and  N5_17 
REMARK    6  A    between atoms: N5_17  and  C13_18 
ROOT
HETATM    1  N1  UNL     1      19.738   3.564  52.291  1.00  0.00    -0.171 NA
HETATM    2  C1  UNL     1      20.769   3.041  52.327  1.00  0.00     0.189 C 
HETATM    3  N2  UNL     1      22.025   2.421  52.389  1.00  0.00    -0.262 N 
HETATM    4  C2  UNL     1      22.201   1.170  52.844  1.00  0.00     0.109 A 
HETATM    5  C3  UNL     1      23.529   0.925  52.724  1.00  0.00     0.029 A 
HETATM    6  C4  UNL     1      24.226   2.018  52.188  1.00  0.00    -0.014 A 
HETATM    7  C11 UNL     1      23.225   2.945  51.993  1.00  0.00     0.052 A 
ENDROOT
BRANCH   7   8
HETATM    8  C12 UNL     1      23.489   4.306  51.435  1.00  0.00     0.178 C 
BRANCH   8   9
HETATM    9  N5  UNL     1      24.224   4.211  50.201  1.00  0.00    -0.384 N 
HETATM   10  H18 UNL     1      23.804   3.451  49.574  1.00  0.00     0.160 HD
BRANCH   9  11
HETATM   11  C13 UNL     1      25.336   4.842  49.606  1.00  0.00     0.028 A 
HETATM   12  C14 UNL     1      26.502   4.205  49.252  1.00  0.00     0.029 A 
HETATM   13  C15 UNL     1      27.600   4.792  48.671  1.00  0.00     0.002 A 
HETATM   14  C16 UNL     1      27.524   6.137  48.424  1.00  0.00     0.000 A 
HETATM   15  C17 UNL     1      26.388   6.838  48.754  1.00  0.00     0.002 A 
HETATM   16  C18 UNL     1      25.331   6.189  49.331  1.00  0.00     0.029 A 
ENDBRANCH   9  11
ENDBRANCH   8   9
ENDBRANCH   7   8
BRANCH   6  17
HETATM   17  C5  UNL     1      25.654   1.928  51.940  1.00  0.00     0.157 C 
BRANCH  17  18
HETATM   18  N3  UNL     1      26.454   1.074  52.705  1.00  0.00    -0.408 N 
HETATM   19  C6  UNL     1      26.943  -0.134  52.201  1.00  0.00     0.119 C 
HETATM   20  C7  UNL     1      27.528  -1.039  53.283  1.00  0.00     0.055 C 
HETATM   21  C8  UNL     1      28.622  -0.342  54.005  1.00  0.00     0.221 C 
HETATM   22  C9  UNL     1      28.666   1.130  53.611  1.00  0.00     0.055 C 
HETATM   23  C10 UNL     1      27.298   1.739  53.667  1.00  0.00     0.119 C 
BRANCH  21  24
HETATM   24  N4  UNL     1      29.893  -0.925  53.682  1.00  0.00     0.083 N 
HETATM   25  H10 UNL     1      30.165  -1.735  54.294  1.00  0.00     0.313 HD
HETATM   26  H11 UNL     1      30.669  -0.227  53.605  1.00  0.00     0.313 HD
ENDBRANCH  21  24
ENDBRANCH  17  18
ENDBRANCH   6  17
TORSDOF 6
ENDMDL
MODEL 8
REMARK VINA RESULT:      -7.4      1.876      2.618
REMARK  6 active torsions:
REMARK  status: ('A' for Active; 'I' for Inactive)
REMARK    1  A    between atoms: C4_6  and  C5_7 
REMARK    2  A    between atoms: C5_7  and  N3_8 
REMARK    3  A    between atoms: C8_11  and  N4_12 
REMARK    4  A    between atoms: C11_15  and  C12_16 
REMARK    5  A    between atoms: C12_16  and  N5_17 
REMARK    6  A    between atoms: N5_17  and  C13_18 
ROOT
HETATM    1  N1  UNL     1      23.414  -0.900  53.996  1.00  0.00    -0.171 NA
HETATM    2  C1  UNL     1      23.223   0.073  53.401  1.00  0.00     0.189 C 
HETATM    3  N2  UNL     1      23.009   1.247  52.665  1.00  0.00    -0.262 N 
HETATM    4  C2  UNL     1      21.907   1.455  51.925  1.00  0.00     0.109 A 
HETATM    5  C3  UNL     1      22.056   2.694  51.396  1.00  0.00     0.029 A 
HETATM    6  C4  UNL     1      23.257   3.302  51.789  1.00  0.00    -0.014 A 
HETATM    7  C11 UNL     1      23.829   2.340  52.595  1.00  0.00     0.052 A 
ENDROOT
BRANCH   7   8
HETATM    8  C12 UNL     1      25.156   2.532  53.255  1.00  0.00     0.178 C 
BRANCH   8   9
HETATM    9  N5  UNL     1      26.174   1.782  52.567  1.00  0.00    -0.384 N 
HETATM   10  H18 UNL     1      26.095   1.930  51.509  1.00  0.00     0.160 HD
BRANCH   9  11
HETATM   11  C13 UNL     1      27.232   0.915  52.911  1.00  0.00     0.028 A 
HETATM   12  C14 UNL     1      28.428   1.317  53.457  1.00  0.00     0.029 A 
HETATM   13  C15 UNL     1      29.475   0.498  53.802  1.00  0.00     0.002 A 
HETATM   14  C16 UNL     1      29.310  -0.844  53.580  1.00  0.00     0.000 A 
HETATM   15  C17 UNL     1      28.139  -1.316  53.036  1.00  0.00     0.002 A 
HETATM   16  C18 UNL     1      27.136  -0.442  52.715  1.00  0.00     0.029 A 
ENDBRANCH   9  11
ENDBRANCH   8   9
ENDBRANCH   7   8
BRANCH   6  17
HETATM   17  C5  UNL     1      23.572   4.652  51.361  1.00  0.00     0.157 C 
BRANCH  17  18
HETATM   18  N3  UNL     1      24.525   4.874  50.361  1.00  0.00    -0.408 N 
HETATM   19  C6  UNL     1      25.330   6.017  50.344  1.00  0.00     0.119 C 
HETATM   20  C7  UNL     1      26.072   6.205  49.023  1.00  0.00     0.055 C 
HETATM   21  C8  UNL     1      26.915   5.019  48.729  1.00  0.00     0.221 C 
HETATM   22  C9  UNL     1      26.602   3.889  49.704  1.00  0.00     0.055 C 
HETATM   23  C10 UNL     1      25.123   3.678  49.820  1.00  0.00     0.119 C 
BRANCH  21  24
HETATM   24  N4  UNL     1      28.307   5.343  48.859  1.00  0.00     0.083 N 
HETATM   25  H10 UNL     1      28.540   6.343  48.641  1.00  0.00     0.313 HD
HETATM   26  H11 UNL     1      28.942   4.683  48.351  1.00  0.00     0.313 HD
ENDBRANCH  21  24
ENDBRANCH  17  18
ENDBRANCH   6  17
TORSDOF 6
ENDMDL
MODEL 9
REMARK VINA RESULT:      -7.3      2.082      6.619
REMARK  6 active torsions:
REMARK  status: ('A' for Active; 'I' for Inactive)
REMARK    1  A    between atoms: C4_6  and  C5_7 
REMARK    2  A    between atoms: C5_7  and  N3_8 
REMARK    3  A    between atoms: C8_11  and  N4_12 
REMARK    4  A    between atoms: C11_15  and  C12_16 
REMARK    5  A    between atoms: C12_16  and  N5_17 
REMARK    6  A    between atoms: N5_17  and  C13_18 
ROOT
HETATM    1  N1  UNL     1      22.265   5.101  47.644  1.00  0.00    -0.171 NA
HETATM    2  C1  UNL     1      22.297   4.217  48.389  1.00  0.00     0.189 C 
HETATM    3  N2  UNL     1      22.321   3.156  49.305  1.00  0.00    -0.262 N 
HETATM    4  C2  UNL     1      21.846   1.932  49.018  1.00  0.00     0.109 A 
HETATM    5  C3  UNL     1      22.067   1.190  50.130  1.00  0.00     0.029 A 
HETATM    6  C4  UNL     1      22.687   1.926  51.150  1.00  0.00    -0.014 A 
HETATM    7  C11 UNL     1      22.826   3.172  50.576  1.00  0.00     0.052 A 
ENDROOT
BRANCH   7   8
HETATM    8  C12 UNL     1      23.442   4.326  51.300  1.00  0.00     0.178 C 
BRANCH   8   9
HETATM    9  N5  UNL     1      24.861   4.369  51.065  1.00  0.00    -0.384 N 
HETATM   10  H18 UNL     1      25.379   3.794  51.805  1.00  0.00     0.160 HD
BRANCH   9  11
HETATM   11  C13 UNL     1      25.738   4.960  50.132  1.00  0.00     0.028 A 
HETATM   12  C14 UNL     1      25.681   6.273  49.726  1.00  0.00     0.029 A 
HETATM   13  C15 UNL     1      26.521   6.876  48.822  1.00  0.00     0.002 A 
HETATM   14  C16 UNL     1      27.506   6.096  48.276  1.00  0.00     0.000 A 
HETATM   15  C17 UNL     1      27.621   4.775  48.637  1.00  0.00     0.002 A 
HETATM   16  C18 UNL     1      26.749   4.238  49.544  1.00  0.00     0.029 A 
ENDBRANCH   9  11
ENDBRANCH   8   9
ENDBRANCH   7   8
BRANCH   6  17
HETATM   17  C5  UNL     1      23.048   1.289  52.403  1.00  0.00     0.157 C 
BRANCH  17  18
HETATM   18  N3  UNL     1      24.200   0.501  52.491  1.00  0.00    -0.408 N 
HETATM   19  C6  UNL     1      25.475   1.020  52.249  1.00  0.00     0.119 C 
HETATM   20  C7  UNL     1      26.543  -0.061  52.103  1.00  0.00     0.055 C 
HETATM   21  C8  UNL     1      26.593  -0.908  53.321  1.00  0.00     0.221 C 
HETATM   22  C9  UNL     1      25.415  -0.593  54.236  1.00  0.00     0.055 C 
HETATM   23  C10 UNL     1      24.131  -0.562  53.464  1.00  0.00     0.119 C 
BRANCH  21  24
HETATM   24  N4  UNL     1      27.802  -0.667  54.055  1.00  0.00     0.083 N 
HETATM   25  H10 UNL     1      28.536  -1.408  53.933  1.00  0.00     0.313 HD
HETATM   26  H11 UNL     1      27.643  -0.448  55.067  1.00  0.00     0.313 HD
ENDBRANCH  21  24
ENDBRANCH  17  18
ENDBRANCH   6  17
TORSDOF 6
ENDMDL
