MODEL 1
REMARK VINA RESULT:      -9.7      0.000      0.000
REMARK  2 active torsions:
REMARK  status: ('A' for Active; 'I' for Inactive)
REMARK    1  A    between atoms: C7_10  and  N3_11 
REMARK    2  A    between atoms: N3_11  and  C8_12 
ROOT
HETATM    1  O1  UNL     1      16.032  -0.397  52.182  1.00  0.00    -0.269 OA
HETATM    2  C1  UNL     1      17.254  -0.417  52.523  1.00  0.00     0.241 C 
HETATM    3  C2  UNL     1      17.952  -1.254  53.491  1.00  0.00     0.074 C 
HETATM    4  C3  UNL     1      19.183  -1.323  53.830  1.00  0.00     0.007 C 
HETATM    5  C4  UNL     1      20.542  -0.923  53.735  1.00  0.00     0.028 C 
HETATM    6  C5  UNL     1      21.819  -0.688  53.795  1.00  0.00     0.048 A 
HETATM    7  N1  UNL     1      22.050  -1.549  54.757  1.00  0.00    -0.246 NA
HETATM    8  C6  UNL     1      23.282  -1.733  55.266  1.00  0.00     0.235 A 
HETATM    9  N2  UNL     1      24.276  -0.995  54.746  1.00  0.00    -0.228 NA
HETATM   10  C7  UNL     1      23.896  -0.116  53.721  1.00  0.00     0.113 A 
HETATM   11  C14 UNL     1      22.613   0.138  53.127  1.00  0.00     0.059 A 
HETATM   12  C15 UNL     1      23.341   0.966  52.403  1.00  0.00     0.090 C 
HETATM   13  C16 UNL     1      23.322   1.685  51.205  1.00  0.00    -0.003 C 
HETATM   14  C17 UNL     1      22.938   2.140  50.100  1.00  0.00     0.079 C 
HETATM   15  N4  UNL     1      22.655   2.702  48.914  1.00  0.00    -0.399 N 
HETATM   16  C18 UNL     1      21.973   2.729  47.685  1.00  0.00     0.120 C 
HETATM   17  C19 UNL     1      20.494   3.008  47.689  1.00  0.00     0.049 C 
HETATM   18  C20 UNL     1      19.736   2.027  48.531  1.00  0.00     0.271 C 
HETATM   19  N5  UNL     1      18.302   2.288  48.413  1.00  0.00     0.085 N 
HETATM   20  C21 UNL     1      17.587   1.322  49.264  1.00  0.00     0.289 C 
HETATM   21  C22 UNL     1      17.841   1.698  50.699  1.00  0.00     0.152 C 
HETATM   22  N6  UNL     1      17.551   0.636  51.616  1.00  0.00    -0.356 N 
HETATM   23  H15 UNL     1      23.343   3.432  49.223  1.00  0.00     0.158 HD
HETATM   24  H22 UNL     1      18.073   2.081  47.400  1.00  0.00     0.315 HD
HETATM   25  H27 UNL     1      18.504   0.509  51.996  1.00  0.00     0.162 HD
ENDROOT
BRANCH  10  26
HETATM   26  N3  UNL     1      25.061   0.566  53.184  1.00  0.00    -0.369 N 
HETATM   27  H5  UNL     1      25.522   0.971  52.351  1.00  0.00     0.161 HD
BRANCH  26  28
HETATM   28  C8  UNL     1      26.110   0.873  54.100  1.00  0.00     0.110 A 
HETATM   29  C9  UNL     1      26.662   2.248  53.983  1.00  0.00     0.056 A 
HETATM   30  C10 UNL     1      28.108   2.307  53.727  1.00  0.00    -0.023 A 
HETATM   31  C11 UNL     1      29.043   1.376  53.567  1.00  0.00     0.015 A 
HETATM   32  C12 UNL     1      28.474   0.023  53.678  1.00  0.00     0.009 A 
HETATM   33 BR1  UNL     1      29.764  -1.387  53.453  1.00  0.00    -0.051 Br
HETATM   34  C13 UNL     1      27.192  -0.169  53.909  1.00  0.00     0.017 A 
ENDBRANCH  26  28
ENDBRANCH  10  26
TORSDOF 2
ENDMDL
MODEL 2
REMARK VINA RESULT:      -9.3      4.041      8.109
REMARK  2 active torsions:
REMARK  status: ('A' for Active; 'I' for Inactive)
REMARK    1  A    between atoms: C7_10  and  N3_11 
REMARK    2  A    between atoms: N3_11  and  C8_12 
ROOT
HETATM    1  O1  UNL     1      27.037  -0.272  54.597  1.00  0.00    -0.269 OA
HETATM    2  C1  UNL     1      25.820  -0.320  54.243  1.00  0.00     0.241 C 
HETATM    3  C2  UNL     1      24.663  -0.909  54.906  1.00  0.00     0.074 C 
HETATM    4  C3  UNL     1      23.423  -0.941  54.595  1.00  0.00     0.007 C 
HETATM    5  C4  UNL     1      22.328  -0.632  53.747  1.00  0.00     0.028 C 
HETATM    6  C5  UNL     1      21.214  -0.453  53.101  1.00  0.00     0.048 A 
HETATM    7  N1  UNL     1      20.480  -1.136  53.945  1.00  0.00    -0.246 NA
HETATM    8  C6  UNL     1      19.157  -1.307  53.761  1.00  0.00     0.235 A 
HETATM    9  N2  UNL     1      18.613  -0.744  52.670  1.00  0.00    -0.228 NA
HETATM   10  C7  UNL     1      19.507  -0.040  51.850  1.00  0.00     0.113 A 
HETATM   11  C14 UNL     1      20.920   0.186  51.976  1.00  0.00     0.059 A 
HETATM   12  C15 UNL     1      20.703   0.863  50.866  1.00  0.00     0.090 C 
HETATM   13  C16 UNL     1      21.269   1.848  50.051  1.00  0.00    -0.003 C 
HETATM   14  C17 UNL     1      22.063   2.717  49.618  1.00  0.00     0.079 C 
HETATM   15  N4  UNL     1      22.820   3.664  49.041  1.00  0.00    -0.399 N 
HETATM   16  C18 UNL     1      23.795   4.676  49.094  1.00  0.00     0.120 C 
HETATM   17  C19 UNL     1      25.228   4.283  49.337  1.00  0.00     0.049 C 
HETATM   18  C20 UNL     1      25.394   3.519  50.616  1.00  0.00     0.271 C 
HETATM   19  N5  UNL     1      26.813   3.256  50.846  1.00  0.00     0.085 N 
HETATM   20  C21 UNL     1      26.942   2.490  52.098  1.00  0.00     0.289 C 
HETATM   21  C22 UNL     1      26.420   1.102  51.842  1.00  0.00     0.152 C 
HETATM   22  N6  UNL     1      26.114   0.388  53.045  1.00  0.00    -0.356 N 
HETATM   23  H15 UNL     1      22.321   3.370  48.166  1.00  0.00     0.158 HD
HETATM   24  H22 UNL     1      27.245   4.212  50.989  1.00  0.00     0.315 HD
HETATM   25  H27 UNL     1      25.100   0.266  52.887  1.00  0.00     0.162 HD
ENDROOT
BRANCH  10  26
HETATM   26  N3  UNL     1      18.796   0.588  50.751  1.00  0.00    -0.369 N 
HETATM   27  H5  UNL     1      18.860   1.140  49.877  1.00  0.00     0.161 HD
BRANCH  26  28
HETATM   28  C8  UNL     1      17.374   0.473  50.751  1.00  0.00     0.110 A 
HETATM   29  C9  UNL     1      16.807  -0.291  49.609  1.00  0.00     0.056 A 
HETATM   30  C10 UNL     1      15.832   0.454  48.800  1.00  0.00    -0.023 A 
HETATM   31  C11 UNL     1      15.346   1.689  48.868  1.00  0.00     0.015 A 
HETATM   32  C12 UNL     1      15.926   2.430  50.000  1.00  0.00     0.009 A 
HETATM   33 BR1  UNL     1      15.277   4.234  50.168  1.00  0.00    -0.051 Br
HETATM   34  C13 UNL     1      16.809   1.877  50.804  1.00  0.00     0.017 A 
ENDBRANCH  26  28
ENDBRANCH  10  26
TORSDOF 2
ENDMDL
MODEL 3
REMARK VINA RESULT:      -9.2      3.616      7.755
REMARK  2 active torsions:
REMARK  status: ('A' for Active; 'I' for Inactive)
REMARK    1  A    between atoms: C7_10  and  N3_11 
REMARK    2  A    between atoms: N3_11  and  C8_12 
ROOT
HETATM    1  O1  UNL     1      25.317  -1.295  55.743  1.00  0.00    -0.269 OA
HETATM    2  C1  UNL     1      24.280  -1.079  55.046  1.00  0.00     0.241 C 
HETATM    3  C2  UNL     1      22.873  -1.326  55.340  1.00  0.00     0.074 C 
HETATM    4  C3  UNL     1      21.807  -1.087  54.677  1.00  0.00     0.007 C 
HETATM    5  C4  UNL     1      21.111  -0.590  53.544  1.00  0.00     0.028 C 
HETATM    6  C5  UNL     1      20.308  -0.199  52.599  1.00  0.00     0.048 A 
HETATM    7  N1  UNL     1      19.218  -0.625  53.190  1.00  0.00    -0.246 NA
HETATM    8  C6  UNL     1      18.004  -0.490  52.625  1.00  0.00     0.235 A 
HETATM    9  N2  UNL     1      17.951   0.104  51.422  1.00  0.00    -0.228 NA
HETATM   10  C7  UNL     1      19.187   0.514  50.901  1.00  0.00     0.113 A 
HETATM   11  C14 UNL     1      20.515   0.406  51.437  1.00  0.00     0.059 A 
HETATM   12  C15 UNL     1      20.799   1.032  50.312  1.00  0.00     0.090 C 
HETATM   13  C16 UNL     1      21.799   1.792  49.699  1.00  0.00    -0.003 C 
HETATM   14  C17 UNL     1      22.874   2.414  49.520  1.00  0.00     0.079 C 
HETATM   15  N4  UNL     1      23.974   3.110  49.190  1.00  0.00    -0.399 N 
HETATM   16  C18 UNL     1      25.113   3.862  49.527  1.00  0.00     0.120 C 
HETATM   17  C19 UNL     1      26.272   3.160  50.181  1.00  0.00     0.049 C 
HETATM   18  C20 UNL     1      25.872   2.475  51.453  1.00  0.00     0.271 C 
HETATM   19  N5  UNL     1      27.055   1.900  52.091  1.00  0.00     0.085 N 
HETATM   20  C21 UNL     1      26.628   1.220  53.325  1.00  0.00     0.289 C 
HETATM   21  C22 UNL     1      25.873  -0.020  52.927  1.00  0.00     0.152 C 
HETATM   22  N6  UNL     1      25.069  -0.550  53.988  1.00  0.00    -0.356 N 
HETATM   23  H15 UNL     1      23.689   2.879  48.207  1.00  0.00     0.158 HD
HETATM   24  H22 UNL     1      27.652   2.734  52.354  1.00  0.00     0.315 HD
HETATM   25  H27 UNL     1      24.145  -0.440  53.538  1.00  0.00     0.162 HD
ENDROOT
BRANCH  10  26
HETATM   26  N3  UNL     1      18.998   1.210  49.641  1.00  0.00    -0.369 N 
HETATM   27  H5  UNL     1      19.309   1.333  48.662  1.00  0.00     0.161 HD
BRANCH  26  28
HETATM   28  C8  UNL     1      17.957   2.185  49.591  1.00  0.00     0.110 A 
HETATM   29  C9  UNL     1      17.106   2.131  48.374  1.00  0.00     0.056 A 
HETATM   30  C10 UNL     1      17.064   3.380  47.601  1.00  0.00    -0.023 A 
HETATM   31  C11 UNL     1      17.641   4.567  47.758  1.00  0.00     0.015 A 
HETATM   32  C12 UNL     1      18.486   4.596  48.962  1.00  0.00     0.009 A 
HETATM   33 BR1  UNL     1      19.364   6.283  49.260  1.00  0.00    -0.051 Br
HETATM   34  C13 UNL     1      18.608   3.544  49.743  1.00  0.00     0.017 A 
ENDBRANCH  26  28
ENDBRANCH  10  26
TORSDOF 2
ENDMDL
MODEL 4
REMARK VINA RESULT:      -8.9      2.307      2.646
REMARK  2 active torsions:
REMARK  status: ('A' for Active; 'I' for Inactive)
REMARK    1  A    between atoms: C7_10  and  N3_11 
REMARK    2  A    between atoms: N3_11  and  C8_12 
ROOT
HETATM    1  O1  UNL     1      14.415  -0.300  52.158  1.00  0.00    -0.269 OA
HETATM    2  C1  UNL     1      15.651  -0.289  52.440  1.00  0.00     0.241 C 
HETATM    3  C2  UNL     1      16.502  -1.330  53.005  1.00  0.00     0.074 C 
HETATM    4  C3  UNL     1      17.753  -1.363  53.266  1.00  0.00     0.007 C 
HETATM    5  C4  UNL     1      19.049  -0.786  53.302  1.00  0.00     0.028 C 
HETATM    6  C5  UNL     1      20.294  -0.429  53.420  1.00  0.00     0.048 A 
HETATM    7  N1  UNL     1      20.683  -1.549  53.979  1.00  0.00    -0.246 NA
HETATM    8  C6  UNL     1      21.959  -1.751  54.355  1.00  0.00     0.235 A 
HETATM    9  N2  UNL     1      22.828  -0.752  54.132  1.00  0.00    -0.228 NA
HETATM   10  C7  UNL     1      22.285   0.390  53.526  1.00  0.00     0.113 A 
HETATM   11  C14 UNL     1      20.945   0.681  53.099  1.00  0.00     0.059 A 
HETATM   12  C15 UNL     1      21.526   1.805  52.727  1.00  0.00     0.090 C 
HETATM   13  C16 UNL     1      21.347   2.910  51.891  1.00  0.00    -0.003 C 
HETATM   14  C17 UNL     1      20.841   3.691  51.050  1.00  0.00     0.079 C 
HETATM   15  N4  UNL     1      20.418   4.615  50.171  1.00  0.00    -0.399 N 
HETATM   16  C18 UNL     1      19.656   5.011  49.058  1.00  0.00     0.120 C 
HETATM   17  C19 UNL     1      18.159   5.077  49.198  1.00  0.00     0.049 C 
HETATM   18  C20 UNL     1      17.572   3.764  49.621  1.00  0.00     0.271 C 
HETATM   19  N5  UNL     1      16.114   3.864  49.641  1.00  0.00     0.085 N 
HETATM   20  C21 UNL     1      15.569   2.568  50.077  1.00  0.00     0.289 C 
HETATM   21  C22 UNL     1      15.876   2.410  51.542  1.00  0.00     0.152 C 
HETATM   22  N6  UNL     1      15.768   1.055  51.994  1.00  0.00    -0.356 N 
HETATM   23  H15 UNL     1      21.041   5.258  50.719  1.00  0.00     0.158 HD
HETATM   24  H22 UNL     1      15.841   4.023  48.630  1.00  0.00     0.315 HD
HETATM   25  H27 UNL     1      16.752   0.919  52.277  1.00  0.00     0.162 HD
ENDROOT
BRANCH  10  26
HETATM   26  N3  UNL     1      23.328   1.366  53.263  1.00  0.00    -0.369 N 
HETATM   27  H5  UNL     1      23.603   2.364  53.260  1.00  0.00     0.161 HD
BRANCH  26  28
HETATM   28  C8  UNL     1      24.578   0.865  52.792  1.00  0.00     0.110 A 
HETATM   29  C9  UNL     1      25.680   0.897  53.789  1.00  0.00     0.056 A 
HETATM   30  C10 UNL     1      26.866   1.655  53.365  1.00  0.00    -0.023 A 
HETATM   31  C11 UNL     1      27.164   2.338  52.264  1.00  0.00     0.015 A 
HETATM   32  C12 UNL     1      26.057   2.301  51.296  1.00  0.00     0.009 A 
HETATM   33 BR1  UNL     1      26.407   3.272  49.671  1.00  0.00    -0.051 Br
HETATM   34  C13 UNL     1      24.940   1.654  51.551  1.00  0.00     0.017 A 
ENDBRANCH  26  28
ENDBRANCH  10  26
TORSDOF 2
ENDMDL
MODEL 5
REMARK VINA RESULT:      -8.8      4.272      9.359
REMARK  2 active torsions:
REMARK  status: ('A' for Active; 'I' for Inactive)
REMARK    1  A    between atoms: C7_10  and  N3_11 
REMARK    2  A    between atoms: N3_11  and  C8_12 
ROOT
HETATM    1  O1  UNL     1      27.204   3.111  50.818  1.00  0.00    -0.269 OA
HETATM    2  C1  UNL     1      25.942   3.180  50.722  1.00  0.00     0.241 C 
HETATM    3  C2  UNL     1      25.102   3.741  49.671  1.00  0.00     0.074 C 
HETATM    4  C3  UNL     1      23.832   3.793  49.527  1.00  0.00     0.007 C 
HETATM    5  C4  UNL     1      22.503   3.529  49.951  1.00  0.00     0.028 C 
HETATM    6  C5  UNL     1      21.231   3.385  50.174  1.00  0.00     0.048 A 
HETATM    7  N1  UNL     1      20.851   4.029  49.097  1.00  0.00    -0.246 NA
HETATM    8  C6  UNL     1      19.552   4.213  48.799  1.00  0.00     0.235 A 
HETATM    9  N2  UNL     1      18.649   3.706  49.655  1.00  0.00    -0.228 NA
HETATM   10  C7  UNL     1      19.187   3.039  50.765  1.00  0.00     0.113 A 
HETATM   11  C14 UNL     1      20.550   2.803  51.152  1.00  0.00     0.059 A 
HETATM   12  C15 UNL     1      19.945   2.181  52.145  1.00  0.00     0.090 C 
HETATM   13  C16 UNL     1      20.170   1.234  53.148  1.00  0.00    -0.003 C 
HETATM   14  C17 UNL     1      20.746   0.384  53.869  1.00  0.00     0.079 C 
HETATM   15  N4  UNL     1      21.234  -0.538  54.715  1.00  0.00    -0.399 N 
HETATM   16  C18 UNL     1      22.146  -1.554  55.052  1.00  0.00     0.120 C 
HETATM   17  C19 UNL     1      23.581  -1.179  55.308  1.00  0.00     0.049 C 
HETATM   18  C20 UNL     1      24.198  -0.478  54.135  1.00  0.00     0.271 C 
HETATM   19  N5  UNL     1      25.614  -0.231  54.405  1.00  0.00     0.085 N 
HETATM   20  C21 UNL     1      26.187   0.473  53.245  1.00  0.00     0.289 C 
HETATM   21  C22 UNL     1      25.637   1.874  53.241  1.00  0.00     0.152 C 
HETATM   22  N6  UNL     1      25.784   2.530  51.976  1.00  0.00    -0.356 N 
HETATM   23  H15 UNL     1      20.467  -0.200  55.347  1.00  0.00     0.158 HD
HETATM   24  H22 UNL     1      26.049  -1.195  54.464  1.00  0.00     0.315 HD
HETATM   25  H27 UNL     1      24.782   2.663  51.765  1.00  0.00     0.162 HD
ENDROOT
BRANCH  10  26
HETATM   26  N3  UNL     1      18.124   2.467  51.574  1.00  0.00    -0.369 N 
HETATM   27  H5  UNL     1      17.868   1.820  52.339  1.00  0.00     0.161 HD
BRANCH  26  28
HETATM   28  C8  UNL     1      16.793   2.900  51.292  1.00  0.00     0.110 A 
HETATM   29  C9  UNL     1      16.382   4.149  51.984  1.00  0.00     0.056 A 
HETATM   30  C10 UNL     1      15.183   4.016  52.823  1.00  0.00    -0.023 A 
HETATM   31  C11 UNL     1      14.378   2.996  53.106  1.00  0.00     0.015 A 
HETATM   32  C12 UNL     1      14.809   1.769  52.418  1.00  0.00     0.009 A 
HETATM   33 BR1  UNL     1      13.697   0.239  52.778  1.00  0.00    -0.051 Br
HETATM   34  C13 UNL     1      15.866   1.753  51.634  1.00  0.00     0.017 A 
ENDBRANCH  26  28
ENDBRANCH  10  26
TORSDOF 2
ENDMDL
MODEL 6
REMARK VINA RESULT:      -8.8      3.934      5.927
REMARK  2 active torsions:
REMARK  status: ('A' for Active; 'I' for Inactive)
REMARK    1  A    between atoms: C7_10  and  N3_11 
REMARK    2  A    between atoms: N3_11  and  C8_12 
ROOT
HETATM    1  O1  UNL     1      21.190  -1.963  54.915  1.00  0.00    -0.269 OA
HETATM    2  C1  UNL     1      21.898  -1.122  54.281  1.00  0.00     0.241 C 
HETATM    3  C2  UNL     1      23.346  -1.003  54.161  1.00  0.00     0.074 C 
HETATM    4  C3  UNL     1      24.086  -0.194  53.503  1.00  0.00     0.007 C 
HETATM    5  C4  UNL     1      24.283   0.902  52.623  1.00  0.00     0.028 C 
HETATM    6  C5  UNL     1      24.660   1.875  51.848  1.00  0.00     0.048 A 
HETATM    7  N1  UNL     1      25.943   1.687  52.042  1.00  0.00    -0.246 NA
HETATM    8  C6  UNL     1      26.872   2.467  51.458  1.00  0.00     0.235 A 
HETATM    9  N2  UNL     1      26.431   3.453  50.661  1.00  0.00    -0.228 NA
HETATM   10  C7  UNL     1      25.037   3.544  50.536  1.00  0.00     0.113 A 
HETATM   11  C14 UNL     1      23.987   2.758  51.122  1.00  0.00     0.059 A 
HETATM   12  C15 UNL     1      23.249   3.584  50.407  1.00  0.00     0.090 C 
HETATM   13  C16 UNL     1      21.967   3.726  49.868  1.00  0.00    -0.003 C 
HETATM   14  C17 UNL     1      20.775   3.481  49.562  1.00  0.00     0.079 C 
HETATM   15  N4  UNL     1      19.499   3.351  49.166  1.00  0.00    -0.399 N 
HETATM   16  C18 UNL     1      18.370   2.574  48.853  1.00  0.00     0.120 C 
HETATM   17  C19 UNL     1      17.648   1.870  49.970  1.00  0.00     0.049 C 
HETATM   18  C20 UNL     1      18.551   0.950  50.735  1.00  0.00     0.271 C 
HETATM   19  N5  UNL     1      17.772   0.224  51.736  1.00  0.00     0.085 N 
HETATM   20  C21 UNL     1      18.688  -0.656  52.482  1.00  0.00     0.289 C 
HETATM   21  C22 UNL     1      19.553   0.215  53.353  1.00  0.00     0.152 C 
HETATM   22  N6  UNL     1      20.733  -0.453  53.816  1.00  0.00    -0.356 N 
HETATM   23  H15 UNL     1      19.526   4.400  49.117  1.00  0.00     0.158 HD
HETATM   24  H22 UNL     1      17.106  -0.379  51.175  1.00  0.00     0.315 HD
HETATM   25  H27 UNL     1      21.432   0.157  53.361  1.00  0.00     0.162 HD
ENDROOT
BRANCH  10  26
HETATM   26  N3  UNL     1      24.682   4.590  49.592  1.00  0.00    -0.369 N 
HETATM   27  H5  UNL     1      24.085   4.874  48.796  1.00  0.00     0.161 HD
BRANCH  26  28
HETATM   28  C8  UNL     1      25.393   5.822  49.695  1.00  0.00     0.110 A 
HETATM   29  C9  UNL     1      24.856   6.772  50.704  1.00  0.00     0.056 A 
HETATM   30  C10 UNL     1      24.482   8.088  50.166  1.00  0.00    -0.023 A 
HETATM   31  C11 UNL     1      24.516   8.616  48.946  1.00  0.00     0.015 A 
HETATM   32  C12 UNL     1      25.042   7.656  47.963  1.00  0.00     0.009 A 
HETATM   33 BR1  UNL     1      25.119   8.342  46.166  1.00  0.00    -0.051 Br
HETATM   34  C13 UNL     1      25.415   6.444  48.315  1.00  0.00     0.017 A 
ENDBRANCH  26  28
ENDBRANCH  10  26
TORSDOF 2
ENDMDL
MODEL 7
REMARK VINA RESULT:      -8.8      4.862      8.155
REMARK  2 active torsions:
REMARK  status: ('A' for Active; 'I' for Inactive)
REMARK    1  A    between atoms: C7_10  and  N3_11 
REMARK    2  A    between atoms: N3_11  and  C8_12 
ROOT
HETATM    1  O1  UNL     1      25.940  -1.253  54.040  1.00  0.00    -0.269 OA
HETATM    2  C1  UNL     1      25.904  -0.247  53.268  1.00  0.00     0.241 C 
HETATM    3  C2  UNL     1      26.962   0.393  52.497  1.00  0.00     0.074 C 
HETATM    4  C3  UNL     1      26.951   1.380  51.685  1.00  0.00     0.007 C 
HETATM    5  C4  UNL     1      26.298   2.421  50.974  1.00  0.00     0.028 C 
HETATM    6  C5  UNL     1      25.882   3.419  50.252  1.00  0.00     0.048 A 
HETATM    7  N1  UNL     1      27.068   3.731  49.790  1.00  0.00    -0.246 NA
HETATM    8  C6  UNL     1      27.255   4.765  48.950  1.00  0.00     0.235 A 
HETATM    9  N2  UNL     1      26.169   5.472  48.597  1.00  0.00    -0.228 NA
HETATM   10  C7  UNL     1      24.961   5.033  49.159  1.00  0.00     0.113 A 
HETATM   11  C14 UNL     1      24.681   3.948  50.058  1.00  0.00     0.059 A 
HETATM   12  C15 UNL     1      23.453   4.401  49.895  1.00  0.00     0.090 C 
HETATM   13  C16 UNL     1      22.115   4.028  50.050  1.00  0.00    -0.003 C 
HETATM   14  C17 UNL     1      21.097   3.343  50.313  1.00  0.00     0.079 C 
HETATM   15  N4  UNL     1      19.928   2.728  50.553  1.00  0.00    -0.399 N 
HETATM   16  C18 UNL     1      19.143   1.571  50.707  1.00  0.00     0.120 C 
HETATM   17  C19 UNL     1      19.356   0.714  51.925  1.00  0.00     0.049 C 
HETATM   18  C20 UNL     1      20.772   0.238  52.041  1.00  0.00     0.271 C 
HETATM   19  N5  UNL     1      20.891  -0.668  53.182  1.00  0.00     0.085 N 
HETATM   20  C21 UNL     1      22.295  -1.103  53.279  1.00  0.00     0.289 C 
HETATM   21  C22 UNL     1      23.108   0.073  53.748  1.00  0.00     0.152 C 
HETATM   22  N6  UNL     1      24.511  -0.083  53.504  1.00  0.00    -0.356 N 
HETATM   23  H15 UNL     1      19.560   3.707  50.639  1.00  0.00     0.158 HD
HETATM   24  H22 UNL     1      20.295  -1.504  52.925  1.00  0.00     0.315 HD
HETATM   25  H27 UNL     1      24.636   0.715  52.860  1.00  0.00     0.162 HD
ENDROOT
BRANCH  10  26
HETATM   26  N3  UNL     1      23.851   5.818  48.647  1.00  0.00    -0.369 N 
HETATM   27  H5  UNL     1      22.845   5.846  48.409  1.00  0.00     0.161 HD
BRANCH  26  28
HETATM   28  C8  UNL     1      24.135   7.163  48.261  1.00  0.00     0.110 A 
HETATM   29  C9  UNL     1      23.660   8.200  49.214  1.00  0.00     0.056 A 
HETATM   30  C10 UNL     1      22.747   9.193  48.632  1.00  0.00    -0.023 A 
HETATM   31  C11 UNL     1      22.239   9.359  47.415  1.00  0.00     0.015 A 
HETATM   32  C12 UNL     1      22.714   8.317  46.490  1.00  0.00     0.009 A 
HETATM   33 BR1  UNL     1      22.020   8.483  44.703  1.00  0.00    -0.051 Br
HETATM   34  C13 UNL     1      23.538   7.370  46.885  1.00  0.00     0.017 A 
ENDBRANCH  26  28
ENDBRANCH  10  26
TORSDOF 2
ENDMDL
MODEL 8
REMARK VINA RESULT:      -8.7      5.472      8.342
REMARK  2 active torsions:
REMARK  status: ('A' for Active; 'I' for Inactive)
REMARK    1  A    between atoms: C7_10  and  N3_11 
REMARK    2  A    between atoms: N3_11  and  C8_12 
ROOT
HETATM    1  O1  UNL     1      27.804   8.490  46.624  1.00  0.00    -0.269 OA
HETATM    2  C1  UNL     1      27.359   7.521  47.312  1.00  0.00     0.241 C 
HETATM    3  C2  UNL     1      28.063   6.425  47.969  1.00  0.00     0.074 C 
HETATM    4  C3  UNL     1      27.649   5.458  48.696  1.00  0.00     0.007 C 
HETATM    5  C4  UNL     1      26.630   4.722  49.353  1.00  0.00     0.028 C 
HETATM    6  C5  UNL     1      25.843   3.923  50.012  1.00  0.00     0.048 A 
HETATM    7  N1  UNL     1      26.795   3.101  50.381  1.00  0.00    -0.246 NA
HETATM    8  C6  UNL     1      26.542   2.006  51.122  1.00  0.00     0.235 A 
HETATM    9  N2  UNL     1      25.265   1.787  51.474  1.00  0.00    -0.228 NA
HETATM   10  C7  UNL     1      24.345   2.742  51.017  1.00  0.00     0.113 A 
HETATM   11  C14 UNL     1      24.534   3.927  50.227  1.00  0.00     0.059 A 
HETATM   12  C15 UNL     1      23.233   4.015  50.420  1.00  0.00     0.090 C 
HETATM   13  C16 UNL     1      22.173   4.925  50.370  1.00  0.00    -0.003 C 
HETATM   14  C17 UNL     1      21.535   5.995  50.221  1.00  0.00     0.079 C 
HETATM   15  N4  UNL     1      20.729   7.062  50.097  1.00  0.00    -0.399 N 
HETATM   16  C18 UNL     1      20.502   8.450  50.083  1.00  0.00     0.120 C 
HETATM   17  C19 UNL     1      21.037   9.255  48.929  1.00  0.00     0.049 C 
HETATM   18  C20 UNL     1      22.520   9.105  48.775  1.00  0.00     0.271 C 
HETATM   19  N5  UNL     1      22.992   9.985  47.708  1.00  0.00     0.085 N 
HETATM   20  C21 UNL     1      24.446   9.802  47.570  1.00  0.00     0.289 C 
HETATM   21  C22 UNL     1      24.682   8.446  46.962  1.00  0.00     0.152 C 
HETATM   22  N6  UNL     1      26.024   7.977  47.140  1.00  0.00    -0.356 N 
HETATM   23  H15 UNL     1      19.982   6.340  49.951  1.00  0.00     0.158 HD
HETATM   24  H22 UNL     1      22.807  10.965  48.065  1.00  0.00     0.315 HD
HETATM   25  H27 UNL     1      25.811   7.141  47.708  1.00  0.00     0.162 HD
ENDROOT
BRANCH  10  26
HETATM   26  N3  UNL     1      23.017   2.446  51.524  1.00  0.00    -0.369 N 
HETATM   27  H5  UNL     1      22.176   2.798  52.015  1.00  0.00     0.161 HD
BRANCH  26  28
HETATM   28  C8  UNL     1      22.530   1.119  51.326  1.00  0.00     0.110 A 
HETATM   29  C9  UNL     1      21.111   1.030  50.894  1.00  0.00     0.056 A 
HETATM   30  C10 UNL     1      20.252   0.233  51.780  1.00  0.00    -0.023 A 
HETATM   31  C11 UNL     1      20.476  -0.432  52.909  1.00  0.00     0.015 A 
HETATM   32  C12 UNL     1      21.884  -0.323  53.323  1.00  0.00     0.009 A 
HETATM   33 BR1  UNL     1      22.292  -1.255  54.957  1.00  0.00    -0.051 Br
HETATM   34  C13 UNL     1      22.759   0.361  52.617  1.00  0.00     0.017 A 
ENDBRANCH  26  28
ENDBRANCH  10  26
TORSDOF 2
ENDMDL
MODEL 9
REMARK VINA RESULT:      -8.6      3.600      7.959
REMARK  2 active torsions:
REMARK  status: ('A' for Active; 'I' for Inactive)
REMARK    1  A    between atoms: C7_10  and  N3_11 
REMARK    2  A    between atoms: N3_11  and  C8_12 
ROOT
HETATM    1  O1  UNL     1      23.161  -1.659  55.646  1.00  0.00    -0.269 OA
HETATM    2  C1  UNL     1      22.452  -1.193  54.704  1.00  0.00     0.241 C 
HETATM    3  C2  UNL     1      21.003  -1.140  54.548  1.00  0.00     0.074 C 
HETATM    4  C3  UNL     1      20.259  -0.646  53.633  1.00  0.00     0.007 C 
HETATM    5  C4  UNL     1      20.056   0.037  52.405  1.00  0.00     0.028 C 
HETATM    6  C5  UNL     1      19.674   0.632  51.314  1.00  0.00     0.048 A 
HETATM    7  N1  UNL     1      18.394   0.431  51.514  1.00  0.00    -0.246 NA
HETATM    8  C6  UNL     1      17.463   0.850  50.638  1.00  0.00     0.235 A 
HETATM    9  N2  UNL     1      17.898   1.490  49.540  1.00  0.00    -0.228 NA
HETATM   10  C7  UNL     1      19.290   1.642  49.448  1.00  0.00     0.113 A 
HETATM   11  C14 UNL     1      20.342   1.225  50.333  1.00  0.00     0.059 A 
HETATM   12  C15 UNL     1      21.074   1.819  49.412  1.00  0.00     0.090 C 
HETATM   13  C16 UNL     1      22.342   2.368  49.200  1.00  0.00    -0.003 C 
HETATM   14  C17 UNL     1      23.520   2.747  49.408  1.00  0.00     0.079 C 
HETATM   15  N4  UNL     1      24.782   3.198  49.488  1.00  0.00    -0.399 N 
HETATM   16  C18 UNL     1      25.887   3.669  50.218  1.00  0.00     0.120 C 
HETATM   17  C19 UNL     1      26.629   2.705  51.104  1.00  0.00     0.049 C 
HETATM   18  C20 UNL     1      25.732   2.072  52.125  1.00  0.00     0.271 C 
HETATM   19  N5  UNL     1      26.525   1.227  53.015  1.00  0.00     0.085 N 
HETATM   20  C21 UNL     1      25.616   0.606  53.993  1.00  0.00     0.289 C 
HETATM   21  C22 UNL     1      24.792  -0.422  53.264  1.00  0.00     0.152 C 
HETATM   22  N6  UNL     1      23.614  -0.807  53.983  1.00  0.00    -0.356 N 
HETATM   23  H15 UNL     1      24.773   3.076  48.445  1.00  0.00     0.158 HD
HETATM   24  H22 UNL     1      27.164   1.899  53.527  1.00  0.00     0.315 HD
HETATM   25  H27 UNL     1      22.914  -0.479  53.299  1.00  0.00     0.162 HD
ENDROOT
BRANCH  10  26
HETATM   26  N3  UNL     1      19.637   2.414  48.268  1.00  0.00    -0.369 N 
HETATM   27  H5  UNL     1      20.365   2.661  47.576  1.00  0.00     0.161 HD
BRANCH  26  28
HETATM   28  C8  UNL     1      18.615   3.242  47.714  1.00  0.00     0.110 A 
HETATM   29  C9  UNL     1      18.545   3.242  46.230  1.00  0.00     0.056 A 
HETATM   30  C10 UNL     1      18.682   4.568  45.611  1.00  0.00    -0.023 A 
HETATM   31  C11 UNL     1      18.866   5.788  46.105  1.00  0.00     0.015 A 
HETATM   32  C12 UNL     1      18.943   5.764  47.575  1.00  0.00     0.009 A 
HETATM   33 BR1  UNL     1      19.215   7.495  48.371  1.00  0.00    -0.051 Br
HETATM   34  C13 UNL     1      18.832   4.641  48.252  1.00  0.00     0.017 A 
ENDBRANCH  26  28
ENDBRANCH  10  26
TORSDOF 2
ENDMDL
