MODEL 1
REMARK VINA RESULT:      -7.3      0.000      0.000
REMARK  6 active torsions:
REMARK  status: ('A' for Active; 'I' for Inactive)
REMARK    1  A    between atoms: O1_2  and  C2_3 
REMARK    2  A    between atoms: C4_5  and  C5_6 
REMARK    3  A    between atoms: C4_5  and  O2_21 
REMARK    4  A    between atoms: C6_7  and  C7_8 
REMARK    5  A    between atoms: C7_8  and  N1_9 
REMARK    6  A    between atoms: N1_9  and  C8_10 
ROOT
HETATM    1  N1  UNL     1      26.091   3.293  51.224  1.00  0.00    -0.371 N 
HETATM    2  H11 UNL     1      25.556   4.133  51.490  1.00  0.00     0.161 HD
ENDROOT
BRANCH   1   3
HETATM    3  C7  UNL     1      26.366   3.126  49.807  1.00  0.00     0.148 C 
BRANCH   3   4
HETATM    4  C6  UNL     1      26.964   4.358  49.237  1.00  0.00    -0.005 C 
HETATM    5  C5  UNL     1      27.956   4.866  48.519  1.00  0.00     0.037 C 
BRANCH   5   6
HETATM    6  C4  UNL     1      28.207   6.269  48.149  1.00  0.00     0.096 C 
HETATM    7  C2  UNL     1      29.500   6.312  47.871  1.00  0.00     0.075 C 
HETATM    8  C3  UNL     1      29.931   7.677  47.473  1.00  0.00     0.079 C 
BRANCH   7   9
HETATM    9  O1  UNL     1      30.103   5.086  48.022  1.00  0.00    -0.358 OA
HETATM   10  C1  UNL     1      31.378   4.718  47.572  1.00  0.00     0.209 C 
ENDBRANCH   7   9
BRANCH   6  11
HETATM   11  O2  UNL     1      27.043   7.018  48.223  1.00  0.00    -0.353 OA
HETATM   12  C16 UNL     1      26.835   7.927  49.290  1.00  0.00     0.210 C 
ENDBRANCH   6  11
ENDBRANCH   5   6
ENDBRANCH   3   4
ENDBRANCH   1   3
BRANCH   1  13
HETATM   13  C8  UNL     1      26.578   2.294  52.115  1.00  0.00     0.137 A 
HETATM   14  N2  UNL     1      27.880   2.231  52.435  1.00  0.00    -0.224 NA
HETATM   15  C9  UNL     1      28.348   1.295  53.274  1.00  0.00     0.235 A 
HETATM   16  N3  UNL     1      27.562   0.360  53.850  1.00  0.00    -0.241 NA
HETATM   17  C10 UNL     1      26.225   0.359  53.575  1.00  0.00     0.072 A 
HETATM   18  C11 UNL     1      25.378  -0.573  54.136  1.00  0.00     0.034 A 
HETATM   19  C15 UNL     1      25.784   1.337  52.708  1.00  0.00     0.040 A 
HETATM   20  C12 UNL     1      24.032  -0.569  53.854  1.00  0.00     0.026 A 
HETATM   21  C13 UNL     1      23.558   0.400  52.988  1.00  0.00     0.035 A 
HETATM   22 CL1  UNL     1      21.834   0.417  52.618  1.00  0.00    -0.084 Cl
HETATM   23  C14 UNL     1      24.436   1.314  52.447  1.00  0.00     0.041 A 
ENDBRANCH   1  13
TORSDOF 6
ENDMDL
MODEL 2
REMARK VINA RESULT:      -7.1      1.960      2.556
REMARK  6 active torsions:
REMARK  status: ('A' for Active; 'I' for Inactive)
REMARK    1  A    between atoms: O1_2  and  C2_3 
REMARK    2  A    between atoms: C4_5  and  C5_6 
REMARK    3  A    between atoms: C4_5  and  O2_21 
REMARK    4  A    between atoms: C6_7  and  C7_8 
REMARK    5  A    between atoms: C7_8  and  N1_9 
REMARK    6  A    between atoms: N1_9  and  C8_10 
ROOT
HETATM    1  N1  UNL     1      26.494   3.394  50.948  1.00  0.00    -0.371 N 
HETATM    2  H11 UNL     1      27.313   3.851  51.376  1.00  0.00     0.161 HD
ENDROOT
BRANCH   1   3
HETATM    3  C7  UNL     1      26.432   3.409  49.496  1.00  0.00     0.148 C 
BRANCH   3   4
HETATM    4  C6  UNL     1      27.158   4.582  48.951  1.00  0.00    -0.005 C 
HETATM    5  C5  UNL     1      28.317   5.044  48.505  1.00  0.00     0.037 C 
BRANCH   5   6
HETATM    6  C4  UNL     1      28.648   6.392  48.011  1.00  0.00     0.096 C 
HETATM    7  C2  UNL     1      29.931   6.321  47.691  1.00  0.00     0.075 C 
HETATM    8  C3  UNL     1      30.438   7.616  47.166  1.00  0.00     0.079 C 
BRANCH   7   9
HETATM    9  O1  UNL     1      30.456   5.073  47.927  1.00  0.00    -0.358 OA
HETATM   10  C1  UNL     1      31.761   4.646  47.648  1.00  0.00     0.209 C 
ENDBRANCH   7   9
BRANCH   6  11
HETATM   11  O2  UNL     1      27.541   7.223  48.056  1.00  0.00    -0.353 OA
HETATM   12  C16 UNL     1      27.412   8.201  49.074  1.00  0.00     0.210 C 
ENDBRANCH   6  11
ENDBRANCH   5   6
ENDBRANCH   3   4
ENDBRANCH   1   3
BRANCH   1  13
HETATM   13  C8  UNL     1      25.430   2.757  51.650  1.00  0.00     0.137 A 
HETATM   14  N2  UNL     1      24.197   3.287  51.660  1.00  0.00    -0.224 NA
HETATM   15  C9  UNL     1      23.189   2.695  52.317  1.00  0.00     0.235 A 
HETATM   16  N3  UNL     1      23.332   1.542  53.006  1.00  0.00    -0.241 NA
HETATM   17  C10 UNL     1      24.557   0.941  53.042  1.00  0.00     0.072 A 
HETATM   18  C11 UNL     1      24.758  -0.237  53.731  1.00  0.00     0.034 A 
HETATM   19  C15 UNL     1      25.567   1.582  52.356  1.00  0.00     0.040 A 
HETATM   20  C12 UNL     1      25.995  -0.837  53.764  1.00  0.00     0.026 A 
HETATM   21  C13 UNL     1      27.029  -0.219  53.084  1.00  0.00     0.035 A 
HETATM   22 CL1  UNL     1      28.621  -0.978  53.118  1.00  0.00    -0.084 Cl
HETATM   23  C14 UNL     1      26.789   0.958  52.407  1.00  0.00     0.041 A 
ENDBRANCH   1  13
TORSDOF 6
ENDMDL
MODEL 3
REMARK VINA RESULT:      -6.9      0.801      2.068
REMARK  6 active torsions:
REMARK  status: ('A' for Active; 'I' for Inactive)
REMARK    1  A    between atoms: O1_2  and  C2_3 
REMARK    2  A    between atoms: C4_5  and  C5_6 
REMARK    3  A    between atoms: C4_5  and  O2_21 
REMARK    4  A    between atoms: C6_7  and  C7_8 
REMARK    5  A    between atoms: C7_8  and  N1_9 
REMARK    6  A    between atoms: N1_9  and  C8_10 
ROOT
HETATM    1  N1  UNL     1      26.192   3.424  51.164  1.00  0.00    -0.371 N 
HETATM    2  H11 UNL     1      25.792   4.328  51.454  1.00  0.00     0.161 HD
ENDROOT
BRANCH   1   3
HETATM    3  C7  UNL     1      26.328   3.209  49.733  1.00  0.00     0.148 C 
BRANCH   3   4
HETATM    4  C6  UNL     1      27.252   4.204  49.136  1.00  0.00    -0.005 C 
HETATM    5  C5  UNL     1      27.363   5.403  48.581  1.00  0.00     0.037 C 
BRANCH   5   6
HETATM    6  C4  UNL     1      28.570   6.082  48.081  1.00  0.00     0.096 C 
HETATM    7  C2  UNL     1      28.119   7.206  47.545  1.00  0.00     0.075 C 
HETATM    8  C3  UNL     1      29.222   8.027  46.982  1.00  0.00     0.079 C 
BRANCH   7   9
HETATM    9  O1  UNL     1      26.753   7.318  47.650  1.00  0.00    -0.358 OA
HETATM   10  C1  UNL     1      25.927   8.196  46.936  1.00  0.00     0.209 C 
ENDBRANCH   7   9
BRANCH   6  11
HETATM   11  O2  UNL     1      29.705   5.330  48.337  1.00  0.00    -0.353 OA
HETATM   12  C16 UNL     1      30.853   5.929  48.915  1.00  0.00     0.210 C 
ENDBRANCH   6  11
ENDBRANCH   5   6
ENDBRANCH   3   4
ENDBRANCH   1   3
BRANCH   1  13
HETATM   13  C8  UNL     1      26.618   2.379  52.034  1.00  0.00     0.137 A 
HETATM   14  N2  UNL     1      27.901   2.280  52.415  1.00  0.00    -0.224 NA
HETATM   15  C9  UNL     1      28.312   1.301  53.234  1.00  0.00     0.235 A 
HETATM   16  N3  UNL     1      27.484   0.355  53.729  1.00  0.00    -0.241 NA
HETATM   17  C10 UNL     1      26.163   0.388  53.387  1.00  0.00     0.072 A 
HETATM   18  C11 UNL     1      25.274  -0.553  53.863  1.00  0.00     0.034 A 
HETATM   19  C15 UNL     1      25.781   1.410  52.542  1.00  0.00     0.040 A 
HETATM   20  C12 UNL     1      23.944  -0.513  53.514  1.00  0.00     0.026 A 
HETATM   21  C13 UNL     1      23.530   0.500  52.669  1.00  0.00     0.035 A 
HETATM   22 CL1  UNL     1      21.827   0.562  52.213  1.00  0.00    -0.084 Cl
HETATM   23  C14 UNL     1      24.448   1.422  52.213  1.00  0.00     0.041 A 
ENDBRANCH   1  13
TORSDOF 6
ENDMDL
MODEL 4
REMARK VINA RESULT:      -6.7      1.993      3.331
REMARK  6 active torsions:
REMARK  status: ('A' for Active; 'I' for Inactive)
REMARK    1  A    between atoms: O1_2  and  C2_3 
REMARK    2  A    between atoms: C4_5  and  C5_6 
REMARK    3  A    between atoms: C4_5  and  O2_21 
REMARK    4  A    between atoms: C6_7  and  C7_8 
REMARK    5  A    between atoms: C7_8  and  N1_9 
REMARK    6  A    between atoms: N1_9  and  C8_10 
ROOT
HETATM    1  N1  UNL     1      26.238   3.663  50.885  1.00  0.00    -0.371 N 
HETATM    2  H11 UNL     1      27.012   4.128  51.381  1.00  0.00     0.161 HD
ENDROOT
BRANCH   1   3
HETATM    3  C7  UNL     1      26.362   3.566  49.440  1.00  0.00     0.148 C 
BRANCH   3   4
HETATM    4  C6  UNL     1      27.405   4.494  48.938  1.00  0.00    -0.005 C 
HETATM    5  C5  UNL     1      27.672   5.724  48.526  1.00  0.00     0.037 C 
BRANCH   5   6
HETATM    6  C4  UNL     1      28.953   6.292  48.074  1.00  0.00     0.096 C 
HETATM    7  C2  UNL     1      28.611   7.337  47.337  1.00  0.00     0.075 C 
HETATM    8  C3  UNL     1      29.802   8.039  46.792  1.00  0.00     0.079 C 
BRANCH   7   9
HETATM    9  O1  UNL     1      27.248   7.500  47.270  1.00  0.00    -0.358 OA
HETATM   10  C1  UNL     1      26.557   8.529  46.616  1.00  0.00     0.209 C 
ENDBRANCH   7   9
BRANCH   6  11
HETATM   11  O2  UNL     1      30.022   5.556  48.561  1.00  0.00    -0.353 OA
HETATM   12  C16 UNL     1      30.935   4.935  47.673  1.00  0.00     0.210 C 
ENDBRANCH   6  11
ENDBRANCH   5   6
ENDBRANCH   3   4
ENDBRANCH   1   3
BRANCH   1  13
HETATM   13  C8  UNL     1      25.069   3.114  51.487  1.00  0.00     0.137 A 
HETATM   14  N2  UNL     1      23.904   3.779  51.463  1.00  0.00    -0.224 NA
HETATM   15  C9  UNL     1      22.798   3.271  52.026  1.00  0.00     0.235 A 
HETATM   16  N3  UNL     1      22.770   2.073  52.649  1.00  0.00    -0.241 NA
HETATM   17  C10 UNL     1      23.916   1.335  52.715  1.00  0.00     0.072 A 
HETATM   18  C11 UNL     1      23.943   0.106  53.340  1.00  0.00     0.034 A 
HETATM   19  C15 UNL     1      25.031   1.894  52.125  1.00  0.00     0.040 A 
HETATM   20  C12 UNL     1      25.103  -0.632  53.403  1.00  0.00     0.026 A 
HETATM   21  C13 UNL     1      26.238  -0.100  52.820  1.00  0.00     0.035 A 
HETATM   22 CL1  UNL     1      27.731  -1.036  52.894  1.00  0.00    -0.084 Cl
HETATM   23  C14 UNL     1      26.171   1.132  52.205  1.00  0.00     0.041 A 
ENDBRANCH   1  13
TORSDOF 6
ENDMDL
MODEL 5
REMARK VINA RESULT:      -6.7      3.235      4.331
REMARK  6 active torsions:
REMARK  status: ('A' for Active; 'I' for Inactive)
REMARK    1  A    between atoms: O1_2  and  C2_3 
REMARK    2  A    between atoms: C4_5  and  C5_6 
REMARK    3  A    between atoms: C4_5  and  O2_21 
REMARK    4  A    between atoms: C6_7  and  C7_8 
REMARK    5  A    between atoms: C7_8  and  N1_9 
REMARK    6  A    between atoms: N1_9  and  C8_10 
ROOT
HETATM    1  N1  UNL     1      25.991   2.855  52.474  1.00  0.00    -0.371 N 
HETATM    2  H11 UNL     1      25.664   3.794  52.745  1.00  0.00     0.161 HD
ENDROOT
BRANCH   1   3
HETATM    3  C7  UNL     1      26.423   2.696  51.095  1.00  0.00     0.148 C 
BRANCH   3   4
HETATM    4  C6  UNL     1      25.437   3.294  50.162  1.00  0.00    -0.005 C 
HETATM    5  C5  UNL     1      24.165   3.338  49.791  1.00  0.00     0.037 C 
BRANCH   5   6
HETATM    6  C4  UNL     1      23.540   4.136  48.722  1.00  0.00     0.096 C 
HETATM    7  C2  UNL     1      22.590   3.352  48.237  1.00  0.00     0.075 C 
HETATM    8  C3  UNL     1      21.847   4.010  47.131  1.00  0.00     0.079 C 
BRANCH   7   9
HETATM    9  O1  UNL     1      22.540   2.139  48.882  1.00  0.00    -0.358 OA
HETATM   10  C1  UNL     1      21.581   1.133  48.700  1.00  0.00     0.209 C 
ENDBRANCH   7   9
BRANCH   6  11
HETATM   11  O2  UNL     1      24.148   5.376  48.608  1.00  0.00    -0.353 OA
HETATM   12  C16 UNL     1      23.660   6.489  49.336  1.00  0.00     0.210 C 
ENDBRANCH   6  11
ENDBRANCH   5   6
ENDBRANCH   3   4
ENDBRANCH   1   3
BRANCH   1  13
HETATM   13  C8  UNL     1      26.056   1.713  53.324  1.00  0.00     0.137 A 
HETATM   14  N2  UNL     1      27.185   1.407  53.981  1.00  0.00    -0.224 NA
HETATM   15  C9  UNL     1      27.256   0.335  54.784  1.00  0.00     0.235 A 
HETATM   16  N3  UNL     1      26.218  -0.504  54.990  1.00  0.00    -0.241 NA
HETATM   17  C10 UNL     1      25.034  -0.259  54.356  1.00  0.00     0.072 A 
HETATM   18  C11 UNL     1      23.943  -1.084  54.530  1.00  0.00     0.034 A 
HETATM   19  C15 UNL     1      25.003   0.852  53.539  1.00  0.00     0.040 A 
HETATM   20  C12 UNL     1      22.753  -0.831  53.887  1.00  0.00     0.026 A 
HETATM   21  C13 UNL     1      22.689   0.276  53.061  1.00  0.00     0.035 A 
HETATM   22 CL1  UNL     1      21.169   0.611  52.232  1.00  0.00    -0.084 Cl
HETATM   23  C14 UNL     1      23.802   1.077  52.912  1.00  0.00     0.041 A 
ENDBRANCH   1  13
TORSDOF 6
ENDMDL
MODEL 6
REMARK VINA RESULT:      -6.6      3.244      4.634
REMARK  6 active torsions:
REMARK  status: ('A' for Active; 'I' for Inactive)
REMARK    1  A    between atoms: O1_2  and  C2_3 
REMARK    2  A    between atoms: C4_5  and  C5_6 
REMARK    3  A    between atoms: C4_5  and  O2_21 
REMARK    4  A    between atoms: C6_7  and  C7_8 
REMARK    5  A    between atoms: C7_8  and  N1_9 
REMARK    6  A    between atoms: N1_9  and  C8_10 
ROOT
HETATM    1  N1  UNL     1      26.395   3.336  51.504  1.00  0.00    -0.371 N 
HETATM    2  H11 UNL     1      26.059   4.253  51.832  1.00  0.00     0.161 HD
ENDROOT
BRANCH   1   3
HETATM    3  C7  UNL     1      26.427   3.138  50.064  1.00  0.00     0.148 C 
BRANCH   3   4
HETATM    4  C6  UNL     1      25.078   3.330  49.477  1.00  0.00    -0.005 C 
HETATM    5  C5  UNL     1      23.905   3.934  49.599  1.00  0.00     0.037 C 
BRANCH   5   6
HETATM    6  C4  UNL     1      22.726   3.850  48.720  1.00  0.00     0.096 C 
HETATM    7  C2  UNL     1      22.047   4.959  48.971  1.00  0.00     0.075 C 
HETATM    8  C3  UNL     1      20.807   5.039  48.156  1.00  0.00     0.079 C 
BRANCH   7   9
HETATM    9  O1  UNL     1      22.666   5.743  49.915  1.00  0.00    -0.358 OA
HETATM   10  C1  UNL     1      22.056   6.687  50.751  1.00  0.00     0.209 C 
ENDBRANCH   7   9
BRANCH   6  11
HETATM   11  O2  UNL     1      22.745   2.683  47.973  1.00  0.00    -0.353 OA
HETATM   12  C16 UNL     1      21.930   1.581  48.334  1.00  0.00     0.210 C 
ENDBRANCH   6  11
ENDBRANCH   5   6
ENDBRANCH   3   4
ENDBRANCH   1   3
BRANCH   1  13
HETATM   13  C8  UNL     1      26.825   2.257  52.330  1.00  0.00     0.137 A 
HETATM   14  N2  UNL     1      28.121   2.096  52.634  1.00  0.00    -0.224 NA
HETATM   15  C9  UNL     1      28.536   1.085  53.412  1.00  0.00     0.235 A 
HETATM   16  N3  UNL     1      27.697   0.166  53.937  1.00  0.00    -0.241 NA
HETATM   17  C10 UNL     1      26.361   0.262  53.673  1.00  0.00     0.072 A 
HETATM   18  C11 UNL     1      25.461  -0.650  54.185  1.00  0.00     0.034 A 
HETATM   19  C15 UNL     1      25.977   1.315  52.870  1.00  0.00     0.040 A 
HETATM   20  C12 UNL     1      24.117  -0.547  53.914  1.00  0.00     0.026 A 
HETATM   21  C13 UNL     1      23.698   0.499  53.112  1.00  0.00     0.035 A 
HETATM   22 CL1  UNL     1      21.977   0.643  52.757  1.00  0.00    -0.084 Cl
HETATM   23  C14 UNL     1      24.629   1.390  52.619  1.00  0.00     0.041 A 
ENDBRANCH   1  13
TORSDOF 6
ENDMDL
MODEL 7
REMARK VINA RESULT:      -6.6      4.686      8.470
REMARK  6 active torsions:
REMARK  status: ('A' for Active; 'I' for Inactive)
REMARK    1  A    between atoms: O1_2  and  C2_3 
REMARK    2  A    between atoms: C4_5  and  C5_6 
REMARK    3  A    between atoms: C4_5  and  O2_21 
REMARK    4  A    between atoms: C6_7  and  C7_8 
REMARK    5  A    between atoms: C7_8  and  N1_9 
REMARK    6  A    between atoms: N1_9  and  C8_10 
ROOT
HETATM    1  N1  UNL     1      23.922  -0.918  53.531  1.00  0.00    -0.371 N 
HETATM    2  H11 UNL     1      23.706  -1.715  52.915  1.00  0.00     0.161 HD
ENDROOT
BRANCH   1   3
HETATM    3  C7  UNL     1      22.832  -0.428  54.358  1.00  0.00     0.148 C 
BRANCH   3   4
HETATM    4  C6  UNL     1      21.634  -0.139  53.533  1.00  0.00    -0.005 C 
HETATM    5  C5  UNL     1      20.312  -0.195  53.460  1.00  0.00     0.037 C 
BRANCH   5   6
HETATM    6  C4  UNL     1      19.425   0.236  52.366  1.00  0.00     0.096 C 
HETATM    7  C2  UNL     1      18.397  -0.596  52.425  1.00  0.00     0.075 C 
HETATM    8  C3  UNL     1      17.390  -0.299  51.375  1.00  0.00     0.079 C 
BRANCH   7   9
HETATM    9  O1  UNL     1      18.531  -1.513  53.441  1.00  0.00    -0.358 OA
HETATM   10  C1  UNL     1      17.768  -2.673  53.628  1.00  0.00     0.209 C 
ENDBRANCH   7   9
BRANCH   6  11
HETATM   11  O2  UNL     1      19.964   1.318  51.688  1.00  0.00    -0.353 OA
HETATM   12  C16 UNL     1      19.604   2.643  52.040  1.00  0.00     0.210 C 
ENDBRANCH   6  11
ENDBRANCH   5   6
ENDBRANCH   3   4
ENDBRANCH   1   3
BRANCH   1  13
HETATM   13  C8  UNL     1      25.182  -0.261  53.640  1.00  0.00     0.137 A 
HETATM   14  N2  UNL     1      26.076  -0.636  54.567  1.00  0.00    -0.224 NA
HETATM   15  C9  UNL     1      27.265  -0.025  54.677  1.00  0.00     0.235 A 
HETATM   16  N3  UNL     1      27.648   0.995  53.880  1.00  0.00    -0.241 NA
HETATM   17  C10 UNL     1      26.792   1.435  52.911  1.00  0.00     0.072 A 
HETATM   18  C11 UNL     1      27.132   2.473  52.070  1.00  0.00     0.034 A 
HETATM   19  C15 UNL     1      25.580   0.781  52.832  1.00  0.00     0.040 A 
HETATM   20  C12 UNL     1      26.265   2.910  51.096  1.00  0.00     0.026 A 
HETATM   21  C13 UNL     1      25.041   2.275  50.990  1.00  0.00     0.035 A 
HETATM   22 CL1  UNL     1      23.919   2.825  49.745  1.00  0.00    -0.084 Cl
HETATM   23  C14 UNL     1      24.737   1.240  51.850  1.00  0.00     0.041 A 
ENDBRANCH   1  13
TORSDOF 6
ENDMDL
MODEL 8
REMARK VINA RESULT:      -6.3      4.810      6.604
REMARK  6 active torsions:
REMARK  status: ('A' for Active; 'I' for Inactive)
REMARK    1  A    between atoms: O1_2  and  C2_3 
REMARK    2  A    between atoms: C4_5  and  C5_6 
REMARK    3  A    between atoms: C4_5  and  O2_21 
REMARK    4  A    between atoms: C6_7  and  C7_8 
REMARK    5  A    between atoms: C7_8  and  N1_9 
REMARK    6  A    between atoms: N1_9  and  C8_10 
ROOT
HETATM    1  N1  UNL     1      22.361  -0.082  52.636  1.00  0.00    -0.371 N 
HETATM    2  H11 UNL     1      22.310  -0.334  51.638  1.00  0.00     0.161 HD
ENDROOT
BRANCH   1   3
HETATM    3  C7  UNL     1      21.180   0.548  53.204  1.00  0.00     0.148 C 
BRANCH   3   4
HETATM    4  C6  UNL     1      20.801   1.753  52.425  1.00  0.00    -0.005 C 
HETATM    5  C5  UNL     1      20.615   3.064  52.456  1.00  0.00     0.037 C 
BRANCH   5   6
HETATM    6  C4  UNL     1      20.202   3.966  51.368  1.00  0.00     0.096 C 
HETATM    7  C2  UNL     1      21.148   4.892  51.327  1.00  0.00     0.075 C 
HETATM    8  C3  UNL     1      20.884   5.899  50.267  1.00  0.00     0.079 C 
BRANCH   7   9
HETATM    9  O1  UNL     1      22.122   4.678  52.272  1.00  0.00    -0.358 OA
HETATM   10  C1  UNL     1      23.468   5.058  52.188  1.00  0.00     0.209 C 
ENDBRANCH   7   9
BRANCH   6  11
HETATM   11  O2  UNL     1      19.013   3.542  50.796  1.00  0.00    -0.353 OA
HETATM   12  C16 UNL     1      17.770   3.840  51.408  1.00  0.00     0.210 C 
ENDBRANCH   6  11
ENDBRANCH   5   6
ENDBRANCH   3   4
ENDBRANCH   1   3
BRANCH   1  13
HETATM   13  C8  UNL     1      23.476  -0.295  53.498  1.00  0.00     0.137 A 
HETATM   14  N2  UNL     1      23.359  -1.047  54.603  1.00  0.00    -0.224 NA
HETATM   15  C9  UNL     1      24.403  -1.254  55.419  1.00  0.00     0.235 A 
HETATM   16  N3  UNL     1      25.629  -0.732  55.198  1.00  0.00    -0.241 NA
HETATM   17  C10 UNL     1      25.828   0.044  54.093  1.00  0.00     0.072 A 
HETATM   18  C11 UNL     1      27.059   0.602  53.820  1.00  0.00     0.034 A 
HETATM   19  C15 UNL     1      24.730   0.233  53.280  1.00  0.00     0.040 A 
HETATM   20  C12 UNL     1      27.252   1.383  52.705  1.00  0.00     0.026 A 
HETATM   21  C13 UNL     1      26.171   1.592  51.868  1.00  0.00     0.035 A 
HETATM   22 CL1  UNL     1      26.404   2.592  50.435  1.00  0.00    -0.084 Cl
HETATM   23  C14 UNL     1      24.955   1.018  52.176  1.00  0.00     0.041 A 
ENDBRANCH   1  13
TORSDOF 6
ENDMDL
MODEL 9
REMARK VINA RESULT:      -6.3      4.541      5.533
REMARK  6 active torsions:
REMARK  status: ('A' for Active; 'I' for Inactive)
REMARK    1  A    between atoms: O1_2  and  C2_3 
REMARK    2  A    between atoms: C4_5  and  C5_6 
REMARK    3  A    between atoms: C4_5  and  O2_21 
REMARK    4  A    between atoms: C6_7  and  C7_8 
REMARK    5  A    between atoms: C7_8  and  N1_9 
REMARK    6  A    between atoms: N1_9  and  C8_10 
ROOT
HETATM    1  N1  UNL     1      22.116   0.046  52.670  1.00  0.00    -0.371 N 
HETATM    2  H11 UNL     1      21.888  -0.444  51.793  1.00  0.00     0.161 HD
ENDROOT
BRANCH   1   3
HETATM    3  C7  UNL     1      21.373   1.266  52.939  1.00  0.00     0.148 C 
BRANCH   3   4
HETATM    4  C6  UNL     1      21.838   2.369  52.062  1.00  0.00    -0.005 C 
HETATM    5  C5  UNL     1      22.406   2.688  50.908  1.00  0.00     0.037 C 
BRANCH   5   6
HETATM    6  C4  UNL     1      22.718   4.022  50.367  1.00  0.00     0.096 C 
HETATM    7  C2  UNL     1      22.906   3.818  49.072  1.00  0.00     0.075 C 
HETATM    8  C3  UNL     1      23.235   5.080  48.361  1.00  0.00     0.079 C 
BRANCH   7   9
HETATM    9  O1  UNL     1      22.748   2.497  48.728  1.00  0.00    -0.358 OA
HETATM   10  C1  UNL     1      22.497   1.990  47.446  1.00  0.00     0.209 C 
ENDBRANCH   7   9
BRANCH   6  11
HETATM   11  O2  UNL     1      22.704   4.979  51.368  1.00  0.00    -0.353 OA
HETATM   12  C16 UNL     1      21.767   6.042  51.340  1.00  0.00     0.210 C 
ENDBRANCH   6  11
ENDBRANCH   5   6
ENDBRANCH   3   4
ENDBRANCH   1   3
BRANCH   1  13
HETATM   13  C8  UNL     1      23.086  -0.363  53.630  1.00  0.00     0.137 A 
HETATM   14  N2  UNL     1      22.734  -1.099  54.695  1.00  0.00    -0.224 NA
HETATM   15  C9  UNL     1      23.640  -1.490  55.604  1.00  0.00     0.235 A 
HETATM   16  N3  UNL     1      24.951  -1.179  55.521  1.00  0.00    -0.241 NA
HETATM   17  C10 UNL     1      25.388  -0.431  54.465  1.00  0.00     0.072 A 
HETATM   18  C11 UNL     1      26.716  -0.085  54.332  1.00  0.00     0.034 A 
HETATM   19  C15 UNL     1      24.426  -0.049  53.554  1.00  0.00     0.040 A 
HETATM   20  C12 UNL     1      27.149   0.669  53.266  1.00  0.00     0.026 A 
HETATM   21  C13 UNL     1      26.209   1.068  52.334  1.00  0.00     0.035 A 
HETATM   22 CL1  UNL     1      26.750   2.034  50.962  1.00  0.00    -0.084 Cl
HETATM   23  C14 UNL     1      24.890   0.702  52.502  1.00  0.00     0.041 A 
ENDBRANCH   1  13
TORSDOF 6
ENDMDL
