MODEL 1
REMARK VINA RESULT:      -7.7      0.000      0.000
REMARK  4 active torsions:
REMARK  status: ('A' for Active; 'I' for Inactive)
REMARK    1  A    between atoms: O1_2  and  C2_3 
REMARK    2  A    between atoms: C5_6  and  C6_7 
REMARK    3  A    between atoms: C8_9  and  C9_10 
REMARK    4  A    between atoms: N2_18  and  C15_19 
ROOT
HETATM    1  C6  UNL     1      22.365   0.949  53.226  1.00  0.00     0.150 C 
HETATM    2  C7  UNL     1      23.579   0.530  52.381  1.00  0.00     0.094 C 
HETATM    3  C8  UNL     1      24.343  -0.158  53.483  1.00  0.00     0.067 C 
HETATM    4  N1  UNL     1      23.470  -0.597  54.315  1.00  0.00    -0.175 NA
HETATM    5  N2  UNL     1      22.154  -0.289  53.911  1.00  0.00    -0.254 N 
ENDROOT
BRANCH   1   6
HETATM    6  C5  UNL     1      21.317   1.366  52.302  1.00  0.00    -0.033 A 
HETATM    7  C4  UNL     1      21.231   0.768  51.061  1.00  0.00     0.012 A 
HETATM    8  C3  UNL     1      20.251   1.127  50.136  1.00  0.00     0.037 A 
HETATM    9  C2  UNL     1      19.322   2.118  50.460  1.00  0.00     0.068 A 
HETATM   10  C17 UNL     1      19.400   2.723  51.700  1.00  0.00     0.037 A 
HETATM   11  C16 UNL     1      20.381   2.347  52.594  1.00  0.00     0.012 A 
BRANCH   9  12
HETATM   12  O1  UNL     1      18.419   2.364  49.455  1.00  0.00    -0.356 OA
HETATM   13  C1  UNL     1      18.599   3.208  48.360  1.00  0.00     0.210 C 
ENDBRANCH   9  12
ENDBRANCH   1   6
BRANCH   5  14
HETATM   14  C15 UNL     1      21.083  -1.171  54.242  1.00  0.00     0.219 C 
HETATM   15  N3  UNL     1      21.554  -2.040  55.041  1.00  0.00    -0.294 NA
HETATM   16  H14 UNL     1      21.071  -2.829  55.484  1.00  0.00     0.187 HD
ENDBRANCH   5  14
BRANCH   3  17
HETATM   17  C9  UNL     1      25.798  -0.304  53.598  1.00  0.00    -0.010 A 
HETATM   18  C10 UNL     1      26.380  -1.192  52.719  1.00  0.00     0.015 A 
HETATM   19  C11 UNL     1      27.754  -1.367  52.785  1.00  0.00     0.024 A 
HETATM   20  C12 UNL     1      28.492  -0.650  53.725  1.00  0.00     0.034 A 
HETATM   21 CL1  UNL     1      30.223  -0.841  53.844  1.00  0.00    -0.084 Cl
HETATM   22  C13 UNL     1      27.856   0.226  54.582  1.00  0.00     0.024 A 
HETATM   23  C14 UNL     1      26.482   0.430  54.548  1.00  0.00     0.015 A 
ENDBRANCH   3  17
TORSDOF 4
ENDMDL
MODEL 2
REMARK VINA RESULT:      -7.7      2.437      3.155
REMARK  4 active torsions:
REMARK  status: ('A' for Active; 'I' for Inactive)
REMARK    1  A    between atoms: O1_2  and  C2_3 
REMARK    2  A    between atoms: C5_6  and  C6_7 
REMARK    3  A    between atoms: C8_9  and  C9_10 
REMARK    4  A    between atoms: N2_18  and  C15_19 
ROOT
HETATM    1  C6  UNL     1      22.481   0.782  51.768  1.00  0.00     0.150 C 
HETATM    2  C7  UNL     1      23.343   0.157  52.877  1.00  0.00     0.094 C 
HETATM    3  C8  UNL     1      24.584   0.975  52.630  1.00  0.00     0.067 C 
HETATM    4  N1  UNL     1      24.194   2.095  52.142  1.00  0.00    -0.175 NA
HETATM    5  N2  UNL     1      22.789   2.156  52.018  1.00  0.00    -0.254 N 
ENDROOT
BRANCH   1   6
HETATM    6  C5  UNL     1      21.103   0.371  52.009  1.00  0.00    -0.033 A 
HETATM    7  C4  UNL     1      20.769  -0.208  53.217  1.00  0.00     0.012 A 
HETATM    8  C3  UNL     1      19.468  -0.620  53.502  1.00  0.00     0.037 A 
HETATM    9  C2  UNL     1      18.462  -0.449  52.548  1.00  0.00     0.068 A 
HETATM   10  C17 UNL     1      18.786   0.130  51.336  1.00  0.00     0.037 A 
HETATM   11  C16 UNL     1      20.082   0.528  51.082  1.00  0.00     0.012 A 
BRANCH   9  12
HETATM   12  O1  UNL     1      17.235  -0.900  52.969  1.00  0.00    -0.356 OA
HETATM   13  C1  UNL     1      15.989  -0.384  52.614  1.00  0.00     0.210 C 
ENDBRANCH   9  12
ENDBRANCH   1   6
BRANCH   5  14
HETATM   14  C15 UNL     1      22.116   3.405  52.154  1.00  0.00     0.219 C 
HETATM   15  N3  UNL     1      23.013   4.294  52.306  1.00  0.00    -0.294 NA
HETATM   16  H14 UNL     1      22.896   5.305  52.433  1.00  0.00     0.187 HD
ENDBRANCH   5  14
BRANCH   3  17
HETATM   17  C9  UNL     1      25.974   0.582  52.888  1.00  0.00    -0.010 A 
HETATM   18  C10 UNL     1      26.256  -0.758  52.724  1.00  0.00     0.015 A 
HETATM   19  C11 UNL     1      27.555  -1.182  52.956  1.00  0.00     0.024 A 
HETATM   20  C12 UNL     1      28.521  -0.255  53.342  1.00  0.00     0.034 A 
HETATM   21 CL1  UNL     1      30.169  -0.746  53.645  1.00  0.00    -0.084 Cl
HETATM   22  C13 UNL     1      28.182   1.075  53.493  1.00  0.00     0.024 A 
HETATM   23  C14 UNL     1      26.892   1.541  53.271  1.00  0.00     0.015 A 
ENDBRANCH   3  17
TORSDOF 4
ENDMDL
MODEL 3
REMARK VINA RESULT:      -7.7      4.490      7.809
REMARK  4 active torsions:
REMARK  status: ('A' for Active; 'I' for Inactive)
REMARK    1  A    between atoms: O1_2  and  C2_3 
REMARK    2  A    between atoms: C5_6  and  C6_7 
REMARK    3  A    between atoms: C8_9  and  C9_10 
REMARK    4  A    between atoms: N2_18  and  C15_19 
ROOT
HETATM    1  C6  UNL     1      23.965   1.583  53.033  1.00  0.00     0.150 C 
HETATM    2  C7  UNL     1      23.240   0.275  52.679  1.00  0.00     0.094 C 
HETATM    3  C8  UNL     1      21.932   0.895  52.262  1.00  0.00     0.067 C 
HETATM    4  N1  UNL     1      22.206   2.068  51.820  1.00  0.00    -0.175 NA
HETATM    5  N2  UNL     1      23.589   2.345  51.882  1.00  0.00    -0.254 N 
ENDROOT
BRANCH   1   6
HETATM    6  C5  UNL     1      25.382   1.270  53.170  1.00  0.00    -0.033 A 
HETATM    7  C4  UNL     1      25.850   0.046  52.738  1.00  0.00     0.012 A 
HETATM    8  C3  UNL     1      27.195  -0.308  52.843  1.00  0.00     0.037 A 
HETATM    9  C2  UNL     1      28.107   0.591  53.401  1.00  0.00     0.068 A 
HETATM   10  C17 UNL     1      27.648   1.820  53.837  1.00  0.00     0.037 A 
HETATM   11  C16 UNL     1      26.312   2.141  53.719  1.00  0.00     0.012 A 
BRANCH   9  12
HETATM   12  O1  UNL     1      29.391   0.106  53.438  1.00  0.00    -0.356 OA
HETATM   13  C1  UNL     1      29.776  -1.230  53.547  1.00  0.00     0.210 C 
ENDBRANCH   9  12
ENDBRANCH   1   6
BRANCH   5  14
HETATM   14  C15 UNL     1      24.187   3.200  50.912  1.00  0.00     0.219 C 
HETATM   15  N3  UNL     1      24.429   4.305  51.491  1.00  0.00    -0.294 NA
HETATM   16  H14 UNL     1      24.857   5.153  51.101  1.00  0.00     0.187 HD
ENDBRANCH   5  14
BRANCH   3  17
HETATM   17  C9  UNL     1      20.598   0.290  52.339  1.00  0.00    -0.010 A 
HETATM   18  C10 UNL     1      19.767   0.536  51.266  1.00  0.00     0.015 A 
HETATM   19  C11 UNL     1      18.495  -0.013  51.289  1.00  0.00     0.024 A 
HETATM   20  C12 UNL     1      18.100  -0.784  52.380  1.00  0.00     0.034 A 
HETATM   21 CL1  UNL     1      16.506  -1.494  52.450  1.00  0.00    -0.084 Cl
HETATM   22  C13 UNL     1      18.973  -0.998  53.428  1.00  0.00     0.024 A 
HETATM   23  C14 UNL     1      20.256  -0.466  53.444  1.00  0.00     0.015 A 
ENDBRANCH   3  17
TORSDOF 4
ENDMDL
MODEL 4
REMARK VINA RESULT:      -7.6      5.673      6.728
REMARK  4 active torsions:
REMARK  status: ('A' for Active; 'I' for Inactive)
REMARK    1  A    between atoms: O1_2  and  C2_3 
REMARK    2  A    between atoms: C5_6  and  C6_7 
REMARK    3  A    between atoms: C8_9  and  C9_10 
REMARK    4  A    between atoms: N2_18  and  C15_19 
ROOT
HETATM    1  C6  UNL     1      23.384   3.167  50.207  1.00  0.00     0.150 C 
HETATM    2  C7  UNL     1      24.891   3.356  50.447  1.00  0.00     0.094 C 
HETATM    3  C8  UNL     1      25.013   4.712  49.803  1.00  0.00     0.067 C 
HETATM    4  N1  UNL     1      23.872   5.286  49.937  1.00  0.00    -0.175 NA
HETATM    5  N2  UNL     1      22.947   4.466  50.617  1.00  0.00    -0.254 N 
ENDROOT
BRANCH   1   6
HETATM    6  C5  UNL     1      22.951   2.046  51.032  1.00  0.00    -0.033 A 
HETATM    7  C4  UNL     1      23.612   1.780  52.214  1.00  0.00     0.012 A 
HETATM    8  C3  UNL     1      23.242   0.721  53.043  1.00  0.00     0.037 A 
HETATM    9  C2  UNL     1      22.175  -0.104  52.680  1.00  0.00     0.068 A 
HETATM   10  C17 UNL     1      21.507   0.154  51.498  1.00  0.00     0.037 A 
HETATM   11  C16 UNL     1      21.896   1.209  50.698  1.00  0.00     0.012 A 
BRANCH   9  12
HETATM   12  O1  UNL     1      21.927  -1.101  53.591  1.00  0.00    -0.356 OA
HETATM   13  C1  UNL     1      22.432  -1.192  54.888  1.00  0.00     0.210 C 
ENDBRANCH   9  12
ENDBRANCH   1   6
BRANCH   5  14
HETATM   14  C15 UNL     1      21.940   5.057  51.435  1.00  0.00     0.219 C 
HETATM   15  N3  UNL     1      22.189   6.302  51.487  1.00  0.00    -0.294 NA
HETATM   16  H14 UNL     1      21.675   7.038  51.984  1.00  0.00     0.187 HD
ENDBRANCH   5  14
BRANCH   3  17
HETATM   17  C9  UNL     1      26.195   5.281  49.147  1.00  0.00    -0.010 A 
HETATM   18  C10 UNL     1      26.068   6.584  48.714  1.00  0.00     0.015 A 
HETATM   19  C11 UNL     1      27.157   7.170  48.087  1.00  0.00     0.024 A 
HETATM   20  C12 UNL     1      28.328   6.435  47.917  1.00  0.00     0.034 A 
HETATM   21 CL1  UNL     1      29.723   7.133  47.132  1.00  0.00    -0.084 Cl
HETATM   22  C13 UNL     1      28.399   5.132  48.369  1.00  0.00     0.024 A 
HETATM   23  C14 UNL     1      27.331   4.508  49.002  1.00  0.00     0.015 A 
ENDBRANCH   3  17
TORSDOF 4
ENDMDL
MODEL 5
REMARK VINA RESULT:      -7.5      5.200      6.766
REMARK  4 active torsions:
REMARK  status: ('A' for Active; 'I' for Inactive)
REMARK    1  A    between atoms: O1_2  and  C2_3 
REMARK    2  A    between atoms: C5_6  and  C6_7 
REMARK    3  A    between atoms: C8_9  and  C9_10 
REMARK    4  A    between atoms: N2_18  and  C15_19 
ROOT
HETATM    1  C6  UNL     1      25.264   2.318  50.829  1.00  0.00     0.150 C 
HETATM    2  C7  UNL     1      23.878   2.558  51.448  1.00  0.00     0.094 C 
HETATM    3  C8  UNL     1      23.823   1.298  52.273  1.00  0.00     0.067 C 
HETATM    4  N1  UNL     1      25.037   0.994  52.560  1.00  0.00    -0.175 NA
HETATM    5  N2  UNL     1      25.954   1.920  52.017  1.00  0.00    -0.254 N 
ENDROOT
BRANCH   1   6
HETATM    6  C5  UNL     1      25.690   3.573  50.222  1.00  0.00    -0.033 A 
HETATM    7  C4  UNL     1      26.794   3.585  49.393  1.00  0.00     0.012 A 
HETATM    8  C3  UNL     1      27.247   4.756  48.786  1.00  0.00     0.037 A 
HETATM    9  C2  UNL     1      26.576   5.959  49.013  1.00  0.00     0.068 A 
HETATM   10  C17 UNL     1      25.470   5.958  49.841  1.00  0.00     0.037 A 
HETATM   11  C16 UNL     1      25.045   4.784  50.429  1.00  0.00     0.012 A 
BRANCH   9  12
HETATM   12  O1  UNL     1      27.134   7.024  48.350  1.00  0.00    -0.356 OA
HETATM   13  C1  UNL     1      28.415   7.087  47.801  1.00  0.00     0.210 C 
ENDBRANCH   9  12
ENDBRANCH   1   6
BRANCH   5  14
HETATM   14  C15 UNL     1      27.177   2.191  52.698  1.00  0.00     0.219 C 
HETATM   15  N3  UNL     1      26.876   2.481  53.898  1.00  0.00    -0.294 NA
HETATM   16  H14 UNL     1      27.502   2.730  54.672  1.00  0.00     0.187 HD
ENDBRANCH   5  14
BRANCH   3  17
HETATM   17  C9  UNL     1      22.627   0.552  52.678  1.00  0.00    -0.010 A 
HETATM   18  C10 UNL     1      21.436   0.999  52.145  1.00  0.00     0.015 A 
HETATM   19  C11 UNL     1      20.275   0.328  52.495  1.00  0.00     0.024 A 
HETATM   20  C12 UNL     1      20.346  -0.761  53.362  1.00  0.00     0.034 A 
HETATM   21 CL1  UNL     1      18.908  -1.634  53.830  1.00  0.00    -0.084 Cl
HETATM   22  C13 UNL     1      21.566  -1.164  53.867  1.00  0.00     0.024 A 
HETATM   23  C14 UNL     1      22.753  -0.520  53.541  1.00  0.00     0.015 A 
ENDBRANCH   3  17
TORSDOF 4
ENDMDL
MODEL 6
REMARK VINA RESULT:      -7.3      6.932      7.797
REMARK  4 active torsions:
REMARK  status: ('A' for Active; 'I' for Inactive)
REMARK    1  A    between atoms: O1_2  and  C2_3 
REMARK    2  A    between atoms: C5_6  and  C6_7 
REMARK    3  A    between atoms: C8_9  and  C9_10 
REMARK    4  A    between atoms: N2_18  and  C15_19 
ROOT
HETATM    1  C6  UNL     1      24.847   4.358  49.431  1.00  0.00     0.150 C 
HETATM    2  C7  UNL     1      26.378   4.351  49.568  1.00  0.00     0.094 C 
HETATM    3  C8  UNL     1      26.621   5.719  48.986  1.00  0.00     0.067 C 
HETATM    4  N1  UNL     1      25.571   6.415  49.232  1.00  0.00    -0.175 NA
HETATM    5  N2  UNL     1      24.600   5.672  49.937  1.00  0.00    -0.254 N 
ENDROOT
BRANCH   1   6
HETATM    6  C5  UNL     1      24.336   3.249  50.228  1.00  0.00    -0.033 A 
HETATM    7  C4  UNL     1      25.109   2.739  51.252  1.00  0.00     0.012 A 
HETATM    8  C3  UNL     1      24.672   1.679  52.047  1.00  0.00     0.037 A 
HETATM    9  C2  UNL     1      23.419   1.107  51.813  1.00  0.00     0.068 A 
HETATM   10  C17 UNL     1      22.639   1.610  50.790  1.00  0.00     0.037 A 
HETATM   11  C16 UNL     1      23.098   2.659  50.020  1.00  0.00     0.012 A 
BRANCH   9  12
HETATM   12  O1  UNL     1      23.126   0.077  52.672  1.00  0.00    -0.356 OA
HETATM   13  C1  UNL     1      24.000  -0.539  53.568  1.00  0.00     0.210 C 
ENDBRANCH   9  12
ENDBRANCH   1   6
BRANCH   5  14
HETATM   14  C15 UNL     1      23.731   6.330  50.856  1.00  0.00     0.219 C 
HETATM   15  N3  UNL     1      24.434   6.653  51.864  1.00  0.00    -0.294 NA
HETATM   16  H14 UNL     1      24.142   7.141  52.718  1.00  0.00     0.187 HD
ENDBRANCH   5  14
BRANCH   3  17
HETATM   17  C9  UNL     1      27.817   6.182  48.273  1.00  0.00    -0.010 A 
HETATM   18  C10 UNL     1      27.661   7.330  47.526  1.00  0.00     0.015 A 
HETATM   19  C11 UNL     1      28.761   7.810  46.833  1.00  0.00     0.024 A 
HETATM   20  C12 UNL     1      29.973   7.127  46.912  1.00  0.00     0.034 A 
HETATM   21 CL1  UNL     1      31.383   7.696  46.054  1.00  0.00    -0.084 Cl
HETATM   22  C13 UNL     1      30.073   5.981  47.675  1.00  0.00     0.024 A 
HETATM   23  C14 UNL     1      28.995   5.466  48.384  1.00  0.00     0.015 A 
ENDBRANCH   3  17
TORSDOF 4
ENDMDL
MODEL 7
REMARK VINA RESULT:      -7.3      5.924      7.327
REMARK  4 active torsions:
REMARK  status: ('A' for Active; 'I' for Inactive)
REMARK    1  A    between atoms: O1_2  and  C2_3 
REMARK    2  A    between atoms: C5_6  and  C6_7 
REMARK    3  A    between atoms: C8_9  and  C9_10 
REMARK    4  A    between atoms: N2_18  and  C15_19 
ROOT
HETATM    1  C6  UNL     1      24.540   4.421  50.246  1.00  0.00     0.150 C 
HETATM    2  C7  UNL     1      24.930   2.976  50.598  1.00  0.00     0.094 C 
HETATM    3  C8  UNL     1      23.539   2.476  50.892  1.00  0.00     0.067 C 
HETATM    4  N1  UNL     1      22.738   3.177  50.175  1.00  0.00    -0.175 NA
HETATM    5  N2  UNL     1      23.426   4.132  49.396  1.00  0.00    -0.254 N 
ENDROOT
BRANCH   1   6
HETATM    6  C5  UNL     1      25.697   5.039  49.610  1.00  0.00    -0.033 A 
HETATM    7  C4  UNL     1      26.743   4.243  49.187  1.00  0.00     0.012 A 
HETATM    8  C3  UNL     1      27.875   4.779  48.573  1.00  0.00     0.037 A 
HETATM    9  C2  UNL     1      27.968   6.158  48.374  1.00  0.00     0.068 A 
HETATM   10  C17 UNL     1      26.927   6.963  48.794  1.00  0.00     0.037 A 
HETATM   11  C16 UNL     1      25.820   6.404  49.399  1.00  0.00     0.012 A 
BRANCH   9  12
HETATM   12  O1  UNL     1      29.136   6.539  47.759  1.00  0.00    -0.356 OA
HETATM   13  C1  UNL     1      30.400   5.982  47.951  1.00  0.00     0.210 C 
ENDBRANCH   9  12
ENDBRANCH   1   6
BRANCH   5  14
HETATM   14  C15 UNL     1      22.908   4.519  48.126  1.00  0.00     0.219 C 
HETATM   15  N3  UNL     1      22.284   3.515  47.659  1.00  0.00    -0.294 NA
HETATM   16  H14 UNL     1      21.784   3.430  46.767  1.00  0.00     0.187 HD
ENDBRANCH   5  14
BRANCH   3  17
HETATM   17  C9  UNL     1      23.159   1.400  51.813  1.00  0.00    -0.010 A 
HETATM   18  C10 UNL     1      21.808   1.132  51.894  1.00  0.00     0.015 A 
HETATM   19  C11 UNL     1      21.395   0.123  52.750  1.00  0.00     0.024 A 
HETATM   20  C12 UNL     1      22.343  -0.577  53.493  1.00  0.00     0.034 A 
HETATM   21 CL1  UNL     1      21.866  -1.854  54.584  1.00  0.00    -0.084 Cl
HETATM   22  C13 UNL     1      23.683  -0.266  53.374  1.00  0.00     0.024 A 
HETATM   23  C14 UNL     1      24.139   0.737  52.527  1.00  0.00     0.015 A 
ENDBRANCH   3  17
TORSDOF 4
ENDMDL
MODEL 8
REMARK VINA RESULT:      -7.3      5.612      6.398
REMARK  4 active torsions:
REMARK  status: ('A' for Active; 'I' for Inactive)
REMARK    1  A    between atoms: O1_2  and  C2_3 
REMARK    2  A    between atoms: C5_6  and  C6_7 
REMARK    3  A    between atoms: C8_9  and  C9_10 
REMARK    4  A    between atoms: N2_18  and  C15_19 
ROOT
HETATM    1  C6  UNL     1      24.837   2.980  51.290  1.00  0.00     0.150 C 
HETATM    2  C7  UNL     1      24.830   3.527  49.853  1.00  0.00     0.094 C 
HETATM    3  C8  UNL     1      26.267   3.978  49.819  1.00  0.00     0.067 C 
HETATM    4  N1  UNL     1      26.911   3.212  50.623  1.00  0.00    -0.175 NA
HETATM    5  N2  UNL     1      26.068   2.255  51.227  1.00  0.00    -0.254 N 
ENDROOT
BRANCH   1   6
HETATM    6  C5  UNL     1      23.625   2.187  51.457  1.00  0.00    -0.033 A 
HETATM    7  C4  UNL     1      22.863   1.872  50.350  1.00  0.00     0.012 A 
HETATM    8  C3  UNL     1      21.694   1.118  50.451  1.00  0.00     0.037 A 
HETATM    9  C2  UNL     1      21.269   0.661  51.701  1.00  0.00     0.068 A 
HETATM   10  C17 UNL     1      22.025   0.971  52.815  1.00  0.00     0.037 A 
HETATM   11  C16 UNL     1      23.177   1.720  52.684  1.00  0.00     0.012 A 
BRANCH   9  12
HETATM   12  O1  UNL     1      20.106  -0.067  51.644  1.00  0.00    -0.356 OA
HETATM   13  C1  UNL     1      19.146  -0.187  52.648  1.00  0.00     0.210 C 
ENDBRANCH   9  12
ENDBRANCH   1   6
BRANCH   5  14
HETATM   14  C15 UNL     1      26.586   0.974  51.579  1.00  0.00     0.219 C 
HETATM   15  N3  UNL     1      26.862   1.014  52.819  1.00  0.00    -0.294 NA
HETATM   16  H14 UNL     1      27.252   0.274  53.412  1.00  0.00     0.187 HD
ENDBRANCH   5  14
BRANCH   3  17
HETATM   17  C9  UNL     1      26.835   5.076  49.030  1.00  0.00    -0.010 A 
HETATM   18  C10 UNL     1      25.970   6.109  48.734  1.00  0.00     0.015 A 
HETATM   19  C11 UNL     1      26.457   7.172  47.990  1.00  0.00     0.024 A 
HETATM   20  C12 UNL     1      27.786   7.164  47.570  1.00  0.00     0.034 A 
HETATM   21 CL1  UNL     1      28.440   8.483  46.631  1.00  0.00    -0.084 Cl
HETATM   22  C13 UNL     1      28.607   6.103  47.894  1.00  0.00     0.024 A 
HETATM   23  C14 UNL     1      28.159   5.018  48.638  1.00  0.00     0.015 A 
ENDBRANCH   3  17
TORSDOF 4
ENDMDL
MODEL 9
REMARK VINA RESULT:      -6.9      9.613     10.370
REMARK  4 active torsions:
REMARK  status: ('A' for Active; 'I' for Inactive)
REMARK    1  A    between atoms: O1_2  and  C2_3 
REMARK    2  A    between atoms: C5_6  and  C6_7 
REMARK    3  A    between atoms: C8_9  and  C9_10 
REMARK    4  A    between atoms: N2_18  and  C15_19 
ROOT
HETATM    1  C6  UNL     1      27.457   6.955  48.208  1.00  0.00     0.150 C 
HETATM    2  C7  UNL     1      28.926   6.508  48.285  1.00  0.00     0.094 C 
HETATM    3  C8  UNL     1      29.543   7.872  48.120  1.00  0.00     0.067 C 
HETATM    4  N1  UNL     1      28.700   8.716  48.596  1.00  0.00    -0.175 NA
HETATM    5  N2  UNL     1      27.538   8.082  49.085  1.00  0.00    -0.254 N 
ENDROOT
BRANCH   1   6
HETATM    6  C5  UNL     1      26.640   5.836  48.664  1.00  0.00    -0.033 A 
HETATM    7  C4  UNL     1      25.268   5.976  48.717  1.00  0.00     0.012 A 
HETATM    8  C3  UNL     1      24.437   4.941  49.146  1.00  0.00     0.037 A 
HETATM    9  C2  UNL     1      24.995   3.721  49.535  1.00  0.00     0.068 A 
HETATM   10  C17 UNL     1      26.368   3.570  49.486  1.00  0.00     0.037 A 
HETATM   11  C16 UNL     1      27.164   4.613  49.058  1.00  0.00     0.012 A 
BRANCH   9  12
HETATM   12  O1  UNL     1      24.057   2.799  49.930  1.00  0.00    -0.356 OA
HETATM   13  C1  UNL     1      24.004   2.133  51.154  1.00  0.00     0.210 C 
ENDBRANCH   9  12
ENDBRANCH   1   6
BRANCH   5  14
HETATM   14  C15 UNL     1      26.830   8.647  50.185  1.00  0.00     0.219 C 
HETATM   15  N3  UNL     1      27.649   9.392  50.810  1.00  0.00    -0.294 NA
HETATM   16  H14 UNL     1      27.487   9.956  51.651  1.00  0.00     0.187 HD
ENDBRANCH   5  14
BRANCH   3  17
HETATM   17  C9  UNL     1      30.849   8.192  47.534  1.00  0.00    -0.010 A 
HETATM   18  C10 UNL     1      31.401   9.394  47.924  1.00  0.00     0.015 A 
HETATM   19  C11 UNL     1      32.635   9.744  47.399  1.00  0.00     0.024 A 
HETATM   20  C12 UNL     1      33.269   8.883  46.505  1.00  0.00     0.034 A 
HETATM   21 CL1  UNL     1      34.824   9.285  45.819  1.00  0.00    -0.084 Cl
HETATM   22  C13 UNL     1      32.669   7.692  46.148  1.00  0.00     0.024 A 
HETATM   23  C14 UNL     1      31.434   7.304  46.651  1.00  0.00     0.015 A 
ENDBRANCH   3  17
TORSDOF 4
ENDMDL
