MODEL 1
REMARK VINA RESULT:      -9.1      0.000      0.000
REMARK  5 active torsions:
REMARK  status: ('A' for Active; 'I' for Inactive)
REMARK       I    between atoms: C1_2  and  N1_3 
REMARK    1  A    between atoms: C1_2  and  C8_11 
REMARK    2  A    between atoms: N1_3  and  C2_4 
REMARK    3  A    between atoms: C11_14  and  O3_15 
REMARK    4  A    between atoms: O3_15  and  C12_16 
REMARK    5  A    between atoms: C12_16  and  C13_17 
ROOT
HETATM    1  C8  UNL     1      22.976  -0.673  54.183  1.00  0.00     0.034 A 
HETATM    2  C9  UNL     1      22.151  -1.730  54.511  1.00  0.00     0.020 A 
HETATM    3  C10 UNL     1      20.765  -1.690  54.326  1.00  0.00     0.039 A 
HETATM    4  C11 UNL     1      20.205  -0.547  53.792  1.00  0.00     0.090 A 
HETATM    5  C19 UNL     1      21.011   0.545  53.447  1.00  0.00     0.068 A 
HETATM    6 CL1  UNL     1      20.358   2.033  52.763  1.00  0.00    -0.081 Cl
HETATM    7  C20 UNL     1      22.363   0.444  53.654  1.00  0.00     0.044 A 
ENDROOT
BRANCH   1   8
HETATM    8  C1  UNL     1      24.411  -0.806  54.413  1.00  0.00     0.256 C 
HETATM    9  O1  UNL     1      24.751  -1.322  55.505  1.00  0.00    -0.267 OA
HETATM   10  N1  UNL     1      25.368  -0.379  53.459  1.00  0.00    -0.324 N 
HETATM   11  H1  UNL     1      25.080   0.049  52.553  1.00  0.00     0.169 HD
BRANCH  10  12
HETATM   12  C2  UNL     1      26.781  -0.465  53.590  1.00  0.00     0.036 C 
HETATM   13  C3  UNL     1      27.375  -1.519  53.005  1.00  0.00     0.027 C 
HETATM   14  C4  UNL     1      28.833  -1.757  53.047  1.00  0.00     0.000 C 
HETATM   15  C5  UNL     1      29.815  -0.933  53.399  1.00  0.00    -0.001 C 
HETATM   16  C6  UNL     1      29.560   0.483  53.843  1.00  0.00     0.195 C 
HETATM   17  O2  UNL     1      28.610   0.395  54.860  1.00  0.00    -0.382 OA
HETATM   18  C7  UNL     1      27.352   0.679  54.381  1.00  0.00     0.225 C 
ENDBRANCH  10  12
ENDBRANCH   1   8
BRANCH   4  19
HETATM   19  O3  UNL     1      18.843  -0.415  53.572  1.00  0.00    -0.345 OA
BRANCH  19  20
HETATM   20  C12 UNL     1      18.162  -0.840  52.417  1.00  0.00     0.214 C 
BRANCH  20  21
HETATM   21  C13 UNL     1      17.280  -1.997  52.718  1.00  0.00    -0.031 A 
HETATM   22  C14 UNL     1      17.672  -3.073  53.481  1.00  0.00     0.009 A 
HETATM   23  C15 UNL     1      16.809  -4.136  53.737  1.00  0.00     0.004 A 
HETATM   24  C16 UNL     1      15.533  -4.063  53.189  1.00  0.00     0.042 A 
HETATM   25  C17 UNL     1      15.136  -2.980  52.421  1.00  0.00     0.117 A 
HETATM   26  F1  UNL     1      13.876  -2.987  51.924  1.00  0.00    -0.206 F 
HETATM   27  C18 UNL     1      16.015  -1.929  52.178  1.00  0.00     0.051 A 
ENDBRANCH  20  21
ENDBRANCH  19  20
ENDBRANCH   4  19
TORSDOF 5
ENDMDL
MODEL 2
REMARK VINA RESULT:      -8.8      1.416      1.930
REMARK  5 active torsions:
REMARK  status: ('A' for Active; 'I' for Inactive)
REMARK       I    between atoms: C1_2  and  N1_3 
REMARK    1  A    between atoms: C1_2  and  C8_11 
REMARK    2  A    between atoms: N1_3  and  C2_4 
REMARK    3  A    between atoms: C11_14  and  O3_15 
REMARK    4  A    between atoms: O3_15  and  C12_16 
REMARK    5  A    between atoms: C12_16  and  C13_17 
ROOT
HETATM    1  C8  UNL     1      23.068  -0.657  54.114  1.00  0.00     0.034 A 
HETATM    2  C9  UNL     1      22.222  -1.670  54.518  1.00  0.00     0.020 A 
HETATM    3  C10 UNL     1      20.840  -1.626  54.310  1.00  0.00     0.039 A 
HETATM    4  C11 UNL     1      20.305  -0.525  53.673  1.00  0.00     0.090 A 
HETATM    5  C19 UNL     1      21.133   0.522  53.248  1.00  0.00     0.068 A 
HETATM    6 CL1  UNL     1      20.511   1.955  52.430  1.00  0.00    -0.081 Cl
HETATM    7  C20 UNL     1      22.480   0.420  53.483  1.00  0.00     0.044 A 
ENDROOT
BRANCH   1   8
HETATM    8  C1  UNL     1      24.498  -0.790  54.376  1.00  0.00     0.256 C 
HETATM    9  O1  UNL     1      24.813  -1.300  55.478  1.00  0.00    -0.267 OA
HETATM   10  N1  UNL     1      25.475  -0.369  53.440  1.00  0.00    -0.324 N 
HETATM   11  H1  UNL     1      25.208   0.054  52.526  1.00  0.00     0.169 HD
BRANCH  10  12
HETATM   12  C2  UNL     1      26.885  -0.456  53.602  1.00  0.00     0.036 C 
HETATM   13  C3  UNL     1      27.492  -1.509  53.028  1.00  0.00     0.027 C 
HETATM   14  C4  UNL     1      28.948  -1.748  53.101  1.00  0.00     0.000 C 
HETATM   15  C5  UNL     1      29.922  -0.925  53.477  1.00  0.00    -0.001 C 
HETATM   16  C6  UNL     1      29.658   0.490  53.919  1.00  0.00     0.195 C 
HETATM   17  O2  UNL     1      28.686   0.400  54.914  1.00  0.00    -0.382 OA
HETATM   18  C7  UNL     1      27.439   0.685  54.409  1.00  0.00     0.225 C 
ENDBRANCH  10  12
ENDBRANCH   1   8
BRANCH   4  19
HETATM   19  O3  UNL     1      18.948  -0.393  53.422  1.00  0.00    -0.345 OA
BRANCH  19  20
HETATM   20  C12 UNL     1      18.029  -1.454  53.353  1.00  0.00     0.214 C 
BRANCH  20  21
HETATM   21  C13 UNL     1      17.045  -1.233  52.262  1.00  0.00    -0.031 A 
HETATM   22  C14 UNL     1      15.804  -1.826  52.226  1.00  0.00     0.009 A 
HETATM   23  C15 UNL     1      14.914  -1.588  51.182  1.00  0.00     0.004 A 
HETATM   24  C16 UNL     1      15.332  -0.725  50.176  1.00  0.00     0.042 A 
HETATM   25  C17 UNL     1      16.582  -0.126  50.209  1.00  0.00     0.117 A 
HETATM   26  F1  UNL     1      16.912   0.703  49.190  1.00  0.00    -0.206 F 
HETATM   27  C18 UNL     1      17.456  -0.378  51.263  1.00  0.00     0.051 A 
ENDBRANCH  20  21
ENDBRANCH  19  20
ENDBRANCH   4  19
TORSDOF 5
ENDMDL
MODEL 3
REMARK VINA RESULT:      -8.4      7.386     10.192
REMARK  5 active torsions:
REMARK  status: ('A' for Active; 'I' for Inactive)
REMARK       I    between atoms: C1_2  and  N1_3 
REMARK    1  A    between atoms: C1_2  and  C8_11 
REMARK    2  A    between atoms: N1_3  and  C2_4 
REMARK    3  A    between atoms: C11_14  and  O3_15 
REMARK    4  A    between atoms: O3_15  and  C12_16 
REMARK    5  A    between atoms: C12_16  and  C13_17 
ROOT
HETATM    1  C8  UNL     1      25.513   4.611  50.121  1.00  0.00     0.034 A 
HETATM    2  C9  UNL     1      26.572   3.730  50.040  1.00  0.00     0.020 A 
HETATM    3  C10 UNL     1      26.555   2.473  50.652  1.00  0.00     0.039 A 
HETATM    4  C11 UNL     1      25.432   2.101  51.361  1.00  0.00     0.090 A 
HETATM    5  C19 UNL     1      24.337   2.968  51.465  1.00  0.00     0.068 A 
HETATM    6 CL1  UNL     1      22.874   2.553  52.357  1.00  0.00    -0.081 Cl
HETATM    7  C20 UNL     1      24.415   4.189  50.843  1.00  0.00     0.044 A 
ENDROOT
BRANCH   1   8
HETATM    8  C1  UNL     1      25.621   5.903  49.451  1.00  0.00     0.256 C 
HETATM    9  O1  UNL     1      24.696   6.194  48.655  1.00  0.00    -0.267 OA
HETATM   10  N1  UNL     1      26.708   6.782  49.685  1.00  0.00    -0.324 N 
HETATM   11  H1  UNL     1      27.475   6.536  50.347  1.00  0.00     0.169 HD
BRANCH  10  12
HETATM   12  C2  UNL     1      26.903   8.056  49.084  1.00  0.00     0.036 C 
HETATM   13  C3  UNL     1      27.535   8.068  47.898  1.00  0.00     0.027 C 
HETATM   14  C4  UNL     1      27.818   9.306  47.141  1.00  0.00     0.000 C 
HETATM   15  C5  UNL     1      27.325  10.529  47.306  1.00  0.00    -0.001 C 
HETATM   16  C6  UNL     1      26.324  10.857  48.381  1.00  0.00     0.195 C 
HETATM   17  O2  UNL     1      26.880  10.392  49.572  1.00  0.00    -0.382 OA
HETATM   18  C7  UNL     1      26.344   9.173  49.919  1.00  0.00     0.225 C 
ENDBRANCH  10  12
ENDBRANCH   1   8
BRANCH   4  19
HETATM   19  O3  UNL     1      25.323   0.875  52.000  1.00  0.00    -0.345 OA
BRANCH  19  20
HETATM   20  C12 UNL     1      25.699   0.618  53.330  1.00  0.00     0.214 C 
BRANCH  20  21
HETATM   21  C13 UNL     1      27.109   0.154  53.402  1.00  0.00    -0.031 A 
HETATM   22  C14 UNL     1      28.164   0.976  53.725  1.00  0.00     0.009 A 
HETATM   23  C15 UNL     1      29.470   0.496  53.781  1.00  0.00     0.004 A 
HETATM   24  C16 UNL     1      29.663  -0.850  53.496  1.00  0.00     0.042 A 
HETATM   25  C17 UNL     1      28.603  -1.681  53.170  1.00  0.00     0.117 A 
HETATM   26  F1  UNL     1      28.877  -2.981  52.906  1.00  0.00    -0.206 F 
HETATM   27  C18 UNL     1      27.305  -1.180  53.121  1.00  0.00     0.051 A 
ENDBRANCH  20  21
ENDBRANCH  19  20
ENDBRANCH   4  19
TORSDOF 5
ENDMDL
MODEL 4
REMARK VINA RESULT:      -8.3      7.967     10.461
REMARK  5 active torsions:
REMARK  status: ('A' for Active; 'I' for Inactive)
REMARK       I    between atoms: C1_2  and  N1_3 
REMARK    1  A    between atoms: C1_2  and  C8_11 
REMARK    2  A    between atoms: N1_3  and  C2_4 
REMARK    3  A    between atoms: C11_14  and  O3_15 
REMARK    4  A    between atoms: O3_15  and  C12_16 
REMARK    5  A    between atoms: C12_16  and  C13_17 
ROOT
HETATM    1  C8  UNL     1      26.563   5.576  49.170  1.00  0.00     0.034 A 
HETATM    2  C9  UNL     1      27.092   4.307  49.050  1.00  0.00     0.020 A 
HETATM    3  C10 UNL     1      26.456   3.173  49.566  1.00  0.00     0.039 A 
HETATM    4  C11 UNL     1      25.251   3.334  50.219  1.00  0.00     0.090 A 
HETATM    5  C19 UNL     1      24.684   4.607  50.360  1.00  0.00     0.068 A 
HETATM    6 CL1  UNL     1      23.150   4.879  51.185  1.00  0.00    -0.081 Cl
HETATM    7  C20 UNL     1      25.357   5.679  49.833  1.00  0.00     0.044 A 
ENDROOT
BRANCH   1   8
HETATM    8  C1  UNL     1      27.299   6.700  48.600  1.00  0.00     0.256 C 
HETATM    9  O1  UNL     1      26.692   7.380  47.739  1.00  0.00    -0.267 OA
HETATM   10  N1  UNL     1      28.624   7.008  48.997  1.00  0.00    -0.324 N 
HETATM   11  H1  UNL     1      29.125   6.440  49.713  1.00  0.00     0.169 HD
BRANCH  10  12
HETATM   12  C2  UNL     1      29.422   8.077  48.502  1.00  0.00     0.036 C 
HETATM   13  C3  UNL     1      29.469   9.189  49.256  1.00  0.00     0.027 C 
HETATM   14  C4  UNL     1      30.249  10.388  48.887  1.00  0.00     0.000 C 
HETATM   15  C5  UNL     1      31.196  10.531  47.965  1.00  0.00    -0.001 C 
HETATM   16  C6  UNL     1      31.649   9.392  47.091  1.00  0.00     0.195 C 
HETATM   17  O2  UNL     1      30.489   8.868  46.520  1.00  0.00    -0.382 OA
HETATM   18  C7  UNL     1      30.077   7.741  47.192  1.00  0.00     0.225 C 
ENDBRANCH  10  12
ENDBRANCH   1   8
BRANCH   4  19
HETATM   19  O3  UNL     1      24.548   2.270  50.763  1.00  0.00    -0.345 OA
BRANCH  19  20
HETATM   20  C12 UNL     1      24.543   1.911  52.122  1.00  0.00     0.214 C 
BRANCH  20  21
HETATM   21  C13 UNL     1      25.859   1.357  52.530  1.00  0.00    -0.031 A 
HETATM   22  C14 UNL     1      26.209   0.035  52.369  1.00  0.00     0.009 A 
HETATM   23  C15 UNL     1      27.456  -0.440  52.765  1.00  0.00     0.004 A 
HETATM   24  C16 UNL     1      28.334   0.477  53.331  1.00  0.00     0.042 A 
HETATM   25  C17 UNL     1      27.985   1.808  53.494  1.00  0.00     0.117 A 
HETATM   26  F1  UNL     1      28.898   2.637  54.053  1.00  0.00    -0.206 F 
HETATM   27  C18 UNL     1      26.732   2.262  53.090  1.00  0.00     0.051 A 
ENDBRANCH  20  21
ENDBRANCH  19  20
ENDBRANCH   4  19
TORSDOF 5
ENDMDL
MODEL 5
REMARK VINA RESULT:      -8.2      7.292      8.721
REMARK  5 active torsions:
REMARK  status: ('A' for Active; 'I' for Inactive)
REMARK       I    between atoms: C1_2  and  N1_3 
REMARK    1  A    between atoms: C1_2  and  C8_11 
REMARK    2  A    between atoms: N1_3  and  C2_4 
REMARK    3  A    between atoms: C11_14  and  O3_15 
REMARK    4  A    between atoms: O3_15  and  C12_16 
REMARK    5  A    between atoms: C12_16  and  C13_17 
ROOT
HETATM    1  C8  UNL     1      25.753   4.879  49.367  1.00  0.00     0.034 A 
HETATM    2  C9  UNL     1      24.377   4.790  49.305  1.00  0.00     0.020 A 
HETATM    3  C10 UNL     1      23.663   3.734  49.882  1.00  0.00     0.039 A 
HETATM    4  C11 UNL     1      24.366   2.745  50.539  1.00  0.00     0.090 A 
HETATM    5  C19 UNL     1      25.763   2.802  50.622  1.00  0.00     0.068 A 
HETATM    6 CL1  UNL     1      26.719   1.571  51.446  1.00  0.00    -0.081 Cl
HETATM    7  C20 UNL     1      26.405   3.863  50.036  1.00  0.00     0.044 A 
ENDROOT
BRANCH   1   8
HETATM    8  C1  UNL     1      26.411   6.017  48.735  1.00  0.00     0.256 C 
HETATM    9  O1  UNL     1      25.682   6.758  48.033  1.00  0.00    -0.267 OA
HETATM   10  N1  UNL     1      27.795   6.274  48.904  1.00  0.00    -0.324 N 
HETATM   11  H1  UNL     1      28.396   5.655  49.489  1.00  0.00     0.169 HD
BRANCH  10  12
HETATM   12  C2  UNL     1      28.525   7.352  48.332  1.00  0.00     0.036 C 
HETATM   13  C3  UNL     1      29.188   7.089  47.193  1.00  0.00     0.027 C 
HETATM   14  C4  UNL     1      29.994   8.096  46.471  1.00  0.00     0.000 C 
HETATM   15  C5  UNL     1      30.024   9.417  46.616  1.00  0.00    -0.001 C 
HETATM   16  C6  UNL     1      29.168  10.138  47.622  1.00  0.00     0.195 C 
HETATM   17  O2  UNL     1      29.408   9.509  48.843  1.00  0.00    -0.382 OA
HETATM   18  C7  UNL     1      28.407   8.614  49.139  1.00  0.00     0.225 C 
ENDBRANCH  10  12
ENDBRANCH   1   8
BRANCH   4  19
HETATM   19  O3  UNL     1      23.745   1.661  51.140  1.00  0.00    -0.345 OA
BRANCH  19  20
HETATM   20  C12 UNL     1      22.554   1.719  51.885  1.00  0.00     0.214 C 
BRANCH  20  21
HETATM   21  C13 UNL     1      22.568   0.720  52.984  1.00  0.00    -0.031 A 
HETATM   22  C14 UNL     1      21.435   0.298  53.642  1.00  0.00     0.009 A 
HETATM   23  C15 UNL     1      21.496  -0.642  54.667  1.00  0.00     0.004 A 
HETATM   24  C16 UNL     1      22.752  -1.138  54.999  1.00  0.00     0.042 A 
HETATM   25  C17 UNL     1      23.895  -0.716  54.338  1.00  0.00     0.117 A 
HETATM   26  F1  UNL     1      25.079  -1.249  54.722  1.00  0.00    -0.206 F 
HETATM   27  C18 UNL     1      23.810   0.225  53.316  1.00  0.00     0.051 A 
ENDBRANCH  20  21
ENDBRANCH  19  20
ENDBRANCH   4  19
TORSDOF 5
ENDMDL
MODEL 6
REMARK VINA RESULT:      -8.2      2.158      2.771
REMARK  5 active torsions:
REMARK  status: ('A' for Active; 'I' for Inactive)
REMARK       I    between atoms: C1_2  and  N1_3 
REMARK    1  A    between atoms: C1_2  and  C8_11 
REMARK    2  A    between atoms: N1_3  and  C2_4 
REMARK    3  A    between atoms: C11_14  and  O3_15 
REMARK    4  A    between atoms: O3_15  and  C12_16 
REMARK    5  A    between atoms: C12_16  and  C13_17 
ROOT
HETATM    1  C8  UNL     1      22.610  -0.158  52.904  1.00  0.00     0.034 A 
HETATM    2  C9  UNL     1      21.504  -0.473  53.668  1.00  0.00     0.020 A 
HETATM    3  C10 UNL     1      20.196  -0.335  53.194  1.00  0.00     0.039 A 
HETATM    4  C11 UNL     1      20.007   0.134  51.910  1.00  0.00     0.090 A 
HETATM    5  C19 UNL     1      21.105   0.463  51.105  1.00  0.00     0.068 A 
HETATM    6 CL1  UNL     1      20.931   1.067  49.458  1.00  0.00    -0.081 Cl
HETATM    7  C20 UNL     1      22.363   0.307  51.628  1.00  0.00     0.044 A 
ENDROOT
BRANCH   1   8
HETATM    8  C1  UNL     1      23.937  -0.333  53.484  1.00  0.00     0.256 C 
HETATM    9  O1  UNL     1      23.979  -0.874  54.616  1.00  0.00    -0.267 OA
HETATM   10  N1  UNL     1      25.112   0.080  52.810  1.00  0.00    -0.324 N 
HETATM   11  H1  UNL     1      25.072   0.529  51.870  1.00  0.00     0.169 HD
BRANCH  10  12
HETATM   12  C2  UNL     1      26.445  -0.047  53.291  1.00  0.00     0.036 C 
HETATM   13  C3  UNL     1      27.142  -1.110  52.853  1.00  0.00     0.027 C 
HETATM   14  C4  UNL     1      28.536  -1.389  53.256  1.00  0.00     0.000 C 
HETATM   15  C5  UNL     1      29.417  -0.596  53.859  1.00  0.00    -0.001 C 
HETATM   16  C6  UNL     1      29.092   0.820  54.251  1.00  0.00     0.195 C 
HETATM   17  O2  UNL     1      27.915   0.746  54.995  1.00  0.00    -0.382 OA
HETATM   18  C7  UNL     1      26.825   1.070  54.222  1.00  0.00     0.225 C 
ENDBRANCH  10  12
ENDBRANCH   1   8
BRANCH   4  19
HETATM   19  O3  UNL     1      18.748   0.303  51.353  1.00  0.00    -0.345 OA
BRANCH  19  20
HETATM   20  C12 UNL     1      17.615  -0.471  51.659  1.00  0.00     0.214 C 
BRANCH  20  21
HETATM   21  C13 UNL     1      16.462   0.395  52.014  1.00  0.00    -0.031 A 
HETATM   22  C14 UNL     1      16.325   1.694  51.581  1.00  0.00     0.009 A 
HETATM   23  C15 UNL     1      15.225   2.469  51.939  1.00  0.00     0.004 A 
HETATM   24  C16 UNL     1      14.269   1.874  52.754  1.00  0.00     0.042 A 
HETATM   25  C17 UNL     1      14.403   0.566  53.192  1.00  0.00     0.117 A 
HETATM   26  F1  UNL     1      13.427   0.061  53.983  1.00  0.00    -0.206 F 
HETATM   27  C18 UNL     1      15.512  -0.191  52.821  1.00  0.00     0.051 A 
ENDBRANCH  20  21
ENDBRANCH  19  20
ENDBRANCH   4  19
TORSDOF 5
ENDMDL
MODEL 7
REMARK VINA RESULT:      -8.2      7.489      9.038
REMARK  5 active torsions:
REMARK  status: ('A' for Active; 'I' for Inactive)
REMARK       I    between atoms: C1_2  and  N1_3 
REMARK    1  A    between atoms: C1_2  and  C8_11 
REMARK    2  A    between atoms: N1_3  and  C2_4 
REMARK    3  A    between atoms: C11_14  and  O3_15 
REMARK    4  A    between atoms: O3_15  and  C12_16 
REMARK    5  A    between atoms: C12_16  and  C13_17 
ROOT
HETATM    1  C8  UNL     1      25.869   5.449  49.604  1.00  0.00     0.034 A 
HETATM    2  C9  UNL     1      26.523   4.252  49.392  1.00  0.00     0.020 A 
HETATM    3  C10 UNL     1      26.050   3.035  49.895  1.00  0.00     0.039 A 
HETATM    4  C11 UNL     1      24.882   3.036  50.629  1.00  0.00     0.090 A 
HETATM    5  C19 UNL     1      24.191   4.231  50.864  1.00  0.00     0.068 A 
HETATM    6 CL1  UNL     1      22.695   4.299  51.795  1.00  0.00    -0.081 Cl
HETATM    7  C20 UNL     1      24.707   5.391  50.345  1.00  0.00     0.044 A 
ENDROOT
BRANCH   1   8
HETATM    8  C1  UNL     1      26.439   6.669  49.041  1.00  0.00     0.256 C 
HETATM    9  O1  UNL     1      26.231   6.864  47.820  1.00  0.00    -0.267 OA
HETATM   10  N1  UNL     1      27.184   7.582  49.828  1.00  0.00    -0.324 N 
HETATM   11  H1  UNL     1      27.354   7.415  50.842  1.00  0.00     0.169 HD
BRANCH  10  12
HETATM   12  C2  UNL     1      27.777   8.793  49.374  1.00  0.00     0.036 C 
HETATM   13  C3  UNL     1      29.098   8.759  49.131  1.00  0.00     0.027 C 
HETATM   14  C4  UNL     1      29.867   9.928  48.655  1.00  0.00     0.000 C 
HETATM   15  C5  UNL     1      29.432  11.078  48.151  1.00  0.00    -0.001 C 
HETATM   16  C6  UNL     1      27.968  11.381  47.979  1.00  0.00     0.195 C 
HETATM   17  O2  UNL     1      27.382  11.141  49.221  1.00  0.00    -0.382 OA
HETATM   18  C7  UNL     1      26.776   9.907  49.248  1.00  0.00     0.225 C 
ENDBRANCH  10  12
ENDBRANCH   1   8
BRANCH   4  19
HETATM   19  O3  UNL     1      24.337   1.880  51.167  1.00  0.00    -0.345 OA
BRANCH  19  20
HETATM   20  C12 UNL     1      24.774   1.249  52.345  1.00  0.00     0.214 C 
BRANCH  20  21
HETATM   21  C13 UNL     1      23.630   0.656  53.084  1.00  0.00    -0.031 A 
HETATM   22  C14 UNL     1      22.324   1.057  52.912  1.00  0.00     0.009 A 
HETATM   23  C15 UNL     1      21.283   0.471  53.627  1.00  0.00     0.004 A 
HETATM   24  C16 UNL     1      21.618  -0.538  54.523  1.00  0.00     0.042 A 
HETATM   25  C17 UNL     1      22.932  -0.944  54.698  1.00  0.00     0.117 A 
HETATM   26  F1  UNL     1      23.173  -1.934  55.590  1.00  0.00    -0.206 F 
HETATM   27  C18 UNL     1      23.957  -0.345  53.972  1.00  0.00     0.051 A 
ENDBRANCH  20  21
ENDBRANCH  19  20
ENDBRANCH   4  19
TORSDOF 5
ENDMDL
MODEL 8
REMARK VINA RESULT:      -8.1      3.879      9.907
REMARK  5 active torsions:
REMARK  status: ('A' for Active; 'I' for Inactive)
REMARK       I    between atoms: C1_2  and  N1_3 
REMARK    1  A    between atoms: C1_2  and  C8_11 
REMARK    2  A    between atoms: N1_3  and  C2_4 
REMARK    3  A    between atoms: C11_14  and  O3_15 
REMARK    4  A    between atoms: O3_15  and  C12_16 
REMARK    5  A    between atoms: C12_16  and  C13_17 
ROOT
HETATM    1  C8  UNL     1      22.017   1.450  52.024  1.00  0.00     0.034 A 
HETATM    2  C9  UNL     1      22.779   0.764  52.948  1.00  0.00     0.020 A 
HETATM    3  C10 UNL     1      24.177   0.797  52.947  1.00  0.00     0.039 A 
HETATM    4  C11 UNL     1      24.816   1.548  51.982  1.00  0.00     0.090 A 
HETATM    5  C19 UNL     1      24.077   2.259  51.029  1.00  0.00     0.068 A 
HETATM    6 CL1  UNL     1      24.833   3.235  49.771  1.00  0.00    -0.081 Cl
HETATM    7  C20 UNL     1      22.708   2.185  51.083  1.00  0.00     0.044 A 
ENDROOT
BRANCH   1   8
HETATM    8  C1  UNL     1      20.563   1.355  52.104  1.00  0.00     0.256 C 
HETATM    9  O1  UNL     1      19.982   2.272  52.733  1.00  0.00    -0.267 OA
HETATM   10  N1  UNL     1      19.846   0.290  51.504  1.00  0.00    -0.324 N 
HETATM   11  H1  UNL     1      20.333  -0.469  50.983  1.00  0.00     0.169 HD
BRANCH  10  12
HETATM   12  C2  UNL     1      18.435   0.110  51.527  1.00  0.00     0.036 C 
HETATM   13  C3  UNL     1      17.946  -0.670  52.505  1.00  0.00     0.027 C 
HETATM   14  C4  UNL     1      16.506  -0.960  52.670  1.00  0.00     0.000 C 
HETATM   15  C5  UNL     1      15.454  -0.363  52.118  1.00  0.00    -0.001 C 
HETATM   16  C6  UNL     1      15.592   0.793  51.163  1.00  0.00     0.195 C 
HETATM   17  O2  UNL     1      16.483   0.367  50.178  1.00  0.00    -0.382 OA
HETATM   18  C7  UNL     1      17.747   0.854  50.417  1.00  0.00     0.225 C 
ENDBRANCH  10  12
ENDBRANCH   1   8
BRANCH   4  19
HETATM   19  O3  UNL     1      26.197   1.641  51.902  1.00  0.00    -0.345 OA
BRANCH  19  20
HETATM   20  C12 UNL     1      27.062   1.838  52.993  1.00  0.00     0.214 C 
BRANCH  20  21
HETATM   21  C13 UNL     1      27.988   0.687  53.148  1.00  0.00    -0.031 A 
HETATM   22  C14 UNL     1      29.294   0.813  53.565  1.00  0.00     0.009 A 
HETATM   23  C15 UNL     1      30.126  -0.296  53.697  1.00  0.00     0.004 A 
HETATM   24  C16 UNL     1      29.581  -1.538  53.391  1.00  0.00     0.042 A 
HETATM   25  C17 UNL     1      28.267  -1.668  52.972  1.00  0.00     0.117 A 
HETATM   26  F1  UNL     1      27.813  -2.913  52.695  1.00  0.00    -0.206 F 
HETATM   27  C18 UNL     1      27.452  -0.546  52.847  1.00  0.00     0.051 A 
ENDBRANCH  20  21
ENDBRANCH  19  20
ENDBRANCH   4  19
TORSDOF 5
ENDMDL
MODEL 9
REMARK VINA RESULT:      -8.1      7.438      9.077
REMARK  5 active torsions:
REMARK  status: ('A' for Active; 'I' for Inactive)
REMARK       I    between atoms: C1_2  and  N1_3 
REMARK    1  A    between atoms: C1_2  and  C8_11 
REMARK    2  A    between atoms: N1_3  and  C2_4 
REMARK    3  A    between atoms: C11_14  and  O3_15 
REMARK    4  A    between atoms: O3_15  and  C12_16 
REMARK    5  A    between atoms: C12_16  and  C13_17 
ROOT
HETATM    1  C8  UNL     1      26.516   5.573  49.243  1.00  0.00     0.034 A 
HETATM    2  C9  UNL     1      27.024   4.300  49.081  1.00  0.00     0.020 A 
HETATM    3  C10 UNL     1      26.401   3.166  49.615  1.00  0.00     0.039 A 
HETATM    4  C11 UNL     1      25.232   3.332  50.329  1.00  0.00     0.090 A 
HETATM    5  C19 UNL     1      24.687   4.609  50.513  1.00  0.00     0.068 A 
HETATM    6 CL1  UNL     1      23.199   4.888  51.416  1.00  0.00    -0.081 Cl
HETATM    7  C20 UNL     1      25.346   5.681  49.967  1.00  0.00     0.044 A 
ENDROOT
BRANCH   1   8
HETATM    8  C1  UNL     1      27.236   6.696  48.652  1.00  0.00     0.256 C 
HETATM    9  O1  UNL     1      26.589   7.404  47.843  1.00  0.00    -0.267 OA
HETATM   10  N1  UNL     1      28.588   6.974  48.972  1.00  0.00    -0.324 N 
HETATM   11  H1  UNL     1      29.122   6.383  49.644  1.00  0.00     0.169 HD
BRANCH  10  12
HETATM   12  C2  UNL     1      29.373   8.039  48.450  1.00  0.00     0.036 C 
HETATM   13  C3  UNL     1      29.432   9.159  49.191  1.00  0.00     0.027 C 
HETATM   14  C4  UNL     1      30.202  10.357  48.793  1.00  0.00     0.000 C 
HETATM   15  C5  UNL     1      31.130  10.491  47.852  1.00  0.00    -0.001 C 
HETATM   16  C6  UNL     1      31.568   9.344  46.981  1.00  0.00     0.195 C 
HETATM   17  O2  UNL     1      30.399   8.812  46.439  1.00  0.00    -0.382 OA
HETATM   18  C7  UNL     1      30.004   7.691  47.131  1.00  0.00     0.225 C 
ENDBRANCH  10  12
ENDBRANCH   1   8
BRANCH   4  19
HETATM   19  O3  UNL     1      24.545   2.269  50.894  1.00  0.00    -0.345 OA
BRANCH  19  20
HETATM   20  C12 UNL     1      24.937   1.571  52.049  1.00  0.00     0.214 C 
BRANCH  20  21
HETATM   21  C13 UNL     1      23.774   0.902  52.686  1.00  0.00    -0.031 A 
HETATM   22  C14 UNL     1      23.843  -0.334  53.286  1.00  0.00     0.009 A 
HETATM   23  C15 UNL     1      22.725  -0.923  53.871  1.00  0.00     0.004 A 
HETATM   24  C16 UNL     1      21.534  -0.207  53.823  1.00  0.00     0.042 A 
HETATM   25  C17 UNL     1      21.461   1.038  53.220  1.00  0.00     0.117 A 
HETATM   26  F1  UNL     1      20.263   1.669  53.217  1.00  0.00    -0.206 F 
HETATM   27  C18 UNL     1      22.592   1.608  52.641  1.00  0.00     0.051 A 
ENDBRANCH  20  21
ENDBRANCH  19  20
ENDBRANCH   4  19
TORSDOF 5
ENDMDL
