MODEL 1
REMARK VINA RESULT:      -9.4      0.000      0.000
REMARK  4 active torsions:
REMARK  status: ('A' for Active; 'I' for Inactive)
REMARK    1  A    between atoms: O1_2  and  C2_3 
REMARK    2  A    between atoms: C2_3  and  C3_4 
REMARK    3  A    between atoms: C3_4  and  C4_5 
REMARK    4  A    between atoms: C4_5  and  C5_6 
ROOT
HETATM    1  C5  UNL     1      20.948   0.816  51.920  1.00  0.00     0.083 A 
HETATM    2  C6  UNL     1      19.604   0.238  52.264  1.00  0.00    -0.019 A 
HETATM    3  C7  UNL     1      18.458   0.687  51.613  1.00  0.00     0.010 A 
HETATM    4  C8  UNL     1      17.177   0.230  51.849  1.00  0.00     0.001 A 
HETATM    5  C9  UNL     1      17.025  -0.752  52.807  1.00  0.00     0.002 A 
HETATM    6  C10 UNL     1      18.132  -1.228  53.478  1.00  0.00     0.030 A 
HETATM    7  C11 UNL     1      19.376  -0.738  53.203  1.00  0.00     0.041 A 
HETATM    8  N1  UNL     1      20.497  -1.246  53.914  1.00  0.00    -0.336 N 
HETATM    9  C12 UNL     1      21.839  -0.813  53.722  1.00  0.00     0.159 A 
HETATM   10  O2  UNL     1      23.018  -1.100  54.224  1.00  0.00    -0.286 OA
HETATM   11  C13 UNL     1      23.945  -0.361  53.650  1.00  0.00     0.163 A 
HETATM   12  C14 UNL     1      25.284  -0.469  54.000  1.00  0.00     0.219 C 
HETATM   13  O3  UNL     1      25.673  -1.493  54.582  1.00  0.00    -0.284 OA
HETATM   14  C15 UNL     1      26.254   0.495  53.750  1.00  0.00     0.033 A 
HETATM   15  C16 UNL     1      27.369   0.334  54.525  1.00  0.00     0.016 A 
HETATM   16  C17 UNL     1      28.425   1.216  54.393  1.00  0.00     0.001 A 
HETATM   17  C18 UNL     1      28.368   2.271  53.478  1.00  0.00     0.001 A 
HETATM   18  C19 UNL     1      27.226   2.420  52.698  1.00  0.00     0.018 A 
HETATM   19  C20 UNL     1      26.180   1.532  52.840  1.00  0.00     0.054 A 
HETATM   20  C21 UNL     1      25.147   1.846  51.985  1.00  0.00     0.299 C 
HETATM   21  O4  UNL     1      25.334   2.727  51.114  1.00  0.00    -0.259 OA
HETATM   22  O5  UNL     1      23.938   1.336  51.943  1.00  0.00    -0.271 OA
HETATM   23  C22 UNL     1      23.324   0.466  52.707  1.00  0.00     0.129 A 
HETATM   24  C23 UNL     1      21.967   0.167  52.760  1.00  0.00     0.042 A 
HETATM   25  H13 UNL     1      20.319  -1.993  54.634  1.00  0.00     0.168 HD
ENDROOT
BRANCH   1  26
HETATM   26  C4  UNL     1      21.184   0.494  50.469  1.00  0.00    -0.014 C 
BRANCH  26  27
HETATM   27  C3  UNL     1      21.506   0.885  49.268  1.00  0.00    -0.004 C 
BRANCH  27  28
HETATM   28  C2  UNL     1      21.993   1.568  48.059  1.00  0.00     0.194 C 
BRANCH  28  29
HETATM   29  O1  UNL     1      23.024   2.417  48.373  1.00  0.00    -0.392 OA
HETATM   30  C1  UNL     1      22.548   3.595  48.910  1.00  0.00     0.201 C 
ENDBRANCH  28  29
ENDBRANCH  27  28
ENDBRANCH  26  27
ENDBRANCH   1  26
TORSDOF 4
ENDMDL
MODEL 2
REMARK VINA RESULT:      -9.3      2.802      5.655
REMARK  4 active torsions:
REMARK  status: ('A' for Active; 'I' for Inactive)
REMARK    1  A    between atoms: O1_2  and  C2_3 
REMARK    2  A    between atoms: C2_3  and  C3_4 
REMARK    3  A    between atoms: C3_4  and  C4_5 
REMARK    4  A    between atoms: C4_5  and  C5_6 
ROOT
HETATM    1  C5  UNL     1      23.685   0.984  52.367  1.00  0.00     0.083 A 
HETATM    2  C6  UNL     1      22.523   0.257  52.983  1.00  0.00    -0.019 A 
HETATM    3  C7  UNL     1      22.665  -1.058  53.419  1.00  0.00     0.010 A 
HETATM    4  C8  UNL     1      21.669  -1.819  53.995  1.00  0.00     0.001 A 
HETATM    5  C9  UNL     1      20.433  -1.225  54.151  1.00  0.00     0.002 A 
HETATM    6  C10 UNL     1      20.244   0.076  53.734  1.00  0.00     0.030 A 
HETATM    7  C11 UNL     1      21.267   0.782  53.169  1.00  0.00     0.041 A 
HETATM    8  N1  UNL     1      21.040   2.119  52.745  1.00  0.00    -0.336 N 
HETATM    9  C12 UNL     1      22.021   2.953  52.141  1.00  0.00     0.159 A 
HETATM   10  O2  UNL     1      22.079   4.177  51.670  1.00  0.00    -0.286 OA
HETATM   11  C13 UNL     1      23.288   4.429  51.211  1.00  0.00     0.163 A 
HETATM   12  C14 UNL     1      23.616   5.659  50.658  1.00  0.00     0.219 C 
HETATM   13  O3  UNL     1      22.905   6.642  50.912  1.00  0.00    -0.284 OA
HETATM   14  C15 UNL     1      24.702   5.892  49.822  1.00  0.00     0.033 A 
HETATM   15  C16 UNL     1      24.579   7.054  49.111  1.00  0.00     0.016 A 
HETATM   16  C17 UNL     1      25.581   7.426  48.234  1.00  0.00     0.001 A 
HETATM   17  C18 UNL     1      26.717   6.630  48.063  1.00  0.00     0.001 A 
HETATM   18  C19 UNL     1      26.825   5.452  48.795  1.00  0.00     0.018 A 
HETATM   19  C20 UNL     1      25.818   5.093  49.667  1.00  0.00     0.054 A 
HETATM   20  C21 UNL     1      26.110   3.901  50.293  1.00  0.00     0.299 C 
HETATM   21  O4  UNL     1      27.252   3.407  50.144  1.00  0.00    -0.259 OA
HETATM   22  O5  UNL     1      25.333   3.170  51.058  1.00  0.00    -0.271 OA
HETATM   23  C22 UNL     1      24.073   3.285  51.397  1.00  0.00     0.129 A 
HETATM   24  C23 UNL     1      23.248   2.339  51.996  1.00  0.00     0.042 A 
HETATM   25  H13 UNL     1      20.076   2.518  52.890  1.00  0.00     0.168 HD
ENDROOT
BRANCH   1  26
HETATM   26  C4  UNL     1      24.748   1.050  53.431  1.00  0.00    -0.014 C 
BRANCH  26  27
HETATM   27  C3  UNL     1      25.994   0.905  53.786  1.00  0.00    -0.004 C 
BRANCH  27  28
HETATM   28  C2  UNL     1      27.282   0.569  54.413  1.00  0.00     0.194 C 
BRANCH  28  29
HETATM   29  O1  UNL     1      28.033   1.703  54.598  1.00  0.00    -0.392 OA
HETATM   30  C1  UNL     1      28.235   2.362  53.402  1.00  0.00     0.201 C 
ENDBRANCH  28  29
ENDBRANCH  27  28
ENDBRANCH  26  27
ENDBRANCH   1  26
TORSDOF 4
ENDMDL
MODEL 3
REMARK VINA RESULT:      -9.3      2.497      4.460
REMARK  4 active torsions:
REMARK  status: ('A' for Active; 'I' for Inactive)
REMARK    1  A    between atoms: O1_2  and  C2_3 
REMARK    2  A    between atoms: C2_3  and  C3_4 
REMARK    3  A    between atoms: C3_4  and  C4_5 
REMARK    4  A    between atoms: C4_5  and  C5_6 
ROOT
HETATM    1  C5  UNL     1      22.759   0.776  51.250  1.00  0.00     0.083 A 
HETATM    2  C6  UNL     1      21.751   1.799  50.812  1.00  0.00    -0.019 A 
HETATM    3  C7  UNL     1      20.578   1.404  50.173  1.00  0.00     0.010 A 
HETATM    4  C8  UNL     1      19.587   2.255  49.728  1.00  0.00     0.001 A 
HETATM    5  C9  UNL     1      19.777   3.606  49.935  1.00  0.00     0.002 A 
HETATM    6  C10 UNL     1      20.924   4.045  50.564  1.00  0.00     0.030 A 
HETATM    7  C11 UNL     1      21.871   3.157  50.983  1.00  0.00     0.041 A 
HETATM    8  N1  UNL     1      23.044   3.641  51.624  1.00  0.00    -0.336 N 
HETATM    9  C12 UNL     1      24.103   2.817  52.099  1.00  0.00     0.159 A 
HETATM   10  O2  UNL     1      25.255   2.994  52.703  1.00  0.00    -0.286 OA
HETATM   11  C13 UNL     1      25.840   1.832  52.909  1.00  0.00     0.163 A 
HETATM   12  C14 UNL     1      27.077   1.738  53.534  1.00  0.00     0.219 C 
HETATM   13  O3  UNL     1      27.475   2.689  54.223  1.00  0.00    -0.284 OA
HETATM   14  C15 UNL     1      27.929   0.644  53.454  1.00  0.00     0.033 A 
HETATM   15  C16 UNL     1      29.213   0.949  53.812  1.00  0.00     0.016 A 
HETATM   16  C17 UNL     1      30.182  -0.037  53.785  1.00  0.00     0.001 A 
HETATM   17  C18 UNL     1      29.867  -1.342  53.396  1.00  0.00     0.001 A 
HETATM   18  C19 UNL     1      28.556  -1.634  53.036  1.00  0.00     0.018 A 
HETATM   19  C20 UNL     1      27.599  -0.641  53.068  1.00  0.00     0.054 A 
HETATM   20  C21 UNL     1      26.370  -1.127  52.678  1.00  0.00     0.299 C 
HETATM   21  O4  UNL     1      26.233  -2.363  52.524  1.00  0.00    -0.259 OA
HETATM   22  O5  UNL     1      25.269  -0.457  52.433  1.00  0.00    -0.271 OA
HETATM   23  C22 UNL     1      25.008   0.827  52.402  1.00  0.00     0.129 A 
HETATM   24  C23 UNL     1      23.891   1.472  51.883  1.00  0.00     0.042 A 
HETATM   25  H13 UNL     1      23.134   4.682  51.753  1.00  0.00     0.168 HD
ENDROOT
BRANCH   1  26
HETATM   26  C4  UNL     1      22.057  -0.101  52.254  1.00  0.00    -0.014 C 
BRANCH  26  27
HETATM   27  C3  UNL     1      21.722  -0.351  53.488  1.00  0.00    -0.004 C 
BRANCH  27  28
HETATM   28  C2  UNL     1      21.630  -0.540  54.944  1.00  0.00     0.194 C 
BRANCH  28  29
HETATM   29  O1  UNL     1      22.307  -1.672  55.323  1.00  0.00    -0.392 OA
HETATM   30  C1  UNL     1      23.627  -1.387  55.605  1.00  0.00     0.201 C 
ENDBRANCH  28  29
ENDBRANCH  27  28
ENDBRANCH  26  27
ENDBRANCH   1  26
TORSDOF 4
ENDMDL
MODEL 4
REMARK VINA RESULT:      -9.1      3.445      6.104
REMARK  4 active torsions:
REMARK  status: ('A' for Active; 'I' for Inactive)
REMARK    1  A    between atoms: O1_2  and  C2_3 
REMARK    2  A    between atoms: C2_3  and  C3_4 
REMARK    3  A    between atoms: C3_4  and  C4_5 
REMARK    4  A    between atoms: C4_5  and  C5_6 
ROOT
HETATM    1  C5  UNL     1      23.652   2.310  51.456  1.00  0.00     0.083 A 
HETATM    2  C6  UNL     1      23.907   1.200  52.436  1.00  0.00    -0.019 A 
HETATM    3  C7  UNL     1      22.845   0.574  53.083  1.00  0.00     0.010 A 
HETATM    4  C8  UNL     1      22.963  -0.450  53.999  1.00  0.00     0.001 A 
HETATM    5  C9  UNL     1      24.238  -0.889  54.294  1.00  0.00     0.002 A 
HETATM    6  C10 UNL     1      25.322  -0.299  53.678  1.00  0.00     0.030 A 
HETATM    7  C11 UNL     1      25.145   0.713  52.778  1.00  0.00     0.041 A 
HETATM    8  N1  UNL     1      26.282   1.304  52.163  1.00  0.00    -0.336 N 
HETATM    9  C12 UNL     1      26.228   2.365  51.217  1.00  0.00     0.159 A 
HETATM   10  O2  UNL     1      27.088   3.071  50.521  1.00  0.00    -0.286 OA
HETATM   11  C13 UNL     1      26.452   3.954  49.778  1.00  0.00     0.163 A 
HETATM   12  C14 UNL     1      27.133   4.830  48.943  1.00  0.00     0.219 C 
HETATM   13  O3  UNL     1      28.296   4.561  48.609  1.00  0.00    -0.284 OA
HETATM   14  C15 UNL     1      26.611   6.014  48.434  1.00  0.00     0.033 A 
HETATM   15  C16 UNL     1      27.581   6.866  47.984  1.00  0.00     0.016 A 
HETATM   16  C17 UNL     1      27.220   8.088  47.448  1.00  0.00     0.001 A 
HETATM   17  C18 UNL     1      25.877   8.464  47.358  1.00  0.00     0.001 A 
HETATM   18  C19 UNL     1      24.904   7.584  47.820  1.00  0.00     0.018 A 
HETATM   19  C20 UNL     1      25.278   6.367  48.353  1.00  0.00     0.054 A 
HETATM   20  C21 UNL     1      24.176   5.643  48.752  1.00  0.00     0.299 C 
HETATM   21  O4  UNL     1      23.036   6.064  48.444  1.00  0.00    -0.259 OA
HETATM   22  O5  UNL     1      24.139   4.526  49.439  1.00  0.00    -0.271 OA
HETATM   23  C22 UNL     1      25.079   3.812  50.009  1.00  0.00     0.129 A 
HETATM   24  C23 UNL     1      24.944   2.785  50.937  1.00  0.00     0.042 A 
HETATM   25  H13 UNL     1      27.229   0.928  52.428  1.00  0.00     0.168 HD
ENDROOT
BRANCH   1  26
HETATM   26  C4  UNL     1      22.831   1.708  50.346  1.00  0.00    -0.014 C 
BRANCH  26  27
HETATM   27  C3  UNL     1      22.141   1.856  49.251  1.00  0.00    -0.004 C 
BRANCH  27  28
HETATM   28  C2  UNL     1      21.431   2.321  48.049  1.00  0.00     0.194 C 
BRANCH  28  29
HETATM   29  O1  UNL     1      22.327   2.667  47.069  1.00  0.00    -0.392 OA
HETATM   30  C1  UNL     1      21.798   3.629  46.233  1.00  0.00     0.201 C 
ENDBRANCH  28  29
ENDBRANCH  27  28
ENDBRANCH  26  27
ENDBRANCH   1  26
TORSDOF 4
ENDMDL
MODEL 5
REMARK VINA RESULT:      -9.0      1.985      6.823
REMARK  4 active torsions:
REMARK  status: ('A' for Active; 'I' for Inactive)
REMARK    1  A    between atoms: O1_2  and  C2_3 
REMARK    2  A    between atoms: C2_3  and  C3_4 
REMARK    3  A    between atoms: C3_4  and  C4_5 
REMARK    4  A    between atoms: C4_5  and  C5_6 
ROOT
HETATM    1  C5  UNL     1      24.950   1.382  52.686  1.00  0.00     0.083 A 
HETATM    2  C6  UNL     1      26.339   1.055  53.155  1.00  0.00    -0.019 A 
HETATM    3  C7  UNL     1      27.427   1.800  52.706  1.00  0.00     0.010 A 
HETATM    4  C8  UNL     1      28.741   1.588  53.068  1.00  0.00     0.001 A 
HETATM    5  C9  UNL     1      28.994   0.554  53.947  1.00  0.00     0.002 A 
HETATM    6  C10 UNL     1      27.948  -0.211  54.419  1.00  0.00     0.030 A 
HETATM    7  C11 UNL     1      26.666   0.044  54.025  1.00  0.00     0.041 A 
HETATM    8  N1  UNL     1      25.609  -0.765  54.525  1.00  0.00    -0.336 N 
HETATM    9  C12 UNL     1      24.237  -0.602  54.186  1.00  0.00     0.159 A 
HETATM   10  O2  UNL     1      23.101  -1.186  54.489  1.00  0.00    -0.286 OA
HETATM   11  C13 UNL     1      22.107  -0.594  53.858  1.00  0.00     0.163 A 
HETATM   12  C14 UNL     1      20.793  -1.019  54.006  1.00  0.00     0.219 C 
HETATM   13  O3  UNL     1      20.492  -1.709  54.991  1.00  0.00    -0.284 OA
HETATM   14  C15 UNL     1      19.759  -0.731  53.124  1.00  0.00     0.033 A 
HETATM   15  C16 UNL     1      18.691  -1.572  53.273  1.00  0.00     0.016 A 
HETATM   16  C17 UNL     1      17.579  -1.413  52.466  1.00  0.00     0.001 A 
HETATM   17  C18 UNL     1      17.533  -0.405  51.499  1.00  0.00     0.001 A 
HETATM   18  C19 UNL     1      18.628   0.441  51.362  1.00  0.00     0.018 A 
HETATM   19  C20 UNL     1      19.731   0.272  52.174  1.00  0.00     0.054 A 
HETATM   20  C21 UNL     1      20.704   1.202  51.885  1.00  0.00     0.299 C 
HETATM   21  O4  UNL     1      20.427   2.139  51.100  1.00  0.00    -0.259 OA
HETATM   22  O5  UNL     1      21.938   1.258  52.330  1.00  0.00    -0.271 OA
HETATM   23  C22 UNL     1      22.636   0.450  53.090  1.00  0.00     0.129 A 
HETATM   24  C23 UNL     1      24.009   0.437  53.308  1.00  0.00     0.042 A 
HETATM   25  H13 UNL     1      25.864  -1.539  55.191  1.00  0.00     0.168 HD
ENDROOT
BRANCH   1  26
HETATM   26  C4  UNL     1      24.669   2.785  53.154  1.00  0.00    -0.014 C 
BRANCH  26  27
HETATM   27  C3  UNL     1      24.063   3.927  52.986  1.00  0.00    -0.004 C 
BRANCH  27  28
HETATM   28  C2  UNL     1      23.379   5.135  52.499  1.00  0.00     0.194 C 
BRANCH  28  29
HETATM   29  O1  UNL     1      23.835   5.471  51.249  1.00  0.00    -0.392 OA
HETATM   30  C1  UNL     1      24.193   6.803  51.195  1.00  0.00     0.201 C 
ENDBRANCH  28  29
ENDBRANCH  27  28
ENDBRANCH  26  27
ENDBRANCH   1  26
TORSDOF 4
ENDMDL
MODEL 6
REMARK VINA RESULT:      -8.8      2.873      5.420
REMARK  4 active torsions:
REMARK  status: ('A' for Active; 'I' for Inactive)
REMARK    1  A    between atoms: O1_2  and  C2_3 
REMARK    2  A    between atoms: C2_3  and  C3_4 
REMARK    3  A    between atoms: C3_4  and  C4_5 
REMARK    4  A    between atoms: C4_5  and  C5_6 
ROOT
HETATM    1  C5  UNL     1      22.576   1.823  52.098  1.00  0.00     0.083 A 
HETATM    2  C6  UNL     1      22.716   0.736  53.125  1.00  0.00    -0.019 A 
HETATM    3  C7  UNL     1      21.591   0.223  53.765  1.00  0.00     0.010 A 
HETATM    4  C8  UNL     1      21.601  -0.771  54.721  1.00  0.00     0.001 A 
HETATM    5  C9  UNL     1      22.829  -1.299  55.068  1.00  0.00     0.002 A 
HETATM    6  C10 UNL     1      23.972  -0.823  54.460  1.00  0.00     0.030 A 
HETATM    7  C11 UNL     1      23.901   0.164  53.520  1.00  0.00     0.041 A 
HETATM    8  N1  UNL     1      25.097   0.637  52.915  1.00  0.00    -0.336 N 
HETATM    9  C12 UNL     1      25.153   1.661  51.929  1.00  0.00     0.159 A 
HETATM   10  O2  UNL     1      26.086   2.268  51.232  1.00  0.00    -0.286 OA
HETATM   11  C13 UNL     1      25.543   3.170  50.440  1.00  0.00     0.163 A 
HETATM   12  C14 UNL     1      26.313   3.954  49.592  1.00  0.00     0.219 C 
HETATM   13  O3  UNL     1      27.459   3.579  49.302  1.00  0.00    -0.284 OA
HETATM   14  C15 UNL     1      25.903   5.155  49.026  1.00  0.00     0.033 A 
HETATM   15  C16 UNL     1      26.950   5.909  48.572  1.00  0.00     0.016 A 
HETATM   16  C17 UNL     1      26.704   7.134  47.981  1.00  0.00     0.001 A 
HETATM   17  C18 UNL     1      25.398   7.613  47.840  1.00  0.00     0.001 A 
HETATM   18  C19 UNL     1      24.345   6.833  48.307  1.00  0.00     0.018 A 
HETATM   19  C20 UNL     1      24.605   5.612  48.895  1.00  0.00     0.054 A 
HETATM   20  C21 UNL     1      23.438   4.995  49.289  1.00  0.00     0.299 C 
HETATM   21  O4  UNL     1      22.345   5.494  48.933  1.00  0.00    -0.259 OA
HETATM   22  O5  UNL     1      23.293   3.912  50.016  1.00  0.00    -0.271 OA
HETATM   23  C22 UNL     1      24.157   3.147  50.637  1.00  0.00     0.129 A 
HETATM   24  C23 UNL     1      23.916   2.172  51.598  1.00  0.00     0.042 A 
HETATM   25  H13 UNL     1      26.003   0.196  53.221  1.00  0.00     0.168 HD
ENDROOT
BRANCH   1  26
HETATM   26  C4  UNL     1      21.738   1.246  50.988  1.00  0.00    -0.014 C 
BRANCH  26  27
HETATM   27  C3  UNL     1      20.571   1.071  50.436  1.00  0.00    -0.004 C 
BRANCH  27  28
HETATM   28  C2  UNL     1      19.182   1.138  49.953  1.00  0.00     0.194 C 
BRANCH  28  29
HETATM   29  O1  UNL     1      18.306   1.069  51.007  1.00  0.00    -0.392 OA
HETATM   30  C1  UNL     1      18.202  -0.223  51.479  1.00  0.00     0.201 C 
ENDBRANCH  28  29
ENDBRANCH  27  28
ENDBRANCH  26  27
ENDBRANCH   1  26
TORSDOF 4
ENDMDL
MODEL 7
REMARK VINA RESULT:      -8.8      4.340      7.878
REMARK  4 active torsions:
REMARK  status: ('A' for Active; 'I' for Inactive)
REMARK    1  A    between atoms: O1_2  and  C2_3 
REMARK    2  A    between atoms: C2_3  and  C3_4 
REMARK    3  A    between atoms: C3_4  and  C4_5 
REMARK    4  A    between atoms: C4_5  and  C5_6 
ROOT
HETATM    1  C5  UNL     1      26.385   5.896  49.256  1.00  0.00     0.083 A 
HETATM    2  C6  UNL     1      25.893   6.995  48.357  1.00  0.00    -0.019 A 
HETATM    3  C7  UNL     1      26.733   8.051  48.013  1.00  0.00     0.010 A 
HETATM    4  C8  UNL     1      26.388   9.111  47.199  1.00  0.00     0.001 A 
HETATM    5  C9  UNL     1      25.106   9.120  46.686  1.00  0.00     0.002 A 
HETATM    6  C10 UNL     1      24.239   8.095  46.999  1.00  0.00     0.030 A 
HETATM    7  C11 UNL     1      24.635   7.071  47.811  1.00  0.00     0.041 A 
HETATM    8  N1  UNL     1      23.716   6.031  48.119  1.00  0.00    -0.336 N 
HETATM    9  C12 UNL     1      24.008   4.917  48.954  1.00  0.00     0.159 A 
HETATM   10  O2  UNL     1      23.371   3.855  49.390  1.00  0.00    -0.286 OA
HETATM   11  C13 UNL     1      24.162   3.140  50.164  1.00  0.00     0.163 A 
HETATM   12  C14 UNL     1      23.730   1.960  50.756  1.00  0.00     0.219 C 
HETATM   13  O3  UNL     1      22.741   1.379  50.287  1.00  0.00    -0.284 OA
HETATM   14  C15 UNL     1      24.326   1.357  51.858  1.00  0.00     0.033 A 
HETATM   15  C16 UNL     1      23.502   0.457  52.475  1.00  0.00     0.016 A 
HETATM   16  C17 UNL     1      23.951  -0.227  53.589  1.00  0.00     0.001 A 
HETATM   17  C18 UNL     1      25.237  -0.011  54.093  1.00  0.00     0.001 A 
HETATM   18  C19 UNL     1      26.062   0.907  53.452  1.00  0.00     0.018 A 
HETATM   19  C20 UNL     1      25.600   1.583  52.341  1.00  0.00     0.054 A 
HETATM   20  C21 UNL     1      26.559   2.444  51.854  1.00  0.00     0.299 C 
HETATM   21  O4  UNL     1      27.717   2.387  52.330  1.00  0.00    -0.259 OA
HETATM   22  O5  UNL     1      26.436   3.358  50.920  1.00  0.00    -0.271 OA
HETATM   23  C22 UNL     1      25.402   3.784  50.237  1.00  0.00     0.129 A 
HETATM   24  C23 UNL     1      25.294   4.928  49.454  1.00  0.00     0.042 A 
HETATM   25  H13 UNL     1      22.753   6.094  47.699  1.00  0.00     0.168 HD
ENDROOT
BRANCH   1  26
HETATM   26  C4  UNL     1      27.535   5.247  48.533  1.00  0.00    -0.014 C 
BRANCH  26  27
HETATM   27  C3  UNL     1      28.797   5.237  48.208  1.00  0.00    -0.004 C 
BRANCH  27  28
HETATM   28  C2  UNL     1      30.221   5.510  47.961  1.00  0.00     0.194 C 
BRANCH  28  29
HETATM   29  O1  UNL     1      30.960   5.251  49.088  1.00  0.00    -0.392 OA
HETATM   30  C1  UNL     1      32.023   6.124  49.194  1.00  0.00     0.201 C 
ENDBRANCH  28  29
ENDBRANCH  27  28
ENDBRANCH  26  27
ENDBRANCH   1  26
TORSDOF 4
ENDMDL
MODEL 8
REMARK VINA RESULT:      -8.7      3.359      6.138
REMARK  4 active torsions:
REMARK  status: ('A' for Active; 'I' for Inactive)
REMARK    1  A    between atoms: O1_2  and  C2_3 
REMARK    2  A    between atoms: C2_3  and  C3_4 
REMARK    3  A    between atoms: C3_4  and  C4_5 
REMARK    4  A    between atoms: C4_5  and  C5_6 
ROOT
HETATM    1  C5  UNL     1      23.765   1.836  51.590  1.00  0.00     0.083 A 
HETATM    2  C6  UNL     1      22.565   1.225  52.256  1.00  0.00    -0.019 A 
HETATM    3  C7  UNL     1      22.516  -0.145  52.500  1.00  0.00     0.010 A 
HETATM    4  C8  UNL     1      21.469  -0.811  53.101  1.00  0.00     0.001 A 
HETATM    5  C9  UNL     1      20.383  -0.054  53.493  1.00  0.00     0.002 A 
HETATM    6  C10 UNL     1      20.385   1.308  53.273  1.00  0.00     0.030 A 
HETATM    7  C11 UNL     1      21.451   1.913  52.672  1.00  0.00     0.041 A 
HETATM    8  N1  UNL     1      21.422   3.318  52.455  1.00  0.00    -0.336 N 
HETATM    9  C12 UNL     1      22.466   4.061  51.836  1.00  0.00     0.159 A 
HETATM   10  O2  UNL     1      22.690   5.316  51.521  1.00  0.00    -0.286 OA
HETATM   11  C13 UNL     1      23.868   5.432  50.942  1.00  0.00     0.163 A 
HETATM   12  C14 UNL     1      24.350   6.661  50.510  1.00  0.00     0.219 C 
HETATM   13  O3  UNL     1      23.857   7.698  50.978  1.00  0.00    -0.284 OA
HETATM   14  C15 UNL     1      25.362   6.835  49.574  1.00  0.00     0.033 A 
HETATM   15  C16 UNL     1      25.373   8.094  49.039  1.00  0.00     0.016 A 
HETATM   16  C17 UNL     1      26.324   8.424  48.091  1.00  0.00     0.001 A 
HETATM   17  C18 UNL     1      27.275   7.488  47.672  1.00  0.00     0.001 A 
HETATM   18  C19 UNL     1      27.249   6.213  48.228  1.00  0.00     0.018 A 
HETATM   19  C20 UNL     1      26.294   5.897  49.173  1.00  0.00     0.054 A 
HETATM   20  C21 UNL     1      26.434   4.595  49.599  1.00  0.00     0.299 C 
HETATM   21  O4  UNL     1      27.446   3.949  49.240  1.00  0.00    -0.259 OA
HETATM   22  O5  UNL     1      25.626   3.895  50.361  1.00  0.00    -0.271 OA
HETATM   23  C22 UNL     1      24.451   4.161  50.875  1.00  0.00     0.129 A 
HETATM   24  C23 UNL     1      23.540   3.284  51.454  1.00  0.00     0.042 A 
HETATM   25  H13 UNL     1      20.567   3.842  52.774  1.00  0.00     0.168 HD
ENDROOT
BRANCH   1  26
HETATM   26  C4  UNL     1      24.932   1.571  52.503  1.00  0.00    -0.014 C 
BRANCH  26  27
HETATM   27  C3  UNL     1      26.040   0.934  52.755  1.00  0.00    -0.004 C 
BRANCH  27  28
HETATM   28  C2  UNL     1      27.126  -0.035  52.970  1.00  0.00     0.194 C 
BRANCH  28  29
HETATM   29  O1  UNL     1      27.217  -0.363  54.299  1.00  0.00    -0.392 OA
HETATM   30  C1  UNL     1      28.417   0.062  54.832  1.00  0.00     0.201 C 
ENDBRANCH  28  29
ENDBRANCH  27  28
ENDBRANCH  26  27
ENDBRANCH   1  26
TORSDOF 4
ENDMDL
MODEL 9
REMARK VINA RESULT:      -8.4      2.270      7.077
REMARK  4 active torsions:
REMARK  status: ('A' for Active; 'I' for Inactive)
REMARK    1  A    between atoms: O1_2  and  C2_3 
REMARK    2  A    between atoms: C2_3  and  C3_4 
REMARK    3  A    between atoms: C3_4  and  C4_5 
REMARK    4  A    between atoms: C4_5  and  C5_6 
ROOT
HETATM    1  C5  UNL     1      22.940   0.873  51.972  1.00  0.00     0.083 A 
HETATM    2  C6  UNL     1      24.168   0.498  52.751  1.00  0.00    -0.019 A 
HETATM    3  C7  UNL     1      25.410   1.023  52.403  1.00  0.00     0.010 A 
HETATM    4  C8  UNL     1      26.600   0.747  53.045  1.00  0.00     0.001 A 
HETATM    5  C9  UNL     1      26.551  -0.118  54.120  1.00  0.00     0.002 A 
HETATM    6  C10 UNL     1      25.343  -0.663  54.502  1.00  0.00     0.030 A 
HETATM    7  C11 UNL     1      24.196  -0.354  53.828  1.00  0.00     0.041 A 
HETATM    8  N1  UNL     1      22.967  -0.935  54.243  1.00  0.00    -0.336 N 
HETATM    9  C12 UNL     1      21.710  -0.697  53.621  1.00  0.00     0.159 A 
HETATM   10  O2  UNL     1      20.468  -1.088  53.792  1.00  0.00    -0.286 OA
HETATM   11  C13 UNL     1      19.690  -0.527  52.889  1.00  0.00     0.163 A 
HETATM   12  C14 UNL     1      18.324  -0.774  52.849  1.00  0.00     0.219 C 
HETATM   13  O3  UNL     1      17.765  -1.225  53.859  1.00  0.00    -0.284 OA
HETATM   14  C15 UNL     1      17.507  -0.555  51.746  1.00  0.00     0.033 A 
HETATM   15  C16 UNL     1      16.322  -1.234  51.826  1.00  0.00     0.016 A 
HETATM   16  C17 UNL     1      15.399  -1.118  50.802  1.00  0.00     0.001 A 
HETATM   17  C18 UNL     1      15.661  -0.316  49.688  1.00  0.00     0.001 A 
HETATM   18  C19 UNL     1      16.871   0.367  49.624  1.00  0.00     0.018 A 
HETATM   19  C20 UNL     1      17.783   0.242  50.652  1.00  0.00     0.054 A 
HETATM   20  C21 UNL     1      18.912   0.991  50.404  1.00  0.00     0.299 C 
HETATM   21  O4  UNL     1      18.907   1.783  49.432  1.00  0.00    -0.259 OA
HETATM   22  O5  UNL     1      20.046   1.001  51.064  1.00  0.00    -0.271 OA
HETATM   23  C22 UNL     1      20.483   0.287  52.072  1.00  0.00     0.129 A 
HETATM   24  C23 UNL     1      21.783   0.171  52.552  1.00  0.00     0.042 A 
HETATM   25  H13 UNL     1      22.992  -1.589  55.069  1.00  0.00     0.168 HD
ENDROOT
BRANCH   1  26
HETATM   26  C4  UNL     1      22.781   2.362  52.131  1.00  0.00    -0.014 C 
BRANCH  26  27
HETATM   27  C3  UNL     1      22.695   3.547  51.596  1.00  0.00    -0.004 C 
BRANCH  27  28
HETATM   28  C2  UNL     1      22.793   4.965  51.216  1.00  0.00     0.194 C 
BRANCH  28  29
HETATM   29  O1  UNL     1      24.107   5.348  51.134  1.00  0.00    -0.392 OA
HETATM   30  C1  UNL     1      24.219   6.723  51.082  1.00  0.00     0.201 C 
ENDBRANCH  28  29
ENDBRANCH  27  28
ENDBRANCH  26  27
ENDBRANCH   1  26
TORSDOF 4
ENDMDL
