MODEL 1
REMARK VINA RESULT:      -6.7      0.000      0.000
REMARK  8 active torsions:
REMARK  status: ('A' for Active; 'I' for Inactive)
REMARK    1  A    between atoms: C5_7  and  C6_8 
REMARK    2  A    between atoms: C6_8  and  O1_9 
REMARK    3  A    between atoms: O1_9  and  C7_10 
REMARK    4  A    between atoms: C7_10  and  C8_11 
REMARK       I    between atoms: C8_11  and  N3_13 
REMARK    5  A    between atoms: N3_13  and  C9_14 
REMARK    6  A    between atoms: C9_14  and  C10_15 
REMARK    7  A    between atoms: C10_15  and  C11_16 
REMARK    8  A    between atoms: C11_16  and  N4_17 
ROOT
HETATM    1  C8  UNL     1      25.156   4.004  50.154  1.00  0.00     0.241 C 
HETATM    2  O2  UNL     1      24.372   3.335  49.392  1.00  0.00    -0.271 OA
HETATM    3  N3  UNL     1      24.724   5.069  51.015  1.00  0.00    -0.359 N 
HETATM    4  H8  UNL     1      25.606   5.404  51.479  1.00  0.00     0.162 HD
ENDROOT
BRANCH   1   5
HETATM    5  C7  UNL     1      26.435   3.350  49.839  1.00  0.00     0.277 C 
BRANCH   5   6
HETATM    6  O1  UNL     1      27.146   2.992  51.034  1.00  0.00    -0.353 OA
BRANCH   6   7
HETATM    7  C6  UNL     1      26.687   1.824  51.678  1.00  0.00     0.150 C 
BRANCH   7   8
HETATM    8  C5  UNL     1      27.316   1.296  52.708  1.00  0.00     0.031 A 
HETATM    9  C2  UNL     1      27.244  -0.007  53.132  1.00  0.00     0.062 A 
HETATM   10  C1  UNL     1      26.473  -0.826  52.455  1.00  0.00     0.046 C 
HETATM   11  N1  UNL     1      27.901  -0.504  54.185  1.00  0.00    -0.242 NA
HETATM   12  C3  UNL     1      28.705   0.317  54.907  1.00  0.00     0.233 A 
HETATM   13  N2  UNL     1      28.813   1.597  54.539  1.00  0.00    -0.253 NA
HETATM   14  C4  UNL     1      28.137   2.095  53.463  1.00  0.00     0.133 A 
ENDBRANCH   7   8
ENDBRANCH   6   7
ENDBRANCH   5   6
ENDBRANCH   1   5
BRANCH   3  15
HETATM   15  C9  UNL     1      23.311   5.353  50.988  1.00  0.00     0.124 C 
BRANCH  15  16
HETATM   16  C10 UNL     1      22.526   4.813  52.149  1.00  0.00     0.050 C 
BRANCH  16  17
HETATM   17  C11 UNL     1      21.649   3.678  51.677  1.00  0.00     0.274 C 
BRANCH  17  18
HETATM   18  N4  UNL     1      21.655   2.568  52.620  1.00  0.00     0.088 N 
HETATM   19  C12 UNL     1      20.634   1.593  52.266  1.00  0.00     0.272 C 
HETATM   20  C13 UNL     1      21.157   0.396  51.519  1.00  0.00     0.030 C 
HETATM   21  C14 UNL     1      22.181  -0.372  52.342  1.00  0.00     0.003 C 
HETATM   22  C15 UNL     1      22.805   0.592  53.336  1.00  0.00     0.030 C 
HETATM   23  C16 UNL     1      22.966   1.919  52.622  1.00  0.00     0.272 C 
ENDBRANCH  17  18
ENDBRANCH  16  17
ENDBRANCH  15  16
ENDBRANCH   3  15
TORSDOF 8
ENDMDL
MODEL 2
REMARK VINA RESULT:      -6.6      4.321      7.352
REMARK  8 active torsions:
REMARK  status: ('A' for Active; 'I' for Inactive)
REMARK    1  A    between atoms: C5_7  and  C6_8 
REMARK    2  A    between atoms: C6_8  and  O1_9 
REMARK    3  A    between atoms: O1_9  and  C7_10 
REMARK    4  A    between atoms: C7_10  and  C8_11 
REMARK       I    between atoms: C8_11  and  N3_13 
REMARK    5  A    between atoms: N3_13  and  C9_14 
REMARK    6  A    between atoms: C9_14  and  C10_15 
REMARK    7  A    between atoms: C10_15  and  C11_16 
REMARK    8  A    between atoms: C11_16  and  N4_17 
ROOT
HETATM    1  C8  UNL     1      26.883   4.601  49.192  1.00  0.00     0.241 C 
HETATM    2  O2  UNL     1      25.830   5.222  48.806  1.00  0.00    -0.271 OA
HETATM    3  N3  UNL     1      28.223   5.042  48.920  1.00  0.00    -0.359 N 
HETATM    4  H8  UNL     1      28.833   4.308  49.358  1.00  0.00     0.162 HD
ENDROOT
BRANCH   1   5
HETATM    5  C7  UNL     1      26.265   3.466  49.895  1.00  0.00     0.277 C 
BRANCH   5   6
HETATM    6  O1  UNL     1      27.185   2.860  50.817  1.00  0.00    -0.353 OA
BRANCH   6   7
HETATM    7  C6  UNL     1      26.588   2.192  51.907  1.00  0.00     0.150 C 
BRANCH   7   8
HETATM    8  C5  UNL     1      27.297   1.527  52.796  1.00  0.00     0.031 A 
HETATM    9  C2  UNL     1      27.285   0.171  53.006  1.00  0.00     0.062 A 
HETATM   10  C1  UNL     1      26.490  -0.555  52.254  1.00  0.00     0.046 C 
HETATM   11  N1  UNL     1      28.023  -0.465  53.921  1.00  0.00    -0.242 NA
HETATM   12  C3  UNL     1      28.853   0.256  54.716  1.00  0.00     0.233 A 
HETATM   13  N2  UNL     1      28.904   1.582  54.555  1.00  0.00    -0.253 NA
HETATM   14  C4  UNL     1      28.147   2.222  53.619  1.00  0.00     0.133 A 
ENDBRANCH   7   8
ENDBRANCH   6   7
ENDBRANCH   5   6
ENDBRANCH   1   5
BRANCH   3  15
HETATM   15  C9  UNL     1      28.330   6.270  48.172  1.00  0.00     0.124 C 
BRANCH  15  16
HETATM   16  C10 UNL     1      29.707   6.599  47.672  1.00  0.00     0.050 C 
BRANCH  16  17
HETATM   17  C11 UNL     1      30.734   6.035  48.625  1.00  0.00     0.274 C 
BRANCH  17  18
HETATM   18  N4  UNL     1      32.005   5.789  47.959  1.00  0.00     0.088 N 
HETATM   19  C12 UNL     1      32.352   4.377  48.029  1.00  0.00     0.272 C 
HETATM   20  C13 UNL     1      32.039   3.603  46.778  1.00  0.00     0.030 C 
HETATM   21  C14 UNL     1      32.802   4.146  45.579  1.00  0.00     0.003 C 
HETATM   22  C15 UNL     1      33.125   5.606  45.849  1.00  0.00     0.030 C 
HETATM   23  C16 UNL     1      31.925   6.199  46.557  1.00  0.00     0.272 C 
ENDBRANCH  17  18
ENDBRANCH  16  17
ENDBRANCH  15  16
ENDBRANCH   3  15
TORSDOF 8
ENDMDL
MODEL 3
REMARK VINA RESULT:      -6.6      1.432      2.162
REMARK  8 active torsions:
REMARK  status: ('A' for Active; 'I' for Inactive)
REMARK    1  A    between atoms: C5_7  and  C6_8 
REMARK    2  A    between atoms: C6_8  and  O1_9 
REMARK    3  A    between atoms: O1_9  and  C7_10 
REMARK    4  A    between atoms: C7_10  and  C8_11 
REMARK       I    between atoms: C8_11  and  N3_13 
REMARK    5  A    between atoms: N3_13  and  C9_14 
REMARK    6  A    between atoms: C9_14  and  C10_15 
REMARK    7  A    between atoms: C10_15  and  C11_16 
REMARK    8  A    between atoms: C11_16  and  N4_17 
ROOT
HETATM    1  C8  UNL     1      23.499   3.209  51.434  1.00  0.00     0.241 C 
HETATM    2  O2  UNL     1      23.939   3.614  52.568  1.00  0.00    -0.271 OA
HETATM    3  N3  UNL     1      22.105   3.119  51.098  1.00  0.00    -0.359 N 
HETATM    4  H8  UNL     1      22.098   2.744  50.117  1.00  0.00     0.162 HD
ENDROOT
BRANCH   1   5
HETATM    5  C7  UNL     1      24.772   2.930  50.753  1.00  0.00     0.277 C 
BRANCH   5   6
HETATM    6  O1  UNL     1      25.836   2.730  51.698  1.00  0.00    -0.353 OA
BRANCH   6   7
HETATM    7  C6  UNL     1      26.384   1.430  51.717  1.00  0.00     0.150 C 
BRANCH   7   8
HETATM    8  C5  UNL     1      27.134   0.999  52.710  1.00  0.00     0.031 A 
HETATM    9  C2  UNL     1      27.287  -0.303  53.116  1.00  0.00     0.062 A 
HETATM   10  C1  UNL     1      26.625  -1.227  52.460  1.00  0.00     0.046 C 
HETATM   11  N1  UNL     1      28.062  -0.698  54.131  1.00  0.00    -0.242 NA
HETATM   12  C3  UNL     1      28.758   0.232  54.831  1.00  0.00     0.233 A 
HETATM   13  N2  UNL     1      28.646   1.517  54.480  1.00  0.00    -0.253 NA
HETATM   14  C4  UNL     1      27.853   1.911  53.442  1.00  0.00     0.133 A 
ENDBRANCH   7   8
ENDBRANCH   6   7
ENDBRANCH   5   6
ENDBRANCH   1   5
BRANCH   3  15
HETATM   15  C9  UNL     1      21.191   3.532  52.134  1.00  0.00     0.124 C 
BRANCH  15  16
HETATM   16  C10 UNL     1      20.387   2.427  52.757  1.00  0.00     0.050 C 
BRANCH  16  17
HETATM   17  C11 UNL     1      20.320   1.257  51.805  1.00  0.00     0.274 C 
BRANCH  17  18
HETATM   18  N4  UNL     1      20.697   0.012  52.458  1.00  0.00     0.088 N 
HETATM   19  C12 UNL     1      22.082  -0.322  52.159  1.00  0.00     0.272 C 
HETATM   20  C13 UNL     1      23.052   0.041  53.251  1.00  0.00     0.030 C 
HETATM   21  C14 UNL     1      22.733  -0.687  54.547  1.00  0.00     0.003 C 
HETATM   22  C15 UNL     1      21.254  -1.035  54.539  1.00  0.00     0.030 C 
HETATM   23  C16 UNL     1      20.529   0.134  53.906  1.00  0.00     0.272 C 
ENDBRANCH  17  18
ENDBRANCH  16  17
ENDBRANCH  15  16
ENDBRANCH   3  15
TORSDOF 8
ENDMDL
MODEL 4
REMARK VINA RESULT:      -6.2      4.754      7.497
REMARK  8 active torsions:
REMARK  status: ('A' for Active; 'I' for Inactive)
REMARK    1  A    between atoms: C5_7  and  C6_8 
REMARK    2  A    between atoms: C6_8  and  O1_9 
REMARK    3  A    between atoms: O1_9  and  C7_10 
REMARK    4  A    between atoms: C7_10  and  C8_11 
REMARK       I    between atoms: C8_11  and  N3_13 
REMARK    5  A    between atoms: N3_13  and  C9_14 
REMARK    6  A    between atoms: C9_14  and  C10_15 
REMARK    7  A    between atoms: C10_15  and  C11_16 
REMARK    8  A    between atoms: C11_16  and  N4_17 
ROOT
HETATM    1  C8  UNL     1      26.764   4.570  49.263  1.00  0.00     0.241 C 
HETATM    2  O2  UNL     1      25.724   5.229  49.618  1.00  0.00    -0.271 OA
HETATM    3  N3  UNL     1      27.881   5.145  48.567  1.00  0.00    -0.359 N 
HETATM    4  H8  UNL     1      28.540   4.339  48.420  1.00  0.00     0.162 HD
ENDROOT
BRANCH   1   5
HETATM    5  C7  UNL     1      26.405   3.236  49.769  1.00  0.00     0.277 C 
BRANCH   5   6
HETATM    6  O1  UNL     1      27.107   2.933  50.985  1.00  0.00    -0.353 OA
BRANCH   6   7
HETATM    7  C6  UNL     1      26.679   1.764  51.649  1.00  0.00     0.150 C 
BRANCH   7   8
HETATM    8  C5  UNL     1      27.328   1.265  52.680  1.00  0.00     0.031 A 
HETATM    9  C2  UNL     1      27.345  -0.047  53.080  1.00  0.00     0.062 A 
HETATM   10  C1  UNL     1      26.646  -0.908  52.377  1.00  0.00     0.046 C 
HETATM   11  N1  UNL     1      28.021  -0.513  54.136  1.00  0.00    -0.242 NA
HETATM   12  C3  UNL     1      28.751   0.350  54.885  1.00  0.00     0.233 A 
HETATM   13  N2  UNL     1      28.771   1.641  54.540  1.00  0.00    -0.253 NA
HETATM   14  C4  UNL     1      28.078   2.107  53.462  1.00  0.00     0.133 A 
ENDBRANCH   7   8
ENDBRANCH   6   7
ENDBRANCH   5   6
ENDBRANCH   1   5
BRANCH   3  15
HETATM   15  C9  UNL     1      27.777   6.555  48.286  1.00  0.00     0.124 C 
BRANCH  15  16
HETATM   16  C10 UNL     1      28.985   7.172  47.642  1.00  0.00     0.050 C 
BRANCH  16  17
HETATM   17  C11 UNL     1      29.812   7.872  48.694  1.00  0.00     0.274 C 
BRANCH  17  18
HETATM   18  N4  UNL     1      30.240   9.190  48.250  1.00  0.00     0.088 N 
HETATM   19  C12 UNL     1      29.171   9.856  47.521  1.00  0.00     0.272 C 
HETATM   20  C13 UNL     1      28.399  10.857  48.337  1.00  0.00     0.030 C 
HETATM   21  C14 UNL     1      29.296  11.975  48.845  1.00  0.00     0.003 C 
HETATM   22  C15 UNL     1      30.717  11.441  48.921  1.00  0.00     0.030 C 
HETATM   23  C16 UNL     1      30.624  10.007  49.402  1.00  0.00     0.272 C 
ENDBRANCH  17  18
ENDBRANCH  16  17
ENDBRANCH  15  16
ENDBRANCH   3  15
TORSDOF 8
ENDMDL
MODEL 5
REMARK VINA RESULT:      -6.2      2.263      5.678
REMARK  8 active torsions:
REMARK  status: ('A' for Active; 'I' for Inactive)
REMARK    1  A    between atoms: C5_7  and  C6_8 
REMARK    2  A    between atoms: C6_8  and  O1_9 
REMARK    3  A    between atoms: O1_9  and  C7_10 
REMARK    4  A    between atoms: C7_10  and  C8_11 
REMARK       I    between atoms: C8_11  and  N3_13 
REMARK    5  A    between atoms: N3_13  and  C9_14 
REMARK    6  A    between atoms: C9_14  and  C10_15 
REMARK    7  A    between atoms: C10_15  and  C11_16 
REMARK    8  A    between atoms: C11_16  and  N4_17 
ROOT
HETATM    1  C8  UNL     1      23.142   3.379  51.303  1.00  0.00     0.241 C 
HETATM    2  O2  UNL     1      23.274   4.472  51.960  1.00  0.00    -0.271 OA
HETATM    3  N3  UNL     1      24.239   2.636  50.750  1.00  0.00    -0.359 N 
HETATM    4  H8  UNL     1      23.785   1.817  50.272  1.00  0.00     0.162 HD
ENDROOT
BRANCH   1   5
HETATM    5  C7  UNL     1      21.679   3.233  51.346  1.00  0.00     0.277 C 
BRANCH   5   6
HETATM    6  O1  UNL     1      21.267   2.431  52.464  1.00  0.00    -0.353 OA
BRANCH   6   7
HETATM    7  C6  UNL     1      21.264   1.039  52.235  1.00  0.00     0.150 C 
BRANCH   7   8
HETATM    8  C5  UNL     1      21.649   0.176  53.152  1.00  0.00     0.031 A 
HETATM    9  C2  UNL     1      20.851  -0.713  53.827  1.00  0.00     0.062 A 
HETATM   10  C1  UNL     1      19.569  -0.718  53.544  1.00  0.00     0.046 C 
HETATM   11  N1  UNL     1      21.284  -1.576  54.752  1.00  0.00    -0.242 NA
HETATM   12  C3  UNL     1      22.603  -1.596  55.070  1.00  0.00     0.233 A 
HETATM   13  N2  UNL     1      23.427  -0.750  54.443  1.00  0.00    -0.253 NA
HETATM   14  C4  UNL     1      22.976   0.126  53.500  1.00  0.00     0.133 A 
ENDBRANCH   7   8
ENDBRANCH   6   7
ENDBRANCH   5   6
ENDBRANCH   1   5
BRANCH   3  15
HETATM   15  C9  UNL     1      25.547   3.194  50.987  1.00  0.00     0.124 C 
BRANCH  15  16
HETATM   16  C10 UNL     1      26.651   2.190  51.155  1.00  0.00     0.050 C 
BRANCH  16  17
HETATM   17  C11 UNL     1      26.143   1.013  51.953  1.00  0.00     0.274 C 
BRANCH  17  18
HETATM   18  N4  UNL     1      26.863   0.864  53.209  1.00  0.00     0.088 N 
HETATM   19  C12 UNL     1      27.053  -0.544  53.524  1.00  0.00     0.272 C 
HETATM   20  C13 UNL     1      28.418  -1.074  53.178  1.00  0.00     0.030 C 
HETATM   21  C14 UNL     1      29.512  -0.339  53.938  1.00  0.00     0.003 C 
HETATM   22  C15 UNL     1      28.990   1.041  54.298  1.00  0.00     0.030 C 
HETATM   23  C16 UNL     1      28.167   1.522  53.120  1.00  0.00     0.272 C 
ENDBRANCH  17  18
ENDBRANCH  16  17
ENDBRANCH  15  16
ENDBRANCH   3  15
TORSDOF 8
ENDMDL
MODEL 6
REMARK VINA RESULT:      -6.2      1.789      2.499
REMARK  8 active torsions:
REMARK  status: ('A' for Active; 'I' for Inactive)
REMARK    1  A    between atoms: C5_7  and  C6_8 
REMARK    2  A    between atoms: C6_8  and  O1_9 
REMARK    3  A    between atoms: O1_9  and  C7_10 
REMARK    4  A    between atoms: C7_10  and  C8_11 
REMARK       I    between atoms: C8_11  and  N3_13 
REMARK    5  A    between atoms: N3_13  and  C9_14 
REMARK    6  A    between atoms: C9_14  and  C10_15 
REMARK    7  A    between atoms: C10_15  and  C11_16 
REMARK    8  A    between atoms: C11_16  and  N4_17 
ROOT
HETATM    1  C8  UNL     1      24.964   3.064  50.916  1.00  0.00     0.241 C 
HETATM    2  O2  UNL     1      24.922   4.339  51.040  1.00  0.00    -0.271 OA
HETATM    3  N3  UNL     1      23.812   2.239  50.680  1.00  0.00    -0.359 N 
HETATM    4  H8  UNL     1      24.194   1.261  50.646  1.00  0.00     0.162 HD
ENDROOT
BRANCH   1   5
HETATM    5  C7  UNL     1      26.409   2.841  51.085  1.00  0.00     0.277 C 
BRANCH   5   6
HETATM    6  O1  UNL     1      26.714   1.440  51.169  1.00  0.00    -0.353 OA
BRANCH   6   7
HETATM    7  C6  UNL     1      26.772   0.916  52.478  1.00  0.00     0.150 C 
BRANCH   7   8
HETATM    8  C5  UNL     1      27.400  -0.207  52.757  1.00  0.00     0.031 A 
HETATM    9  C2  UNL     1      28.629  -0.332  53.356  1.00  0.00     0.062 A 
HETATM   10  C1  UNL     1      29.258   0.771  53.690  1.00  0.00     0.046 C 
HETATM   11  N1  UNL     1      29.232  -1.495  53.624  1.00  0.00    -0.242 NA
HETATM   12  C3  UNL     1      28.609  -2.653  53.289  1.00  0.00     0.233 A 
HETATM   13  N2  UNL     1      27.410  -2.591  52.703  1.00  0.00    -0.253 NA
HETATM   14  C4  UNL     1      26.802  -1.399  52.433  1.00  0.00     0.133 A 
ENDBRANCH   7   8
ENDBRANCH   6   7
ENDBRANCH   5   6
ENDBRANCH   1   5
BRANCH   3  15
HETATM   15  C9  UNL     1      22.559   2.944  50.573  1.00  0.00     0.124 C 
BRANCH  15  16
HETATM   16  C10 UNL     1      21.664   2.845  51.774  1.00  0.00     0.050 C 
BRANCH  16  17
HETATM   17  C11 UNL     1      21.291   1.400  52.006  1.00  0.00     0.274 C 
BRANCH  17  18
HETATM   18  N4  UNL     1      21.776   0.921  53.292  1.00  0.00     0.088 N 
HETATM   19  C12 UNL     1      20.681   0.370  54.077  1.00  0.00     0.272 C 
HETATM   20  C13 UNL     1      20.591  -1.132  54.039  1.00  0.00     0.030 C 
HETATM   21  C14 UNL     1      21.850  -1.782  54.591  1.00  0.00     0.003 C 
HETATM   22  C15 UNL     1      22.998  -0.802  54.423  1.00  0.00     0.030 C 
HETATM   23  C16 UNL     1      22.796  -0.110  53.091  1.00  0.00     0.272 C 
ENDBRANCH  17  18
ENDBRANCH  16  17
ENDBRANCH  15  16
ENDBRANCH   3  15
TORSDOF 8
ENDMDL
MODEL 7
REMARK VINA RESULT:      -6.1      4.026      7.050
REMARK  8 active torsions:
REMARK  status: ('A' for Active; 'I' for Inactive)
REMARK    1  A    between atoms: C5_7  and  C6_8 
REMARK    2  A    between atoms: C6_8  and  O1_9 
REMARK    3  A    between atoms: O1_9  and  C7_10 
REMARK    4  A    between atoms: C7_10  and  C8_11 
REMARK       I    between atoms: C8_11  and  N3_13 
REMARK    5  A    between atoms: N3_13  and  C9_14 
REMARK    6  A    between atoms: C9_14  and  C10_15 
REMARK    7  A    between atoms: C10_15  and  C11_16 
REMARK    8  A    between atoms: C11_16  and  N4_17 
ROOT
HETATM    1  C8  UNL     1      26.414   3.584  50.151  1.00  0.00     0.241 C 
HETATM    2  O2  UNL     1      25.165   3.625  49.866  1.00  0.00    -0.271 OA
HETATM    3  N3  UNL     1      27.382   4.522  49.656  1.00  0.00    -0.359 N 
HETATM    4  H8  UNL     1      28.294   4.195  50.064  1.00  0.00     0.162 HD
ENDROOT
BRANCH   1   5
HETATM    5  C7  UNL     1      26.436   2.402  51.027  1.00  0.00     0.277 C 
BRANCH   5   6
HETATM    6  O1  UNL     1      27.503   2.482  51.984  1.00  0.00    -0.353 OA
BRANCH   6   7
HETATM    7  C6  UNL     1      27.364   1.643  53.109  1.00  0.00     0.150 C 
BRANCH   7   8
HETATM    8  C5  UNL     1      28.004   0.496  53.213  1.00  0.00     0.031 A 
HETATM    9  C2  UNL     1      27.470  -0.757  53.049  1.00  0.00     0.062 A 
HETATM   10  C1  UNL     1      26.192  -0.843  52.761  1.00  0.00     0.046 C 
HETATM   11  N1  UNL     1      28.157  -1.899  53.163  1.00  0.00    -0.242 NA
HETATM   12  C3  UNL     1      29.480  -1.846  53.462  1.00  0.00     0.233 A 
HETATM   13  N2  UNL     1      30.051  -0.650  53.633  1.00  0.00    -0.253 NA
HETATM   14  C4  UNL     1      29.342   0.509  53.515  1.00  0.00     0.133 A 
ENDBRANCH   7   8
ENDBRANCH   6   7
ENDBRANCH   5   6
ENDBRANCH   1   5
BRANCH   3  15
HETATM   15  C9  UNL     1      26.860   5.558  48.801  1.00  0.00     0.124 C 
BRANCH  15  16
HETATM   16  C10 UNL     1      27.893   6.404  48.114  1.00  0.00     0.050 C 
BRANCH  16  17
HETATM   17  C11 UNL     1      29.234   5.715  48.186  1.00  0.00     0.274 C 
BRANCH  17  18
HETATM   18  N4  UNL     1      30.323   6.673  48.318  1.00  0.00     0.088 N 
HETATM   19  C12 UNL     1      31.137   6.688  47.112  1.00  0.00     0.272 C 
HETATM   20  C13 UNL     1      30.828   7.825  46.174  1.00  0.00     0.030 C 
HETATM   21  C14 UNL     1      31.061   9.174  46.836  1.00  0.00     0.003 C 
HETATM   22  C15 UNL     1      30.920   8.993  48.338  1.00  0.00     0.030 C 
HETATM   23  C16 UNL     1      29.787   8.013  48.559  1.00  0.00     0.272 C 
ENDBRANCH  17  18
ENDBRANCH  16  17
ENDBRANCH  15  16
ENDBRANCH   3  15
TORSDOF 8
ENDMDL
MODEL 8
REMARK VINA RESULT:      -5.9      2.042      2.562
REMARK  8 active torsions:
REMARK  status: ('A' for Active; 'I' for Inactive)
REMARK    1  A    between atoms: C5_7  and  C6_8 
REMARK    2  A    between atoms: C6_8  and  O1_9 
REMARK    3  A    between atoms: O1_9  and  C7_10 
REMARK    4  A    between atoms: C7_10  and  C8_11 
REMARK       I    between atoms: C8_11  and  N3_13 
REMARK    5  A    between atoms: N3_13  and  C9_14 
REMARK    6  A    between atoms: C9_14  and  C10_15 
REMARK    7  A    between atoms: C10_15  and  C11_16 
REMARK    8  A    between atoms: C11_16  and  N4_17 
ROOT
HETATM    1  C8  UNL     1      26.304   3.380  50.449  1.00  0.00     0.241 C 
HETATM    2  O2  UNL     1      26.607   3.030  49.254  1.00  0.00    -0.271 OA
HETATM    3  N3  UNL     1      25.664   4.621  50.786  1.00  0.00    -0.359 N 
HETATM    4  H8  UNL     1      25.577   4.594  51.833  1.00  0.00     0.162 HD
ENDROOT
BRANCH   1   5
HETATM    5  C7  UNL     1      26.791   2.205  51.189  1.00  0.00     0.277 C 
BRANCH   5   6
HETATM    6  O1  UNL     1      27.202   2.559  52.519  1.00  0.00    -0.353 OA
BRANCH   6   7
HETATM    7  C6  UNL     1      27.074   1.534  53.479  1.00  0.00     0.150 C 
BRANCH   7   8
HETATM    8  C5  UNL     1      27.820   0.449  53.451  1.00  0.00     0.031 A 
HETATM    9  C2  UNL     1      27.393  -0.832  53.206  1.00  0.00     0.062 A 
HETATM   10  C1  UNL     1      26.113  -1.014  52.975  1.00  0.00     0.046 C 
HETATM   11  N1  UNL     1      28.185  -1.909  53.185  1.00  0.00    -0.242 NA
HETATM   12  C3  UNL     1      29.512  -1.756  53.421  1.00  0.00     0.233 A 
HETATM   13  N2  UNL     1      29.983  -0.529  53.667  1.00  0.00    -0.253 NA
HETATM   14  C4  UNL     1      29.167   0.564  53.686  1.00  0.00     0.133 A 
ENDBRANCH   7   8
ENDBRANCH   6   7
ENDBRANCH   5   6
ENDBRANCH   1   5
BRANCH   3  15
HETATM   15  C9  UNL     1      25.358   5.482  49.671  1.00  0.00     0.124 C 
BRANCH  15  16
HETATM   16  C10 UNL     1      23.895   5.693  49.408  1.00  0.00     0.050 C 
BRANCH  16  17
HETATM   17  C11 UNL     1      23.341   4.503  48.663  1.00  0.00     0.274 C 
BRANCH  17  18
HETATM   18  N4  UNL     1      22.452   3.711  49.500  1.00  0.00     0.088 N 
HETATM   19  C12 UNL     1      21.147   3.572  48.870  1.00  0.00     0.272 C 
HETATM   20  C13 UNL     1      20.942   2.261  48.161  1.00  0.00     0.030 C 
HETATM   21  C14 UNL     1      21.054   1.084  49.119  1.00  0.00     0.003 C 
HETATM   22  C15 UNL     1      21.922   1.512  50.290  1.00  0.00     0.030 C 
HETATM   23  C16 UNL     1      23.025   2.384  49.727  1.00  0.00     0.272 C 
ENDBRANCH  17  18
ENDBRANCH  16  17
ENDBRANCH  15  16
ENDBRANCH   3  15
TORSDOF 8
ENDMDL
MODEL 9
REMARK VINA RESULT:      -5.7      1.829      6.032
REMARK  8 active torsions:
REMARK  status: ('A' for Active; 'I' for Inactive)
REMARK    1  A    between atoms: C5_7  and  C6_8 
REMARK    2  A    between atoms: C6_8  and  O1_9 
REMARK    3  A    between atoms: O1_9  and  C7_10 
REMARK    4  A    between atoms: C7_10  and  C8_11 
REMARK       I    between atoms: C8_11  and  N3_13 
REMARK    5  A    between atoms: N3_13  and  C9_14 
REMARK    6  A    between atoms: C9_14  and  C10_15 
REMARK    7  A    between atoms: C10_15  and  C11_16 
REMARK    8  A    between atoms: C11_16  and  N4_17 
ROOT
HETATM    1  C8  UNL     1      23.756   3.556  50.799  1.00  0.00     0.241 C 
HETATM    2  O2  UNL     1      23.794   4.204  51.904  1.00  0.00    -0.271 OA
HETATM    3  N3  UNL     1      24.912   3.000  50.153  1.00  0.00    -0.359 N 
HETATM    4  H8  UNL     1      24.534   2.556  49.278  1.00  0.00     0.162 HD
ENDROOT
BRANCH   1   5
HETATM    5  C7  UNL     1      22.312   3.609  50.523  1.00  0.00     0.277 C 
BRANCH   5   6
HETATM    6  O1  UNL     1      21.885   2.471  49.756  1.00  0.00    -0.353 OA
BRANCH   6   7
HETATM    7  C6  UNL     1      22.124   1.218  50.358  1.00  0.00     0.150 C 
BRANCH   7   8
HETATM    8  C5  UNL     1      21.305   0.701  51.250  1.00  0.00     0.031 A 
HETATM    9  C2  UNL     1      21.646   0.199  52.481  1.00  0.00     0.062 A 
HETATM   10  C1  UNL     1      22.913   0.229  52.822  1.00  0.00     0.046 C 
HETATM   11  N1  UNL     1      20.780  -0.318  53.360  1.00  0.00    -0.242 NA
HETATM   12  C3  UNL     1      19.463  -0.365  53.038  1.00  0.00     0.233 A 
HETATM   13  N2  UNL     1      19.075   0.110  51.851  1.00  0.00    -0.253 NA
HETATM   14  C4  UNL     1      19.965   0.635  50.961  1.00  0.00     0.133 A 
ENDBRANCH   7   8
ENDBRANCH   6   7
ENDBRANCH   5   6
ENDBRANCH   1   5
BRANCH   3  15
HETATM   15  C9  UNL     1      26.163   3.204  50.839  1.00  0.00     0.124 C 
BRANCH  15  16
HETATM   16  C10 UNL     1      26.734   1.987  51.507  1.00  0.00     0.050 C 
BRANCH  16  17
HETATM   17  C11 UNL     1      26.217   1.901  52.923  1.00  0.00     0.274 C 
BRANCH  17  18
HETATM   18  N4  UNL     1      27.148   1.198  53.793  1.00  0.00     0.088 N 
HETATM   19  C12 UNL     1      26.772  -0.202  53.917  1.00  0.00     0.272 C 
HETATM   20  C13 UNL     1      27.564  -1.132  53.038  1.00  0.00     0.030 C 
HETATM   21  C14 UNL     1      29.049  -1.083  53.368  1.00  0.00     0.003 C 
HETATM   22  C15 UNL     1      29.347   0.270  53.992  1.00  0.00     0.030 C 
HETATM   23  C16 UNL     1      28.505   1.291  53.256  1.00  0.00     0.272 C 
ENDBRANCH  17  18
ENDBRANCH  16  17
ENDBRANCH  15  16
ENDBRANCH   3  15
TORSDOF 8
ENDMDL
