MODEL 1
REMARK VINA RESULT:      -9.3      0.000      0.000
REMARK  4 active torsions:
REMARK  status: ('A' for Active; 'I' for Inactive)
REMARK    1  A    between atoms: C4_5  and  N2_6 
REMARK    2  A    between atoms: N2_6  and  C5_7 
REMARK    3  A    between atoms: C14_17  and  N3_18 
REMARK       I    between atoms: N3_18  and  C15_19 
REMARK    4  A    between atoms: C15_19  and  C16_21 
ROOT
HETATM    1  C1  UNL     1      21.409   0.753  49.796  1.00  0.00     0.050 C 
HETATM    2  C2  UNL     1      22.265   1.967  49.867  1.00  0.00    -0.032 A 
HETATM    3  C3  UNL     1      22.025   3.023  49.016  1.00  0.00     0.126 A 
HETATM    4  N1  UNL     1      22.782   4.125  49.060  1.00  0.00    -0.242 NA
HETATM    5  C4  UNL     1      23.802   4.309  49.896  1.00  0.00     0.139 A 
HETATM    6  C11 UNL     1      24.044   3.270  50.738  1.00  0.00     0.024 A 
HETATM    7  C12 UNL     1      23.311   2.108  50.751  1.00  0.00    -0.001 A 
HETATM    8  C13 UNL     1      23.780   1.303  51.664  1.00  0.00     0.016 A 
HETATM    9  C14 UNL     1      24.812   1.790  52.332  1.00  0.00     0.048 A 
HETATM   10  C20 UNL     1      24.968   3.095  51.698  1.00  0.00     0.046 A 
ENDROOT
BRANCH   9  11
HETATM   11  N3  UNL     1      25.562   1.198  53.379  1.00  0.00    -0.325 N 
HETATM   12  C15 UNL     1      26.585   0.275  53.030  1.00  0.00     0.245 C 
HETATM   13  O1  UNL     1      26.769   0.037  51.790  1.00  0.00    -0.271 OA
HETATM   14  H10 UNL     1      25.304   1.486  54.348  1.00  0.00     0.169 HD
BRANCH  12  15
HETATM   15  C16 UNL     1      27.377  -0.349  54.151  1.00  0.00     0.177 C 
HETATM   16  C17 UNL     1      28.696  -0.744  53.489  1.00  0.00     0.044 C 
HETATM   17  C18 UNL     1      29.395   0.592  53.355  1.00  0.00     0.105 C 
HETATM   18  C19 UNL     1      29.031   1.244  54.621  1.00  0.00     0.218 C 
HETATM   19  O2  UNL     1      29.622   2.171  55.228  1.00  0.00    -0.274 OA
HETATM   20  N4  UNL     1      27.821   0.634  55.103  1.00  0.00    -0.348 N 
HETATM   21  H16 UNL     1      27.294   0.819  55.986  1.00  0.00     0.163 HD
ENDBRANCH  12  15
ENDBRANCH   9  11
BRANCH   5  22
HETATM   22  N2  UNL     1      24.617   5.465  49.963  1.00  0.00    -0.340 N 
HETATM   23  H5  UNL     1      24.271   6.273  50.550  1.00  0.00     0.167 HD
BRANCH  22  24
HETATM   24  C5  UNL     1      25.866   5.709  49.342  1.00  0.00     0.035 A 
HETATM   25  C6  UNL     1      26.775   4.698  49.087  1.00  0.00     0.029 A 
HETATM   26  C7  UNL     1      27.980   4.885  48.497  1.00  0.00     0.004 A 
HETATM   27  C8  UNL     1      28.383   6.137  48.103  1.00  0.00     0.019 A 
HETATM   28  C9  UNL     1      27.534   7.197  48.322  1.00  0.00     0.013 A 
HETATM   29 BR1  UNL     1      28.059   8.950  47.789  1.00  0.00    -0.051 Br
HETATM   30  C10 UNL     1      26.324   6.940  48.927  1.00  0.00     0.048 A 
ENDBRANCH  22  24
ENDBRANCH   5  22
TORSDOF 4
ENDMDL
MODEL 2
REMARK VINA RESULT:      -9.1      1.176      1.741
REMARK  4 active torsions:
REMARK  status: ('A' for Active; 'I' for Inactive)
REMARK    1  A    between atoms: C4_5  and  N2_6 
REMARK    2  A    between atoms: N2_6  and  C5_7 
REMARK    3  A    between atoms: C14_17  and  N3_18 
REMARK       I    between atoms: N3_18  and  C15_19 
REMARK    4  A    between atoms: C15_19  and  C16_21 
ROOT
HETATM    1  C1  UNL     1      20.719   0.241  51.942  1.00  0.00     0.050 C 
HETATM    2  C2  UNL     1      21.711   1.103  51.246  1.00  0.00    -0.032 A 
HETATM    3  C3  UNL     1      21.337   1.801  50.119  1.00  0.00     0.126 A 
HETATM    4  N1  UNL     1      22.211   2.582  49.474  1.00  0.00    -0.242 NA
HETATM    5  C4  UNL     1      23.479   2.761  49.840  1.00  0.00     0.139 A 
HETATM    6  C11 UNL     1      23.853   2.075  50.952  1.00  0.00     0.024 A 
HETATM    7  C12 UNL     1      23.014   1.254  51.666  1.00  0.00    -0.001 A 
HETATM    8  C13 UNL     1      23.657   0.739  52.676  1.00  0.00     0.016 A 
HETATM    9  C14 UNL     1      24.919   1.122  52.762  1.00  0.00     0.048 A 
HETATM   10  C20 UNL     1      25.025   2.007  51.607  1.00  0.00     0.046 A 
ENDROOT
BRANCH   9  11
HETATM   11  N3  UNL     1      25.901   0.763  53.720  1.00  0.00    -0.325 N 
HETATM   12  C15 UNL     1      26.872  -0.207  53.352  1.00  0.00     0.245 C 
HETATM   13  O1  UNL     1      26.802  -0.698  52.176  1.00  0.00    -0.271 OA
HETATM   14  H10 UNL     1      25.839   1.246  54.643  1.00  0.00     0.169 HD
BRANCH  12  15
HETATM   15  C16 UNL     1      27.911  -0.581  54.378  1.00  0.00     0.177 C 
HETATM   16  C17 UNL     1      29.184  -0.772  53.554  1.00  0.00     0.044 C 
HETATM   17  C18 UNL     1      29.581   0.658  53.252  1.00  0.00     0.105 C 
HETATM   18  C19 UNL     1      29.265   1.327  54.522  1.00  0.00     0.218 C 
HETATM   19  O2  UNL     1      29.736   2.394  54.989  1.00  0.00    -0.274 OA
HETATM   20  N4  UNL     1      28.274   0.540  55.204  1.00  0.00    -0.348 N 
HETATM   21  H16 UNL     1      27.841   0.691  56.143  1.00  0.00     0.163 HD
ENDBRANCH  12  15
ENDBRANCH   9  11
BRANCH   5  22
HETATM   22  N2  UNL     1      24.423   3.582  49.176  1.00  0.00    -0.340 N 
HETATM   23  H5  UNL     1      24.867   3.201  48.296  1.00  0.00     0.167 HD
BRANCH  22  24
HETATM   24  C5  UNL     1      24.875   4.878  49.525  1.00  0.00     0.035 A 
HETATM   25  C6  UNL     1      24.265   5.632  50.512  1.00  0.00     0.029 A 
HETATM   26  C7  UNL     1      24.663   6.875  50.878  1.00  0.00     0.004 A 
HETATM   27  C8  UNL     1      25.734   7.479  50.267  1.00  0.00     0.019 A 
HETATM   28  C9  UNL     1      26.394   6.792  49.274  1.00  0.00     0.013 A 
HETATM   29 BR1  UNL     1      27.886   7.597  48.404  1.00  0.00    -0.051 Br
HETATM   30  C10 UNL     1      25.940   5.533  48.949  1.00  0.00     0.048 A 
ENDBRANCH  22  24
ENDBRANCH   5  22
TORSDOF 4
ENDMDL
MODEL 3
REMARK VINA RESULT:      -8.7      3.656      7.817
REMARK  4 active torsions:
REMARK  status: ('A' for Active; 'I' for Inactive)
REMARK    1  A    between atoms: C4_5  and  N2_6 
REMARK    2  A    between atoms: N2_6  and  C5_7 
REMARK    3  A    between atoms: C14_17  and  N3_18 
REMARK       I    between atoms: N3_18  and  C15_19 
REMARK    4  A    between atoms: C15_19  and  C16_21 
ROOT
HETATM    1  C1  UNL     1      29.202   1.956  54.212  1.00  0.00     0.050 C 
HETATM    2  C2  UNL     1      27.957   1.215  53.875  1.00  0.00    -0.032 A 
HETATM    3  C3  UNL     1      27.604   0.105  54.609  1.00  0.00     0.126 A 
HETATM    4  N1  UNL     1      26.490  -0.579  54.325  1.00  0.00    -0.242 NA
HETATM    5  C4  UNL     1      25.642  -0.271  53.345  1.00  0.00     0.139 A 
HETATM    6  C11 UNL     1      25.986   0.825  52.617  1.00  0.00     0.024 A 
HETATM    7  C12 UNL     1      27.113   1.576  52.849  1.00  0.00    -0.001 A 
HETATM    8  C13 UNL     1      27.170   2.557  51.992  1.00  0.00     0.016 A 
HETATM    9  C14 UNL     1      26.161   2.586  51.138  1.00  0.00     0.048 A 
HETATM   10  C20 UNL     1      25.390   1.426  51.574  1.00  0.00     0.046 A 
ENDROOT
BRANCH   9  11
HETATM   11  N3  UNL     1      25.904   3.499  50.084  1.00  0.00    -0.325 N 
HETATM   12  C15 UNL     1      24.899   4.484  50.284  1.00  0.00     0.245 C 
HETATM   13  O1  UNL     1      24.288   4.488  51.403  1.00  0.00    -0.271 OA
HETATM   14  H10 UNL     1      26.481   3.380  49.224  1.00  0.00     0.169 HD
BRANCH  12  15
HETATM   15  C16 UNL     1      24.635   5.450  49.157  1.00  0.00     0.177 C 
HETATM   16  C17 UNL     1      24.201   6.730  49.869  1.00  0.00     0.044 C 
HETATM   17  C18 UNL     1      25.518   7.260  50.397  1.00  0.00     0.105 C 
HETATM   18  C19 UNL     1      26.426   6.958  49.281  1.00  0.00     0.218 C 
HETATM   19  O2  UNL     1      27.518   7.502  48.985  1.00  0.00    -0.274 OA
HETATM   20  N4  UNL     1      25.853   5.879  48.523  1.00  0.00    -0.348 N 
HETATM   21  H16 UNL     1      26.203   5.427  47.648  1.00  0.00     0.163 HD
ENDBRANCH  12  15
ENDBRANCH   9  11
BRANCH   5  22
HETATM   22  N2  UNL     1      24.457  -0.977  53.025  1.00  0.00    -0.340 N 
HETATM   23  H5  UNL     1      24.559  -1.885  52.492  1.00  0.00     0.167 HD
BRANCH  22  24
HETATM   24  C5  UNL     1      23.114  -0.641  53.320  1.00  0.00     0.035 A 
HETATM   25  C6  UNL     1      22.609  -0.676  54.608  1.00  0.00     0.029 A 
HETATM   26  C7  UNL     1      21.332  -0.363  54.937  1.00  0.00     0.004 A 
HETATM   27  C8  UNL     1      20.433   0.022  53.974  1.00  0.00     0.019 A 
HETATM   28  C9  UNL     1      20.858   0.082  52.667  1.00  0.00     0.013 A 
HETATM   29 BR1  UNL     1      19.638   0.612  51.303  1.00  0.00    -0.051 Br
HETATM   30  C10 UNL     1      22.168  -0.249  52.399  1.00  0.00     0.048 A 
ENDBRANCH  22  24
ENDBRANCH   5  22
TORSDOF 4
ENDMDL
MODEL 4
REMARK VINA RESULT:      -8.6      4.897      7.685
REMARK  4 active torsions:
REMARK  status: ('A' for Active; 'I' for Inactive)
REMARK    1  A    between atoms: C4_5  and  N2_6 
REMARK    2  A    between atoms: N2_6  and  C5_7 
REMARK    3  A    between atoms: C14_17  and  N3_18 
REMARK       I    between atoms: N3_18  and  C15_19 
REMARK    4  A    between atoms: C15_19  and  C16_21 
ROOT
HETATM    1  C1  UNL     1      22.326   1.988  48.341  1.00  0.00     0.050 C 
HETATM    2  C2  UNL     1      21.529   1.530  49.510  1.00  0.00    -0.032 A 
HETATM    3  C3  UNL     1      20.198   1.215  49.347  1.00  0.00     0.126 A 
HETATM    4  N1  UNL     1      19.460   0.801  50.384  1.00  0.00    -0.242 NA
HETATM    5  C4  UNL     1      19.915   0.656  51.627  1.00  0.00     0.139 A 
HETATM    6  C11 UNL     1      21.228   0.965  51.792  1.00  0.00     0.024 A 
HETATM    7  C12 UNL     1      22.048   1.396  50.778  1.00  0.00    -0.001 A 
HETATM    8  C13 UNL     1      23.247   1.611  51.243  1.00  0.00     0.016 A 
HETATM    9  C14 UNL     1      23.374   1.369  52.537  1.00  0.00     0.048 A 
HETATM   10  C20 UNL     1      22.021   0.942  52.877  1.00  0.00     0.046 A 
ENDROOT
BRANCH   9  11
HETATM   11  N3  UNL     1      24.519   1.493  53.364  1.00  0.00    -0.325 N 
HETATM   12  C15 UNL     1      25.235   0.312  53.696  1.00  0.00     0.245 C 
HETATM   13  O1  UNL     1      24.804  -0.794  53.227  1.00  0.00    -0.271 OA
HETATM   14  H10 UNL     1      24.756   2.460  53.675  1.00  0.00     0.169 HD
BRANCH  12  15
HETATM   15  C16 UNL     1      26.451   0.455  54.576  1.00  0.00     0.177 C 
HETATM   16  C17 UNL     1      27.472  -0.488  53.943  1.00  0.00     0.044 C 
HETATM   17  C18 UNL     1      27.909   0.294  52.722  1.00  0.00     0.105 C 
HETATM   18  C19 UNL     1      27.959   1.665  53.251  1.00  0.00     0.218 C 
HETATM   19  O2  UNL     1      28.617   2.648  52.830  1.00  0.00    -0.274 OA
HETATM   20  N4  UNL     1      27.093   1.730  54.396  1.00  0.00    -0.348 N 
HETATM   21  H16 UNL     1      26.907   2.532  55.040  1.00  0.00     0.163 HD
ENDBRANCH  12  15
ENDBRANCH   9  11
BRANCH   5  22
HETATM   22  N2  UNL     1      19.155   0.220  52.739  1.00  0.00    -0.340 N 
HETATM   23  H5  UNL     1      19.283   0.740  53.651  1.00  0.00     0.167 HD
BRANCH  22  24
HETATM   24  C5  UNL     1      18.221  -0.841  52.817  1.00  0.00     0.035 A 
HETATM   25  C6  UNL     1      18.481  -2.005  53.519  1.00  0.00     0.029 A 
HETATM   26  C7  UNL     1      17.618  -3.045  53.620  1.00  0.00     0.004 A 
HETATM   27  C8  UNL     1      16.389  -3.000  53.009  1.00  0.00     0.019 A 
HETATM   28  C9  UNL     1      16.055  -1.875  52.291  1.00  0.00     0.013 A 
HETATM   29 BR1  UNL     1      14.359  -1.778  51.429  1.00  0.00    -0.051 Br
HETATM   30  C10 UNL     1      16.977  -0.854  52.227  1.00  0.00     0.048 A 
ENDBRANCH  22  24
ENDBRANCH   5  22
TORSDOF 4
ENDMDL
MODEL 5
REMARK VINA RESULT:      -8.6      3.442      6.007
REMARK  4 active torsions:
REMARK  status: ('A' for Active; 'I' for Inactive)
REMARK    1  A    between atoms: C4_5  and  N2_6 
REMARK    2  A    between atoms: N2_6  and  C5_7 
REMARK    3  A    between atoms: C14_17  and  N3_18 
REMARK       I    between atoms: N3_18  and  C15_19 
REMARK    4  A    between atoms: C15_19  and  C16_21 
ROOT
HETATM    1  C1  UNL     1      25.241   5.070  49.216  1.00  0.00     0.050 C 
HETATM    2  C2  UNL     1      24.246   3.980  49.397  1.00  0.00    -0.032 A 
HETATM    3  C3  UNL     1      23.166   3.893  48.546  1.00  0.00     0.126 A 
HETATM    4  N1  UNL     1      22.257   2.923  48.688  1.00  0.00    -0.242 NA
HETATM    5  C4  UNL     1      22.299   1.978  49.626  1.00  0.00     0.139 A 
HETATM    6  C11 UNL     1      23.363   2.059  50.469  1.00  0.00     0.024 A 
HETATM    7  C12 UNL     1      24.336   3.026  50.385  1.00  0.00    -0.001 A 
HETATM    8  C13 UNL     1      25.220   2.842  51.325  1.00  0.00     0.016 A 
HETATM    9  C14 UNL     1      24.971   1.802  52.102  1.00  0.00     0.048 A 
HETATM   10  C20 UNL     1      23.734   1.300  51.514  1.00  0.00     0.046 A 
ENDROOT
BRANCH   9  11
HETATM   11  N3  UNL     1      25.711   1.312  53.209  1.00  0.00    -0.325 N 
HETATM   12  C15 UNL     1      26.603   0.228  52.989  1.00  0.00     0.245 C 
HETATM   13  O1  UNL     1      26.687  -0.240  51.806  1.00  0.00    -0.271 OA
HETATM   14  H10 UNL     1      25.543   1.791  54.120  1.00  0.00     0.169 HD
BRANCH  12  15
HETATM   15  C16 UNL     1      27.384  -0.284  54.173  1.00  0.00     0.177 C 
HETATM   16  C17 UNL     1      28.705  -0.752  53.562  1.00  0.00     0.044 C 
HETATM   17  C18 UNL     1      29.413   0.560  53.298  1.00  0.00     0.105 C 
HETATM   18  C19 UNL     1      29.046   1.338  54.490  1.00  0.00     0.218 C 
HETATM   19  O2  UNL     1      29.640   2.318  55.004  1.00  0.00    -0.274 OA
HETATM   20  N4  UNL     1      27.830   0.787  55.023  1.00  0.00    -0.348 N 
HETATM   21  H16 UNL     1      27.299   1.063  55.880  1.00  0.00     0.163 HD
ENDBRANCH  12  15
ENDBRANCH   9  11
BRANCH   5  22
HETATM   22  N2  UNL     1      21.351   0.940  49.798  1.00  0.00    -0.340 N 
HETATM   23  H5  UNL     1      21.617  -0.024  49.456  1.00  0.00     0.167 HD
BRANCH  22  24
HETATM   24  C5  UNL     1      20.061   1.002  50.377  1.00  0.00     0.035 A 
HETATM   25  C6  UNL     1      19.163   2.011  50.075  1.00  0.00     0.029 A 
HETATM   26  C7  UNL     1      17.919   2.111  50.604  1.00  0.00     0.004 A 
HETATM   27  C8  UNL     1      17.462   1.180  51.504  1.00  0.00     0.019 A 
HETATM   28  C9  UNL     1      18.297   0.144  51.856  1.00  0.00     0.013 A 
HETATM   29 BR1  UNL     1      17.697  -1.166  53.102  1.00  0.00    -0.051 Br
HETATM   30  C10 UNL     1      19.548   0.101  51.283  1.00  0.00     0.048 A 
ENDBRANCH  22  24
ENDBRANCH   5  22
TORSDOF 4
ENDMDL
MODEL 6
REMARK VINA RESULT:      -8.6      2.753      3.744
REMARK  4 active torsions:
REMARK  status: ('A' for Active; 'I' for Inactive)
REMARK    1  A    between atoms: C4_5  and  N2_6 
REMARK    2  A    between atoms: N2_6  and  C5_7 
REMARK    3  A    between atoms: C14_17  and  N3_18 
REMARK       I    between atoms: N3_18  and  C15_19 
REMARK    4  A    between atoms: C15_19  and  C16_21 
ROOT
HETATM    1  C1  UNL     1      20.887  -1.697  54.214  1.00  0.00     0.050 C 
HETATM    2  C2  UNL     1      21.161  -0.380  53.580  1.00  0.00    -0.032 A 
HETATM    3  C3  UNL     1      20.120   0.482  53.318  1.00  0.00     0.126 A 
HETATM    4  N1  UNL     1      20.341   1.672  52.747  1.00  0.00    -0.242 NA
HETATM    5  C4  UNL     1      21.539   2.128  52.389  1.00  0.00     0.139 A 
HETATM    6  C11 UNL     1      22.572   1.282  52.646  1.00  0.00     0.024 A 
HETATM    7  C12 UNL     1      22.423   0.046  53.228  1.00  0.00    -0.001 A 
HETATM    8  C13 UNL     1      23.588  -0.528  53.344  1.00  0.00     0.016 A 
HETATM    9  C14 UNL     1      24.594   0.198  52.888  1.00  0.00     0.048 A 
HETATM   10  C20 UNL     1      23.893   1.394  52.430  1.00  0.00     0.046 A 
ENDROOT
BRANCH   9  11
HETATM   11  N3  UNL     1      25.978  -0.108  52.854  1.00  0.00    -0.325 N 
HETATM   12  C15 UNL     1      26.695  -0.097  54.081  1.00  0.00     0.245 C 
HETATM   13  O1  UNL     1      26.048   0.188  55.142  1.00  0.00    -0.271 OA
HETATM   14  H10 UNL     1      26.377  -0.323  51.914  1.00  0.00     0.169 HD
BRANCH  12  15
HETATM   15  C16 UNL     1      28.166  -0.424  54.033  1.00  0.00     0.177 C 
HETATM   16  C17 UNL     1      28.660   0.302  52.783  1.00  0.00     0.044 C 
HETATM   17  C18 UNL     1      28.702   1.742  53.250  1.00  0.00     0.105 C 
HETATM   18  C19 UNL     1      29.206   1.593  54.622  1.00  0.00     0.218 C 
HETATM   19  O2  UNL     1      29.803   2.434  55.338  1.00  0.00    -0.274 OA
HETATM   20  N4  UNL     1      28.899   0.260  55.065  1.00  0.00    -0.348 N 
HETATM   21  H16 UNL     1      29.135  -0.207  55.970  1.00  0.00     0.163 HD
ENDBRANCH  12  15
ENDBRANCH   9  11
BRANCH   5  22
HETATM   22  N2  UNL     1      21.800   3.382  51.785  1.00  0.00    -0.340 N 
HETATM   23  H5  UNL     1      21.786   4.236  52.408  1.00  0.00     0.167 HD
BRANCH  22  24
HETATM   24  C5  UNL     1      22.086   3.673  50.429  1.00  0.00     0.035 A 
HETATM   25  C6  UNL     1      21.730   2.821  49.399  1.00  0.00     0.029 A 
HETATM   26  C7  UNL     1      21.983   3.058  48.089  1.00  0.00     0.004 A 
HETATM   27  C8  UNL     1      22.632   4.202  47.695  1.00  0.00     0.019 A 
HETATM   28  C9  UNL     1      23.019   5.102  48.662  1.00  0.00     0.013 A 
HETATM   29 BR1  UNL     1      23.922   6.700  48.152  1.00  0.00    -0.051 Br
HETATM   30  C10 UNL     1      22.732   4.801  49.974  1.00  0.00     0.048 A 
ENDBRANCH  22  24
ENDBRANCH   5  22
TORSDOF 4
ENDMDL
MODEL 7
REMARK VINA RESULT:      -8.5      4.051      7.655
REMARK  4 active torsions:
REMARK  status: ('A' for Active; 'I' for Inactive)
REMARK    1  A    between atoms: C4_5  and  N2_6 
REMARK    2  A    between atoms: N2_6  and  C5_7 
REMARK    3  A    between atoms: C14_17  and  N3_18 
REMARK       I    between atoms: N3_18  and  C15_19 
REMARK    4  A    between atoms: C15_19  and  C16_21 
ROOT
HETATM    1  C1  UNL     1      27.452  -0.872  52.806  1.00  0.00     0.050 C 
HETATM    2  C2  UNL     1      26.116  -0.220  52.811  1.00  0.00    -0.032 A 
HETATM    3  C3  UNL     1      25.051  -0.850  53.414  1.00  0.00     0.126 A 
HETATM    4  N1  UNL     1      23.839  -0.284  53.431  1.00  0.00    -0.242 NA
HETATM    5  C4  UNL     1      23.548   0.898  52.892  1.00  0.00     0.139 A 
HETATM    6  C11 UNL     1      24.596   1.525  52.295  1.00  0.00     0.024 A 
HETATM    7  C12 UNL     1      25.868   1.007  52.237  1.00  0.00    -0.001 A 
HETATM    8  C13 UNL     1      26.651   1.835  51.605  1.00  0.00     0.016 A 
HETATM    9  C14 UNL     1      26.048   2.936  51.189  1.00  0.00     0.048 A 
HETATM   10  C20 UNL     1      24.686   2.706  51.659  1.00  0.00     0.046 A 
ENDROOT
BRANCH   9  11
HETATM   11  N3  UNL     1      26.585   4.038  50.477  1.00  0.00    -0.325 N 
HETATM   12  C15 UNL     1      25.886   4.497  49.328  1.00  0.00     0.245 C 
HETATM   13  O1  UNL     1      24.813   3.888  49.006  1.00  0.00    -0.271 OA
HETATM   14  H10 UNL     1      27.470   4.440  50.855  1.00  0.00     0.169 HD
BRANCH  12  15
HETATM   15  C16 UNL     1      26.466   5.670  48.578  1.00  0.00     0.177 C 
HETATM   16  C17 UNL     1      25.237   6.457  48.127  1.00  0.00     0.044 C 
HETATM   17  C18 UNL     1      24.801   7.127  49.413  1.00  0.00     0.105 C 
HETATM   18  C19 UNL     1      26.094   7.487  50.011  1.00  0.00     0.218 C 
HETATM   19  O2  UNL     1      26.351   8.384  50.852  1.00  0.00    -0.274 OA
HETATM   20  N4  UNL     1      27.095   6.612  49.465  1.00  0.00    -0.348 N 
HETATM   21  H16 UNL     1      28.127   6.599  49.634  1.00  0.00     0.163 HD
ENDBRANCH  12  15
ENDBRANCH   9  11
BRANCH   5  22
HETATM   22  N2  UNL     1      22.275   1.519  52.897  1.00  0.00    -0.340 N 
HETATM   23  H5  UNL     1      22.188   2.449  53.391  1.00  0.00     0.167 HD
BRANCH  22  24
HETATM   24  C5  UNL     1      21.063   1.067  52.321  1.00  0.00     0.035 A 
HETATM   25  C6  UNL     1      20.636   1.488  51.074  1.00  0.00     0.029 A 
HETATM   26  C7  UNL     1      19.484   1.082  50.484  1.00  0.00     0.004 A 
HETATM   27  C8  UNL     1      18.646   0.197  51.115  1.00  0.00     0.019 A 
HETATM   28  C9  UNL     1      19.001  -0.269  52.360  1.00  0.00     0.013 A 
HETATM   29 BR1  UNL     1      17.862  -1.498  53.266  1.00  0.00    -0.051 Br
HETATM   30  C10 UNL     1      20.183   0.182  52.904  1.00  0.00     0.048 A 
ENDBRANCH  22  24
ENDBRANCH   5  22
TORSDOF 4
ENDMDL
MODEL 8
REMARK VINA RESULT:      -8.5      3.163      5.097
REMARK  4 active torsions:
REMARK  status: ('A' for Active; 'I' for Inactive)
REMARK    1  A    between atoms: C4_5  and  N2_6 
REMARK    2  A    between atoms: N2_6  and  C5_7 
REMARK    3  A    between atoms: C14_17  and  N3_18 
REMARK       I    between atoms: N3_18  and  C15_19 
REMARK    4  A    between atoms: C15_19  and  C16_21 
ROOT
HETATM    1  C1  UNL     1      27.583   4.759  48.649  1.00  0.00     0.050 C 
HETATM    2  C2  UNL     1      26.291   5.028  49.334  1.00  0.00    -0.032 A 
HETATM    3  C3  UNL     1      25.591   6.178  49.045  1.00  0.00     0.126 A 
HETATM    4  N1  UNL     1      24.427   6.443  49.648  1.00  0.00    -0.242 NA
HETATM    5  C4  UNL     1      23.847   5.655  50.552  1.00  0.00     0.139 A 
HETATM    6  C11 UNL     1      24.533   4.518  50.841  1.00  0.00     0.024 A 
HETATM    7  C12 UNL     1      25.733   4.179  50.264  1.00  0.00    -0.001 A 
HETATM    8  C13 UNL     1      26.143   3.037  50.740  1.00  0.00     0.016 A 
HETATM    9  C14 UNL     1      25.327   2.503  51.634  1.00  0.00     0.048 A 
HETATM   10  C20 UNL     1      24.268   3.505  51.684  1.00  0.00     0.046 A 
ENDROOT
BRANCH   9  11
HETATM   11  N3  UNL     1      25.455   1.285  52.349  1.00  0.00    -0.325 N 
HETATM   12  C15 UNL     1      26.092   1.319  53.619  1.00  0.00     0.245 C 
HETATM   13  O1  UNL     1      26.511   2.448  54.041  1.00  0.00    -0.271 OA
HETATM   14  H10 UNL     1      25.065   0.437  51.883  1.00  0.00     0.169 HD
BRANCH  12  15
HETATM   15  C16 UNL     1      26.223   0.019  54.371  1.00  0.00     0.177 C 
HETATM   16  C17 UNL     1      26.253  -1.038  53.267  1.00  0.00     0.044 C 
HETATM   17  C18 UNL     1      27.656  -0.881  52.720  1.00  0.00     0.105 C 
HETATM   18  C19 UNL     1      28.429  -0.651  53.949  1.00  0.00     0.218 C 
HETATM   19  O2  UNL     1      29.652  -0.845  54.158  1.00  0.00    -0.274 OA
HETATM   20  N4  UNL     1      27.531  -0.137  54.947  1.00  0.00    -0.348 N 
HETATM   21  H16 UNL     1      27.723   0.108  55.945  1.00  0.00     0.163 HD
ENDBRANCH  12  15
ENDBRANCH   9  11
BRANCH   5  22
HETATM   22  N2  UNL     1      22.617   5.912  51.204  1.00  0.00    -0.340 N 
HETATM   23  H5  UNL     1      22.651   6.434  52.123  1.00  0.00     0.167 HD
BRANCH  22  24
HETATM   24  C5  UNL     1      21.305   5.565  50.798  1.00  0.00     0.035 A 
HETATM   25  C6  UNL     1      20.577   6.338  49.911  1.00  0.00     0.029 A 
HETATM   26  C7  UNL     1      19.321   6.045  49.496  1.00  0.00     0.004 A 
HETATM   27  C8  UNL     1      18.676   4.921  49.948  1.00  0.00     0.019 A 
HETATM   28  C9  UNL     1      19.334   4.099  50.834  1.00  0.00     0.013 A 
HETATM   29 BR1  UNL     1      18.469   2.530  51.483  1.00  0.00    -0.051 Br
HETATM   30  C10 UNL     1      20.608   4.453  51.217  1.00  0.00     0.048 A 
ENDBRANCH  22  24
ENDBRANCH   5  22
TORSDOF 4
ENDMDL
MODEL 9
REMARK VINA RESULT:      -8.3      4.844      8.250
REMARK  4 active torsions:
REMARK  status: ('A' for Active; 'I' for Inactive)
REMARK    1  A    between atoms: C4_5  and  N2_6 
REMARK    2  A    between atoms: N2_6  and  C5_7 
REMARK    3  A    between atoms: C14_17  and  N3_18 
REMARK       I    between atoms: N3_18  and  C15_19 
REMARK    4  A    between atoms: C15_19  and  C16_21 
ROOT
HETATM    1  C1  UNL     1      20.578  -1.493  54.298  1.00  0.00     0.050 C 
HETATM    2  C2  UNL     1      21.767  -0.792  53.747  1.00  0.00    -0.032 A 
HETATM    3  C3  UNL     1      23.020  -1.080  54.242  1.00  0.00     0.126 A 
HETATM    4  N1  UNL     1      24.105  -0.461  53.764  1.00  0.00    -0.242 NA
HETATM    5  C4  UNL     1      24.090   0.457  52.799  1.00  0.00     0.139 A 
HETATM    6  C11 UNL     1      22.856   0.744  52.306  1.00  0.00     0.024 A 
HETATM    7  C12 UNL     1      21.697   0.152  52.747  1.00  0.00    -0.001 A 
HETATM    8  C13 UNL     1      20.680   0.631  52.087  1.00  0.00     0.016 A 
HETATM    9  C14 UNL     1      21.005   1.541  51.183  1.00  0.00     0.048 A 
HETATM   10  C20 UNL     1      22.454   1.598  51.349  1.00  0.00     0.046 A 
ENDROOT
BRANCH   9  11
HETATM   11  N3  UNL     1      20.167   2.263  50.297  1.00  0.00    -0.325 N 
HETATM   12  C15 UNL     1      19.428   3.358  50.819  1.00  0.00     0.245 C 
HETATM   13  O1  UNL     1      19.565   3.628  52.058  1.00  0.00    -0.271 OA
HETATM   14  H10 UNL     1      20.153   1.932  49.308  1.00  0.00     0.169 HD
BRANCH  12  15
HETATM   15  C16 UNL     1      18.539   4.119  49.867  1.00  0.00     0.177 C 
HETATM   16  C17 UNL     1      17.750   3.023  49.152  1.00  0.00     0.044 C 
HETATM   17  C18 UNL     1      16.749   2.613  50.212  1.00  0.00     0.105 C 
HETATM   18  C19 UNL     1      16.403   3.910  50.810  1.00  0.00     0.218 C 
HETATM   19  O2  UNL     1      15.367   4.235  51.440  1.00  0.00    -0.274 OA
HETATM   20  N4  UNL     1      17.490   4.818  50.559  1.00  0.00    -0.348 N 
HETATM   21  H16 UNL     1      17.576   5.829  50.807  1.00  0.00     0.163 HD
ENDBRANCH  12  15
ENDBRANCH   9  11
BRANCH   5  22
HETATM   22  N2  UNL     1      25.223   1.125  52.276  1.00  0.00    -0.340 N 
HETATM   23  H5  UNL     1      25.088   1.703  51.401  1.00  0.00     0.167 HD
BRANCH  22  24
HETATM   24  C5  UNL     1      26.553   1.135  52.762  1.00  0.00     0.035 A 
HETATM   25  C6  UNL     1      27.182   2.298  53.169  1.00  0.00     0.029 A 
HETATM   26  C7  UNL     1      28.452   2.355  53.640  1.00  0.00     0.004 A 
HETATM   27  C8  UNL     1      29.214   1.218  53.744  1.00  0.00     0.019 A 
HETATM   28  C9  UNL     1      28.659   0.019  53.359  1.00  0.00     0.013 A 
HETATM   29 BR1  UNL     1      29.687  -1.579  53.491  1.00  0.00    -0.051 Br
HETATM   30  C10 UNL     1      27.365   0.030  52.889  1.00  0.00     0.048 A 
ENDBRANCH  22  24
ENDBRANCH   5  22
TORSDOF 4
ENDMDL
