MODEL 1
REMARK VINA RESULT:      -8.5      0.000      0.000
REMARK  3 active torsions:
REMARK  status: ('A' for Active; 'I' for Inactive)
REMARK       I    between atoms: C2_2  and  N1_4 
REMARK    1  A    between atoms: N1_4  and  C3_5 
REMARK    2  A    between atoms: C8_12  and  N4_13 
REMARK    3  A    between atoms: N4_13  and  C9_14 
ROOT
HETATM    1  C3  UNL     1      26.362   0.581  52.363  1.00  0.00     0.035 C 
HETATM    2  C4  UNL     1      25.203   0.400  52.982  1.00  0.00    -0.038 C 
HETATM    3  C5  UNL     1      25.088  -0.478  54.179  1.00  0.00     0.048 C 
HETATM    4  C6  UNL     1      24.017   0.894  52.307  1.00  0.00     0.186 C 
HETATM    5  N2  UNL     1      23.204   1.925  52.780  1.00  0.00    -0.279 NA
HETATM    6  C7  UNL     1      23.026   3.114  52.327  1.00  0.00     0.223 C 
HETATM    7  N3  UNL     1      23.539   3.880  51.210  1.00  0.00    -0.257 NA
HETATM    8  C8  UNL     1      24.803   3.591  50.759  1.00  0.00     0.110 C 
HETATM    9  C15 UNL     1      26.136   2.806  50.705  1.00  0.00     0.169 C 
HETATM   10  C16 UNL     1      26.501   1.718  51.392  1.00  0.00     0.013 C 
ENDROOT
BRANCH   8  11
HETATM   11  N4  UNL     1      24.879   4.585  49.681  1.00  0.00    -0.375 N 
HETATM   12  H11 UNL     1      24.024   4.365  49.060  1.00  0.00     0.161 HD
BRANCH  11  13
HETATM   13  C9  UNL     1      25.735   5.651  49.299  1.00  0.00     0.093 C 
HETATM   14  C10 UNL     1      26.902   6.032  48.848  1.00  0.00    -0.023 A 
HETATM   15  C11 UNL     1      27.926   5.032  48.536  1.00  0.00     0.013 A 
HETATM   16  C14 UNL     1      27.206   7.455  48.677  1.00  0.00     0.190 A 
HETATM   17  C12 UNL     1      29.115   5.424  48.130  1.00  0.00     0.040 A 
HETATM   18  C13 UNL     1      29.424   6.816  47.985  1.00  0.00     0.097 A 
HETATM   19 BR1  UNL     1      31.130   7.443  47.410  1.00  0.00    -0.030 Br
HETATM   20  N5  UNL     1      28.537   7.673  48.243  1.00  0.00    -0.278 NA
ENDBRANCH  11  13
ENDBRANCH   8  11
BRANCH   1  21
HETATM   21  N1  UNL     1      27.541  -0.034  52.742  1.00  0.00    -0.328 N 
HETATM   22  C2  UNL     1      28.579   0.144  53.733  1.00  0.00     0.218 C 
HETATM   23  C1  UNL     1      29.759  -0.760  53.845  1.00  0.00     0.117 C 
HETATM   24  O1  UNL     1      28.386   1.130  54.479  1.00  0.00    -0.274 OA
HETATM   25  H4  UNL     1      27.761  -0.877  52.156  1.00  0.00     0.169 HD
ENDBRANCH   1  21
TORSDOF 3
ENDMDL
MODEL 2
REMARK VINA RESULT:      -7.8      6.827     10.525
REMARK  3 active torsions:
REMARK  status: ('A' for Active; 'I' for Inactive)
REMARK       I    between atoms: C2_2  and  N1_4 
REMARK    1  A    between atoms: N1_4  and  C3_5 
REMARK    2  A    between atoms: C8_12  and  N4_13 
REMARK    3  A    between atoms: N4_13  and  C9_14 
ROOT
HETATM    1  C3  UNL     1      23.387   1.741  52.634  1.00  0.00     0.035 C 
HETATM    2  C4  UNL     1      24.432   1.179  53.227  1.00  0.00    -0.038 C 
HETATM    3  C5  UNL     1      25.722   1.906  53.384  1.00  0.00     0.048 C 
HETATM    4  C6  UNL     1      24.344  -0.245  53.495  1.00  0.00     0.186 C 
HETATM    5  N2  UNL     1      24.319  -0.814  54.769  1.00  0.00    -0.279 NA
HETATM    6  C7  UNL     1      23.368  -1.414  55.391  1.00  0.00     0.223 C 
HETATM    7  N3  UNL     1      21.993  -1.753  55.090  1.00  0.00    -0.257 NA
HETATM    8  C8  UNL     1      21.300  -0.933  54.235  1.00  0.00     0.110 C 
HETATM    9  C15 UNL     1      21.117   0.251  53.254  1.00  0.00     0.169 C 
HETATM   10  C16 UNL     1      22.031   1.116  52.800  1.00  0.00     0.013 C 
ENDROOT
BRANCH   8  11
HETATM   11  N4  UNL     1      20.016  -1.644  54.248  1.00  0.00    -0.375 N 
HETATM   12  H11 UNL     1      20.166  -2.445  54.955  1.00  0.00     0.161 HD
BRANCH  11  13
HETATM   13  C9  UNL     1      18.755  -1.539  53.603  1.00  0.00     0.093 C 
HETATM   14  C10 UNL     1      17.628  -2.112  53.267  1.00  0.00    -0.023 A 
HETATM   15  C11 UNL     1      17.373  -3.503  53.650  1.00  0.00     0.013 A 
HETATM   16  C14 UNL     1      16.626  -1.382  52.486  1.00  0.00     0.190 A 
HETATM   17  C12 UNL     1      16.259  -4.089  53.266  1.00  0.00     0.040 A 
HETATM   18  C13 UNL     1      15.287  -3.385  52.482  1.00  0.00     0.097 A 
HETATM   19 BR1  UNL     1      13.661  -4.185  51.889  1.00  0.00    -0.030 Br
HETATM   20  N5  UNL     1      15.505  -2.186  52.164  1.00  0.00    -0.278 NA
ENDBRANCH  11  13
ENDBRANCH   8  11
BRANCH   1  21
HETATM   21  N1  UNL     1      23.401   3.013  52.094  1.00  0.00    -0.328 N 
HETATM   22  C2  UNL     1      23.813   3.659  50.868  1.00  0.00     0.218 C 
HETATM   23  C1  UNL     1      23.665   5.124  50.632  1.00  0.00     0.117 C 
HETATM   24  O1  UNL     1      24.306   2.868  50.034  1.00  0.00    -0.274 OA
HETATM   25  H4  UNL     1      22.994   3.730  52.745  1.00  0.00     0.169 HD
ENDBRANCH   1  21
TORSDOF 3
ENDMDL
MODEL 3
REMARK VINA RESULT:      -7.7      6.467      9.787
REMARK  3 active torsions:
REMARK  status: ('A' for Active; 'I' for Inactive)
REMARK       I    between atoms: C2_2  and  N1_4 
REMARK    1  A    between atoms: N1_4  and  C3_5 
REMARK    2  A    between atoms: C8_12  and  N4_13 
REMARK    3  A    between atoms: N4_13  and  C9_14 
ROOT
HETATM    1  C3  UNL     1      24.879   0.720  52.798  1.00  0.00     0.035 C 
HETATM    2  C4  UNL     1      24.651   1.927  52.300  1.00  0.00    -0.038 C 
HETATM    3  C5  UNL     1      25.716   2.691  51.593  1.00  0.00     0.048 C 
HETATM    4  C6  UNL     1      23.406   2.568  52.682  1.00  0.00     0.186 C 
HETATM    5  N2  UNL     1      22.369   2.878  51.801  1.00  0.00    -0.279 NA
HETATM    6  C7  UNL     1      21.191   2.375  51.698  1.00  0.00     0.223 C 
HETATM    7  N3  UNL     1      20.448   1.339  52.386  1.00  0.00    -0.257 NA
HETATM    8  C8  UNL     1      21.154   0.298  52.936  1.00  0.00     0.110 C 
HETATM    9  C15 UNL     1      22.427  -0.485  53.339  1.00  0.00     0.169 C 
HETATM   10  C16 UNL     1      23.711  -0.140  53.190  1.00  0.00     0.013 C 
ENDROOT
BRANCH   8  11
HETATM   11  N4  UNL     1      20.025  -0.462  53.485  1.00  0.00    -0.375 N 
HETATM   12  H11 UNL     1      20.392  -0.831  54.430  1.00  0.00     0.161 HD
BRANCH  11  13
HETATM   13  C9  UNL     1      18.702  -0.798  53.095  1.00  0.00     0.093 C 
HETATM   14  C10 UNL     1      17.742  -1.686  53.074  1.00  0.00    -0.023 A 
HETATM   15  C11 UNL     1      17.948  -2.999  53.691  1.00  0.00     0.013 A 
HETATM   16  C14 UNL     1      16.468  -1.390  52.412  1.00  0.00     0.190 A 
HETATM   17  C12 UNL     1      16.996  -3.905  53.622  1.00  0.00     0.040 A 
HETATM   18  C13 UNL     1      15.758  -3.628  52.955  1.00  0.00     0.097 A 
HETATM   19 BR1  UNL     1      14.349  -4.904  52.816  1.00  0.00    -0.030 Br
HETATM   20  N5  UNL     1      15.581  -2.493  52.436  1.00  0.00    -0.278 NA
ENDBRANCH  11  13
ENDBRANCH   8  11
BRANCH   1  21
HETATM   21  N1  UNL     1      26.102   0.079  52.735  1.00  0.00    -0.328 N 
HETATM   22  C2  UNL     1      27.049  -0.527  53.645  1.00  0.00     0.218 C 
HETATM   23  C1  UNL     1      28.326  -1.150  53.192  1.00  0.00     0.117 C 
HETATM   24  O1  UNL     1      26.690  -0.471  54.841  1.00  0.00    -0.274 OA
HETATM   25  H4  UNL     1      26.461  -0.006  51.752  1.00  0.00     0.169 HD
ENDBRANCH   1  21
TORSDOF 3
ENDMDL
MODEL 4
REMARK VINA RESULT:      -7.6      2.739      4.316
REMARK  3 active torsions:
REMARK  status: ('A' for Active; 'I' for Inactive)
REMARK       I    between atoms: C2_2  and  N1_4 
REMARK    1  A    between atoms: N1_4  and  C3_5 
REMARK    2  A    between atoms: C8_12  and  N4_13 
REMARK    3  A    between atoms: N4_13  and  C9_14 
ROOT
HETATM    1  C3  UNL     1      22.914   1.082  51.969  1.00  0.00     0.035 C 
HETATM    2  C4  UNL     1      23.623   0.428  52.878  1.00  0.00    -0.038 C 
HETATM    3  C5  UNL     1      23.109  -0.813  53.521  1.00  0.00     0.048 C 
HETATM    4  C6  UNL     1      24.803   1.098  53.395  1.00  0.00     0.186 C 
HETATM    5  N2  UNL     1      26.113   0.656  53.208  1.00  0.00    -0.279 NA
HETATM    6  C7  UNL     1      27.067   1.161  52.512  1.00  0.00     0.223 C 
HETATM    7  N3  UNL     1      27.220   2.326  51.665  1.00  0.00    -0.257 NA
HETATM    8  C8  UNL     1      26.110   2.793  51.006  1.00  0.00     0.110 C 
HETATM    9  C15 UNL     1      24.609   2.841  50.631  1.00  0.00     0.169 C 
HETATM   10  C16 UNL     1      23.597   2.110  51.112  1.00  0.00     0.013 C 
ENDROOT
BRANCH   8  11
HETATM   11  N4  UNL     1      26.735   3.919  50.303  1.00  0.00    -0.375 N 
HETATM   12  H11 UNL     1      27.787   3.815  50.521  1.00  0.00     0.161 HD
BRANCH  11  13
HETATM   13  C9  UNL     1      26.318   5.009  49.493  1.00  0.00     0.093 C 
HETATM   14  C10 UNL     1      26.646   5.970  48.669  1.00  0.00    -0.023 A 
HETATM   15  C11 UNL     1      28.049   6.160  48.290  1.00  0.00     0.013 A 
HETATM   16  C14 UNL     1      25.626   6.879  48.141  1.00  0.00     0.190 A 
HETATM   17  C12 UNL     1      28.379   7.159  47.500  1.00  0.00     0.040 A 
HETATM   18  C13 UNL     1      27.386   8.065  47.000  1.00  0.00     0.097 A 
HETATM   19 BR1  UNL     1      27.805   9.534  45.862  1.00  0.00    -0.030 Br
HETATM   20  N5  UNL     1      26.179   7.891  47.319  1.00  0.00    -0.278 NA
ENDBRANCH  11  13
ENDBRANCH   8  11
BRANCH   1  21
HETATM   21  N1  UNL     1      21.650   0.702  51.558  1.00  0.00    -0.328 N 
HETATM   22  C2  UNL     1      20.275   1.031  51.859  1.00  0.00     0.218 C 
HETATM   23  C1  UNL     1      19.117   0.381  51.180  1.00  0.00     0.117 C 
HETATM   24  O1  UNL     1      20.159   1.908  52.742  1.00  0.00    -0.274 OA
HETATM   25  H4  UNL     1      21.675  -0.034  50.808  1.00  0.00     0.169 HD
ENDBRANCH   1  21
TORSDOF 3
ENDMDL
MODEL 5
REMARK VINA RESULT:      -7.6      1.964      2.374
REMARK  3 active torsions:
REMARK  status: ('A' for Active; 'I' for Inactive)
REMARK       I    between atoms: C2_2  and  N1_4 
REMARK    1  A    between atoms: N1_4  and  C3_5 
REMARK    2  A    between atoms: C8_12  and  N4_13 
REMARK    3  A    between atoms: N4_13  and  C9_14 
ROOT
HETATM    1  C3  UNL     1      24.462   1.273  53.169  1.00  0.00     0.035 C 
HETATM    2  C4  UNL     1      23.292   0.678  52.980  1.00  0.00    -0.038 C 
HETATM    3  C5  UNL     1      23.006  -0.672  53.540  1.00  0.00     0.048 C 
HETATM    4  C6  UNL     1      22.399   1.284  52.009  1.00  0.00     0.186 C 
HETATM    5  N2  UNL     1      21.163   1.855  52.313  1.00  0.00    -0.279 NA
HETATM    6  C7  UNL     1      20.788   3.083  52.288  1.00  0.00     0.223 C 
HETATM    7  N3  UNL     1      21.417   4.346  51.959  1.00  0.00    -0.257 NA
HETATM    8  C8  UNL     1      22.768   4.466  52.168  1.00  0.00     0.110 C 
HETATM    9  C15 UNL     1      24.186   3.973  52.548  1.00  0.00     0.169 C 
HETATM   10  C16 UNL     1      24.586   2.743  52.889  1.00  0.00     0.013 C 
ENDROOT
BRANCH   8  11
HETATM   11  N4  UNL     1      22.933   5.854  51.722  1.00  0.00    -0.375 N 
HETATM   12  H11 UNL     1      21.980   6.314  51.935  1.00  0.00     0.161 HD
BRANCH  11  13
HETATM   13  C9  UNL     1      23.947   6.648  51.124  1.00  0.00     0.093 C 
HETATM   14  C10 UNL     1      24.980   6.714  50.325  1.00  0.00    -0.023 A 
HETATM   15  C11 UNL     1      25.451   5.507  49.640  1.00  0.00     0.013 A 
HETATM   16  C14 UNL     1      25.691   7.980  50.128  1.00  0.00     0.190 A 
HETATM   17  C12 UNL     1      26.521   5.570  48.876  1.00  0.00     0.040 A 
HETATM   18  C13 UNL     1      27.233   6.802  48.701  1.00  0.00     0.097 A 
HETATM   19 BR1  UNL     1      28.793   6.950  47.616  1.00  0.00    -0.030 Br
HETATM   20  N5  UNL     1      26.817   7.839  49.282  1.00  0.00    -0.278 NA
ENDBRANCH  11  13
ENDBRANCH   8  11
BRANCH   1  21
HETATM   21  N1  UNL     1      25.512   0.703  53.864  1.00  0.00    -0.328 N 
HETATM   22  C2  UNL     1      26.929   0.478  53.682  1.00  0.00     0.218 C 
HETATM   23  C1  UNL     1      27.780  -0.205  54.698  1.00  0.00     0.117 C 
HETATM   24  O1  UNL     1      27.362   0.911  52.592  1.00  0.00    -0.274 OA
HETATM   25  H4  UNL     1      25.217   0.321  54.797  1.00  0.00     0.169 HD
ENDBRANCH   1  21
TORSDOF 3
ENDMDL
MODEL 6
REMARK VINA RESULT:      -7.5      4.008      7.808
REMARK  3 active torsions:
REMARK  status: ('A' for Active; 'I' for Inactive)
REMARK       I    between atoms: C2_2  and  N1_4 
REMARK    1  A    between atoms: N1_4  and  C3_5 
REMARK    2  A    between atoms: C8_12  and  N4_13 
REMARK    3  A    between atoms: N4_13  and  C9_14 
ROOT
HETATM    1  C3  UNL     1      28.544   5.767  48.238  1.00  0.00     0.035 C 
HETATM    2  C4  UNL     1      28.000   6.912  47.848  1.00  0.00    -0.038 C 
HETATM    3  C5  UNL     1      28.719   7.845  46.938  1.00  0.00     0.048 C 
HETATM    4  C6  UNL     1      26.789   7.327  48.533  1.00  0.00     0.186 C 
HETATM    5  N2  UNL     1      25.535   7.442  47.931  1.00  0.00    -0.279 NA
HETATM    6  C7  UNL     1      24.472   6.738  48.090  1.00  0.00     0.223 C 
HETATM    7  N3  UNL     1      24.104   5.594  48.898  1.00  0.00    -0.257 NA
HETATM    8  C8  UNL     1      25.089   4.698  49.231  1.00  0.00     0.110 C 
HETATM    9  C15 UNL     1      26.537   4.154  49.298  1.00  0.00     0.169 C 
HETATM   10  C16 UNL     1      27.669   4.718  48.863  1.00  0.00     0.013 C 
ENDROOT
BRANCH   8  11
HETATM   11  N4  UNL     1      24.271   3.756  50.003  1.00  0.00    -0.375 N 
HETATM   12  H11 UNL     1      23.255   4.045  49.780  1.00  0.00     0.161 HD
BRANCH  11  13
HETATM   13  C9  UNL     1      24.484   2.670  50.893  1.00  0.00     0.093 C 
HETATM   14  C10 UNL     1      23.971   1.783  51.706  1.00  0.00    -0.023 A 
HETATM   15  C11 UNL     1      22.522   1.739  51.919  1.00  0.00     0.013 A 
HETATM   16  C14 UNL     1      24.837   0.847  52.429  1.00  0.00     0.190 A 
HETATM   17  C12 UNL     1      22.018   0.877  52.776  1.00  0.00     0.040 A 
HETATM   18  C13 UNL     1      22.864  -0.024  53.502  1.00  0.00     0.097 A 
HETATM   19 BR1  UNL     1      22.191  -1.286  54.762  1.00  0.00    -0.030 Br
HETATM   20  N5  UNL     1      24.108   0.009  53.307  1.00  0.00    -0.278 NA
ENDBRANCH  11  13
ENDBRANCH   8  11
BRANCH   1  21
HETATM   21  N1  UNL     1      29.810   5.351  47.869  1.00  0.00    -0.328 N 
HETATM   22  C2  UNL     1      31.176   5.540  48.303  1.00  0.00     0.218 C 
HETATM   23  C1  UNL     1      32.340   4.900  47.625  1.00  0.00     0.117 C 
HETATM   24  O1  UNL     1      31.279   6.292  49.297  1.00  0.00    -0.274 OA
HETATM   25  H4  UNL     1      29.795   4.708  47.038  1.00  0.00     0.169 HD
ENDBRANCH   1  21
TORSDOF 3
ENDMDL
MODEL 7
REMARK VINA RESULT:      -7.5      2.126      3.790
REMARK  3 active torsions:
REMARK  status: ('A' for Active; 'I' for Inactive)
REMARK       I    between atoms: C2_2  and  N1_4 
REMARK    1  A    between atoms: N1_4  and  C3_5 
REMARK    2  A    between atoms: C8_12  and  N4_13 
REMARK    3  A    between atoms: N4_13  and  C9_14 
ROOT
HETATM    1  C3  UNL     1      25.461   3.231  50.713  1.00  0.00     0.035 C 
HETATM    2  C4  UNL     1      24.581   4.029  51.302  1.00  0.00    -0.038 C 
HETATM    3  C5  UNL     1      23.856   3.613  52.534  1.00  0.00     0.048 C 
HETATM    4  C6  UNL     1      24.177   5.214  50.566  1.00  0.00     0.186 C 
HETATM    5  N2  UNL     1      24.441   6.525  50.965  1.00  0.00    -0.279 NA
HETATM    6  C7  UNL     1      25.224   7.406  50.452  1.00  0.00     0.223 C 
HETATM    7  N3  UNL     1      26.124   7.450  49.318  1.00  0.00    -0.257 NA
HETATM    8  C8  UNL     1      26.718   6.278  48.922  1.00  0.00     0.110 C 
HETATM    9  C15 UNL     1      26.985   4.753  48.948  1.00  0.00     0.169 C 
HETATM   10  C16 UNL     1      26.403   3.809  49.696  1.00  0.00     0.013 C 
ENDROOT
BRANCH   8  11
HETATM   11  N4  UNL     1      27.507   6.804  47.803  1.00  0.00    -0.375 N 
HETATM   12  H11 UNL     1      26.782   6.960  47.020  1.00  0.00     0.161 HD
BRANCH  11  13
HETATM   13  C9  UNL     1      28.867   7.114  47.535  1.00  0.00     0.093 C 
HETATM   14  C10 UNL     1      30.112   6.712  47.499  1.00  0.00    -0.023 A 
HETATM   15  C11 UNL     1      30.446   5.335  47.872  1.00  0.00     0.013 A 
HETATM   16  C14 UNL     1      31.181   7.636  47.113  1.00  0.00     0.190 A 
HETATM   17  C12 UNL     1      31.705   4.952  47.881  1.00  0.00     0.040 A 
HETATM   18  C13 UNL     1      32.756   5.861  47.528  1.00  0.00     0.097 A 
HETATM   19 BR1  UNL     1      34.596   5.365  47.533  1.00  0.00    -0.030 Br
HETATM   20  N5  UNL     1      32.463   7.040  47.196  1.00  0.00    -0.278 NA
ENDBRANCH  11  13
ENDBRANCH   8  11
BRANCH   1  21
HETATM   21  N1  UNL     1      25.765   1.958  51.158  1.00  0.00    -0.328 N 
HETATM   22  C2  UNL     1      26.800   1.303  51.927  1.00  0.00     0.218 C 
HETATM   23  C1  UNL     1      26.793  -0.159  52.218  1.00  0.00     0.117 C 
HETATM   24  O1  UNL     1      27.695   2.084  52.316  1.00  0.00    -0.274 OA
HETATM   25  H4  UNL     1      25.046   1.249  50.869  1.00  0.00     0.169 HD
ENDBRANCH   1  21
TORSDOF 3
ENDMDL
MODEL 8
REMARK VINA RESULT:      -7.4      4.204      8.172
REMARK  3 active torsions:
REMARK  status: ('A' for Active; 'I' for Inactive)
REMARK       I    between atoms: C2_2  and  N1_4 
REMARK    1  A    between atoms: N1_4  and  C3_5 
REMARK    2  A    between atoms: C8_12  and  N4_13 
REMARK    3  A    between atoms: N4_13  and  C9_14 
ROOT
HETATM    1  C3  UNL     1      32.451   5.906  48.309  1.00  0.00     0.035 C 
HETATM    2  C4  UNL     1      32.791   7.133  48.679  1.00  0.00    -0.038 C 
HETATM    3  C5  UNL     1      34.204   7.598  48.628  1.00  0.00     0.048 C 
HETATM    4  C6  UNL     1      31.775   7.916  49.358  1.00  0.00     0.186 C 
HETATM    5  N2  UNL     1      31.200   9.083  48.852  1.00  0.00    -0.279 NA
HETATM    6  C7  UNL     1      30.005   9.305  48.435  1.00  0.00     0.223 C 
HETATM    7  N3  UNL     1      28.796   8.518  48.305  1.00  0.00    -0.257 NA
HETATM    8  C8  UNL     1      28.926   7.169  48.088  1.00  0.00     0.110 C 
HETATM    9  C15 UNL     1      29.693   5.834  47.929  1.00  0.00     0.169 C 
HETATM   10  C16 UNL     1      31.003   5.596  48.052  1.00  0.00     0.013 C 
ENDROOT
BRANCH   8  11
HETATM   11  N4  UNL     1      27.501   6.824  48.017  1.00  0.00    -0.375 N 
HETATM   12  H11 UNL     1      27.218   7.085  47.009  1.00  0.00     0.161 HD
BRANCH  11  13
HETATM   13  C9  UNL     1      26.509   6.292  48.882  1.00  0.00     0.093 C 
HETATM   14  C10 UNL     1      26.049   5.263  49.545  1.00  0.00    -0.023 A 
HETATM   15  C11 UNL     1      26.759   3.982  49.489  1.00  0.00     0.013 A 
HETATM   16  C14 UNL     1      24.813   5.371  50.325  1.00  0.00     0.190 A 
HETATM   17  C12 UNL     1      26.264   2.938  50.118  1.00  0.00     0.040 A 
HETATM   18  C13 UNL     1      25.042   3.034  50.862  1.00  0.00     0.097 A 
HETATM   19 BR1  UNL     1      24.273   1.553  51.785  1.00  0.00    -0.030 Br
HETATM   20  N5  UNL     1      24.441   4.140  50.918  1.00  0.00    -0.278 NA
ENDBRANCH  11  13
ENDBRANCH   8  11
BRANCH   1  21
HETATM   21  N1  UNL     1      33.355   4.954  47.877  1.00  0.00    -0.328 N 
HETATM   22  C2  UNL     1      33.987   4.550  46.640  1.00  0.00     0.218 C 
HETATM   23  C1  UNL     1      34.957   3.420  46.555  1.00  0.00     0.117 C 
HETATM   24  O1  UNL     1      33.636   5.239  45.658  1.00  0.00    -0.274 OA
HETATM   25  H4  UNL     1      33.696   4.340  48.658  1.00  0.00     0.169 HD
ENDBRANCH   1  21
TORSDOF 3
ENDMDL
MODEL 9
REMARK VINA RESULT:      -7.3      2.894      3.472
REMARK  3 active torsions:
REMARK  status: ('A' for Active; 'I' for Inactive)
REMARK       I    between atoms: C2_2  and  N1_4 
REMARK    1  A    between atoms: N1_4  and  C3_5 
REMARK    2  A    between atoms: C8_12  and  N4_13 
REMARK    3  A    between atoms: N4_13  and  C9_14 
ROOT
HETATM    1  C3  UNL     1      24.608  -0.093  53.441  1.00  0.00     0.035 C 
HETATM    2  C4  UNL     1      23.570  -0.604  54.088  1.00  0.00    -0.038 C 
HETATM    3  C5  UNL     1      23.743  -1.373  55.352  1.00  0.00     0.048 C 
HETATM    4  C6  UNL     1      22.296  -0.593  53.394  1.00  0.00     0.186 C 
HETATM    5  N2  UNL     1      21.177   0.138  53.797  1.00  0.00    -0.279 NA
HETATM    6  C7  UNL     1      20.615   1.159  53.256  1.00  0.00     0.223 C 
HETATM    7  N3  UNL     1      20.855   1.963  52.076  1.00  0.00    -0.257 NA
HETATM    8  C8  UNL     1      22.147   2.082  51.630  1.00  0.00     0.110 C 
HETATM    9  C15 UNL     1      23.668   1.791  51.618  1.00  0.00     0.169 C 
HETATM   10  C16 UNL     1      24.369   0.946  52.383  1.00  0.00     0.013 C 
ENDROOT
BRANCH   8  11
HETATM   11  N4  UNL     1      21.898   2.956  50.478  1.00  0.00    -0.375 N 
HETATM   12  H11 UNL     1      20.892   2.710  50.174  1.00  0.00     0.161 HD
BRANCH  11  13
HETATM   13  C9  UNL     1      22.605   3.941  49.739  1.00  0.00     0.093 C 
HETATM   14  C10 UNL     1      23.348   5.018  49.749  1.00  0.00    -0.023 A 
HETATM   15  C11 UNL     1      23.726   5.631  51.025  1.00  0.00     0.013 A 
HETATM   16  C14 UNL     1      23.783   5.634  48.493  1.00  0.00     0.190 A 
HETATM   17  C12 UNL     1      24.431   6.742  51.027  1.00  0.00     0.040 A 
HETATM   18  C13 UNL     1      24.838   7.362  49.800  1.00  0.00     0.097 A 
HETATM   19 BR1  UNL     1      25.851   8.975  49.742  1.00  0.00    -0.030 Br
HETATM   20  N5  UNL     1      24.520   6.824  48.705  1.00  0.00    -0.278 NA
ENDBRANCH  11  13
ENDBRANCH   8  11
BRANCH   1  21
HETATM   21  N1  UNL     1      25.921  -0.243  53.849  1.00  0.00    -0.328 N 
HETATM   22  C2  UNL     1      26.951   0.553  54.480  1.00  0.00     0.218 C 
HETATM   23  C1  UNL     1      28.314   0.028  54.778  1.00  0.00     0.117 C 
HETATM   24  O1  UNL     1      26.582   1.718  54.745  1.00  0.00    -0.274 OA
HETATM   25  H4  UNL     1      26.293  -1.206  53.659  1.00  0.00     0.169 HD
ENDBRANCH   1  21
TORSDOF 3
ENDMDL
