MODEL 1
REMARK VINA RESULT:      -8.7      0.000      0.000
REMARK  2 active torsions:
REMARK  status: ('A' for Active; 'I' for Inactive)
REMARK    1  A    between atoms: C6_9  and  N3_10 
REMARK    2  A    between atoms: N3_10  and  C7_11 
ROOT
HETATM    1  C1  UNL     1      22.214   2.157  47.902  1.00  0.00     0.000 C 
HETATM    2  O1  UNL     1      22.216   1.894  49.308  1.00  0.00     0.000 OA
HETATM    3  C2  UNL     1      21.023   1.373  49.792  1.00  0.00    -0.054 A 
HETATM    4  C3  UNL     1      21.915   1.480  50.724  1.00  0.00     0.082 A 
HETATM    5  C4  UNL     1      23.054   1.686  51.587  1.00  0.00     0.057 A 
HETATM    6  N1  UNL     1      23.447   2.932  51.268  1.00  0.00    -0.245 NA
HETATM    7  C5  UNL     1      24.522   3.542  51.858  1.00  0.00     0.235 A 
HETATM    8  N2  UNL     1      25.172   2.831  52.778  1.00  0.00    -0.224 NA
HETATM    9  C6  UNL     1      24.744   1.600  53.060  1.00  0.00     0.140 A 
HETATM   10  C13 UNL     1      23.689   0.905  52.531  1.00  0.00     0.037 A 
HETATM   11  C14 UNL     1      23.254  -0.469  52.871  1.00  0.00     0.212 C 
HETATM   12  O2  UNL     1      21.938  -0.673  53.069  1.00  0.00    -0.386 OA
HETATM   13  C15 UNL     1      21.285  -0.069  54.115  1.00  0.00     0.180 C 
HETATM   14  C16 UNL     1      19.772  -0.477  53.794  1.00  0.00     0.120 C 
HETATM   15  C17 UNL     1      19.681  -0.012  52.435  1.00  0.00    -0.104 C 
HETATM   16  C18 UNL     1      19.630   0.362  51.355  1.00  0.00    -0.102 C 
HETATM   17  C19 UNL     1      19.592   0.831  49.998  1.00  0.00     0.129 C 
ENDROOT
BRANCH   9  18
HETATM   18  N3  UNL     1      25.512   0.922  54.059  1.00  0.00    -0.340 N 
HETATM   19  H6  UNL     1      25.236   0.610  55.004  1.00  0.00     0.167 HD
BRANCH  18  20
HETATM   20  C7  UNL     1      26.866   0.552  53.858  1.00  0.00     0.035 A 
HETATM   21  C8  UNL     1      27.969   1.373  53.967  1.00  0.00     0.029 A 
HETATM   22  C9  UNL     1      29.263   0.974  53.794  1.00  0.00     0.004 A 
HETATM   23  C10 UNL     1      29.546  -0.323  53.486  1.00  0.00     0.024 A 
HETATM   24  C11 UNL     1      28.518  -1.204  53.357  1.00  0.00     0.036 A 
HETATM   25 CL1  UNL     1      28.855  -2.876  52.962  1.00  0.00    -0.084 Cl
HETATM   26  C12 UNL     1      27.248  -0.759  53.540  1.00  0.00     0.053 A 
ENDBRANCH  18  20
ENDBRANCH   9  18
TORSDOF 2
ENDMDL
MODEL 2
REMARK VINA RESULT:      -8.4      2.317      4.109
REMARK  2 active torsions:
REMARK  status: ('A' for Active; 'I' for Inactive)
REMARK    1  A    between atoms: C6_9  and  N3_10 
REMARK    2  A    between atoms: N3_10  and  C7_11 
ROOT
HETATM    1  C1  UNL     1      19.631   4.080  50.455  1.00  0.00     0.000 C 
HETATM    2  O1  UNL     1      20.914   3.469  50.612  1.00  0.00     0.000 OA
HETATM    3  C2  UNL     1      21.917   4.044  49.842  1.00  0.00    -0.054 A 
HETATM    4  C3  UNL     1      22.369   3.083  50.581  1.00  0.00     0.082 A 
HETATM    5  C4  UNL     1      22.644   1.990  51.483  1.00  0.00     0.057 A 
HETATM    6  N1  UNL     1      21.659   1.117  51.202  1.00  0.00    -0.245 NA
HETATM    7  C5  UNL     1      21.532  -0.085  51.844  1.00  0.00     0.235 A 
HETATM    8  N2  UNL     1      22.444  -0.356  52.777  1.00  0.00    -0.224 NA
HETATM    9  C6  UNL     1      23.400   0.540  53.020  1.00  0.00     0.140 A 
HETATM   10  C13 UNL     1      23.614   1.762  52.438  1.00  0.00     0.037 A 
HETATM   11  C14 UNL     1      24.690   2.731  52.746  1.00  0.00     0.212 C 
HETATM   12  O2  UNL     1      25.339   3.290  51.708  1.00  0.00    -0.386 OA
HETATM   13  C15 UNL     1      26.097   2.521  50.860  1.00  0.00     0.180 C 
HETATM   14  C16 UNL     1      26.477   3.600  49.742  1.00  0.00     0.120 C 
HETATM   15  C17 UNL     1      25.160   4.074  49.409  1.00  0.00    -0.104 C 
HETATM   16  C18 UNL     1      24.104   4.439  49.160  1.00  0.00    -0.102 C 
HETATM   17  C19 UNL     1      22.771   4.888  48.871  1.00  0.00     0.129 C 
ENDROOT
BRANCH   9  18
HETATM   18  N3  UNL     1      24.326   0.155  54.041  1.00  0.00    -0.340 N 
HETATM   19  H6  UNL     1      24.193   0.097  55.063  1.00  0.00     0.167 HD
BRANCH  18  20
HETATM   20  C7  UNL     1      25.657  -0.238  53.754  1.00  0.00     0.035 A 
HETATM   21  C8  UNL     1      26.051  -1.300  52.967  1.00  0.00     0.029 A 
HETATM   22  C9  UNL     1      27.346  -1.632  52.690  1.00  0.00     0.004 A 
HETATM   23  C10 UNL     1      28.369  -0.894  53.205  1.00  0.00     0.024 A 
HETATM   24  C11 UNL     1      28.073   0.174  53.994  1.00  0.00     0.036 A 
HETATM   25 CL1  UNL     1      29.370   1.138  54.669  1.00  0.00    -0.084 Cl
HETATM   26  C12 UNL     1      26.769   0.463  54.240  1.00  0.00     0.053 A 
ENDBRANCH  18  20
ENDBRANCH   9  18
TORSDOF 2
ENDMDL
MODEL 3
REMARK VINA RESULT:      -8.3      3.720      7.122
REMARK  2 active torsions:
REMARK  status: ('A' for Active; 'I' for Inactive)
REMARK    1  A    between atoms: C6_9  and  N3_10 
REMARK    2  A    between atoms: N3_10  and  C7_11 
ROOT
HETATM    1  C1  UNL     1      28.854   2.440  53.801  1.00  0.00     0.000 C 
HETATM    2  O1  UNL     1      27.603   2.211  53.146  1.00  0.00     0.000 OA
HETATM    3  C2  UNL     1      26.884   1.135  53.652  1.00  0.00    -0.054 A 
HETATM    4  C3  UNL     1      26.245   1.738  52.702  1.00  0.00     0.082 A 
HETATM    5  C4  UNL     1      25.724   2.559  51.634  1.00  0.00     0.057 A 
HETATM    6  N1  UNL     1      26.769   2.648  50.791  1.00  0.00    -0.245 NA
HETATM    7  C5  UNL     1      26.716   3.355  49.620  1.00  0.00     0.235 A 
HETATM    8  N2  UNL     1      25.561   3.962  49.349  1.00  0.00    -0.224 NA
HETATM    9  C6  UNL     1      24.554   3.845  50.215  1.00  0.00     0.140 A 
HETATM   10  C13 UNL     1      24.506   3.166  51.404  1.00  0.00     0.037 A 
HETATM   11  C14 UNL     1      23.364   3.069  52.341  1.00  0.00     0.212 C 
HETATM   12  O2  UNL     1      23.065   1.853  52.834  1.00  0.00    -0.386 OA
HETATM   13  C15 UNL     1      22.637   0.846  52.004  1.00  0.00     0.180 C 
HETATM   14  C16 UNL     1      22.607  -0.386  53.024  1.00  0.00     0.120 C 
HETATM   15  C17 UNL     1      23.949  -0.306  53.536  1.00  0.00    -0.104 C 
HETATM   16  C18 UNL     1      25.019  -0.224  53.933  1.00  0.00    -0.102 C 
HETATM   17  C19 UNL     1      26.363  -0.096  54.423  1.00  0.00     0.129 C 
ENDROOT
BRANCH   9  18
HETATM   18  N3  UNL     1      23.362   4.536  49.832  1.00  0.00    -0.340 N 
HETATM   19  H6  UNL     1      22.731   5.126  50.399  1.00  0.00     0.167 HD
BRANCH  18  20
HETATM   20  C7  UNL     1      22.853   4.503  48.510  1.00  0.00     0.035 A 
HETATM   21  C8  UNL     1      22.305   3.414  47.865  1.00  0.00     0.029 A 
HETATM   22  C9  UNL     1      21.799   3.428  46.596  1.00  0.00     0.004 A 
HETATM   23  C10 UNL     1      21.811   4.576  45.864  1.00  0.00     0.024 A 
HETATM   24  C11 UNL     1      22.335   5.702  46.422  1.00  0.00     0.036 A 
HETATM   25 CL1  UNL     1      22.364   7.191  45.501  1.00  0.00    -0.084 Cl
HETATM   26  C12 UNL     1      22.825   5.638  47.686  1.00  0.00     0.053 A 
ENDBRANCH  18  20
ENDBRANCH   9  18
TORSDOF 2
ENDMDL
MODEL 4
REMARK VINA RESULT:      -8.2      2.924      5.819
REMARK  2 active torsions:
REMARK  status: ('A' for Active; 'I' for Inactive)
REMARK    1  A    between atoms: C6_9  and  N3_10 
REMARK    2  A    between atoms: N3_10  and  C7_11 
ROOT
HETATM    1  C1  UNL     1      23.773   6.275  48.096  1.00  0.00     0.000 C 
HETATM    2  O1  UNL     1      23.720   5.123  48.941  1.00  0.00     0.000 OA
HETATM    3  C2  UNL     1      24.955   4.533  49.177  1.00  0.00    -0.054 A 
HETATM    4  C3  UNL     1      24.003   3.928  49.812  1.00  0.00     0.082 A 
HETATM    5  C4  UNL     1      22.795   3.420  50.418  1.00  0.00     0.057 A 
HETATM    6  N1  UNL     1      21.940   3.371  49.381  1.00  0.00    -0.245 NA
HETATM    7  C5  UNL     1      20.646   2.942  49.510  1.00  0.00     0.235 A 
HETATM    8  N2  UNL     1      20.266   2.569  50.732  1.00  0.00    -0.224 NA
HETATM    9  C6  UNL     1      21.150   2.636  51.727  1.00  0.00     0.140 A 
HETATM   10  C13 UNL     1      22.456   3.046  51.703  1.00  0.00     0.037 A 
HETATM   11  C14 UNL     1      23.403   3.111  52.840  1.00  0.00     0.212 C 
HETATM   12  O2  UNL     1      24.643   2.625  52.646  1.00  0.00    -0.386 OA
HETATM   13  C15 UNL     1      24.840   1.291  52.388  1.00  0.00     0.180 C 
HETATM   14  C16 UNL     1      26.407   1.281  52.062  1.00  0.00     0.120 C 
HETATM   15  C17 UNL     1      26.445   2.293  51.040  1.00  0.00    -0.104 C 
HETATM   16  C18 UNL     1      26.455   3.103  50.232  1.00  0.00    -0.102 C 
HETATM   17  C19 UNL     1      26.444   4.128  49.226  1.00  0.00     0.129 C 
ENDROOT
BRANCH   9  18
HETATM   18  N3  UNL     1      20.642   2.216  52.997  1.00  0.00    -0.340 N 
HETATM   19  H6  UNL     1      20.208   2.774  53.750  1.00  0.00     0.167 HD
BRANCH  18  20
HETATM   20  C7  UNL     1      20.664   0.863  53.418  1.00  0.00     0.035 A 
HETATM   21  C8  UNL     1      19.723  -0.104  53.135  1.00  0.00     0.029 A 
HETATM   22  C9  UNL     1      19.793  -1.408  53.535  1.00  0.00     0.004 A 
HETATM   23  C10 UNL     1      20.850  -1.843  54.275  1.00  0.00     0.024 A 
HETATM   24  C11 UNL     1      21.828  -0.955  54.603  1.00  0.00     0.036 A 
HETATM   25 CL1  UNL     1      23.198  -1.489  55.554  1.00  0.00    -0.084 Cl
HETATM   26  C12 UNL     1      21.714   0.330  54.180  1.00  0.00     0.053 A 
ENDBRANCH  18  20
ENDBRANCH   9  18
TORSDOF 2
ENDMDL
MODEL 5
REMARK VINA RESULT:      -8.2      4.025      6.955
REMARK  2 active torsions:
REMARK  status: ('A' for Active; 'I' for Inactive)
REMARK    1  A    between atoms: C6_9  and  N3_10 
REMARK    2  A    between atoms: N3_10  and  C7_11 
ROOT
HETATM    1  C1  UNL     1      21.958  -0.455  52.762  1.00  0.00     0.000 C 
HETATM    2  O1  UNL     1      23.095   0.411  52.814  1.00  0.00     0.000 OA
HETATM    3  C2  UNL     1      24.169  -0.102  53.531  1.00  0.00    -0.054 A 
HETATM    4  C3  UNL     1      24.439   1.057  53.020  1.00  0.00     0.082 A 
HETATM    5  C4  UNL     1      24.514   2.340  52.362  1.00  0.00     0.057 A 
HETATM    6  N1  UNL     1      23.364   2.932  52.733  1.00  0.00    -0.245 NA
HETATM    7  C5  UNL     1      23.015   4.190  52.322  1.00  0.00     0.235 A 
HETATM    8  N2  UNL     1      23.882   4.812  51.524  1.00  0.00    -0.224 NA
HETATM    9  C6  UNL     1      25.008   4.185  51.184  1.00  0.00     0.140 A 
HETATM   10  C13 UNL     1      25.447   2.937  51.539  1.00  0.00     0.037 A 
HETATM   11  C14 UNL     1      26.706   2.274  51.130  1.00  0.00     0.212 C 
HETATM   12  O2  UNL     1      27.423   1.656  52.087  1.00  0.00    -0.386 OA
HETATM   13  C15 UNL     1      27.982   2.372  53.116  1.00  0.00     0.180 C 
HETATM   14  C16 UNL     1      28.538   1.186  54.035  1.00  0.00     0.120 C 
HETATM   15  C17 UNL     1      27.335   0.410  54.178  1.00  0.00    -0.104 C 
HETATM   16  C18 UNL     1      26.368  -0.194  54.278  1.00  0.00    -0.102 C 
HETATM   17  C19 UNL     1      25.145  -0.941  54.382  1.00  0.00     0.129 C 
ENDROOT
BRANCH   9  18
HETATM   18  N3  UNL     1      25.867   4.937  50.323  1.00  0.00    -0.340 N 
HETATM   19  H6  UNL     1      26.822   4.722  49.992  1.00  0.00     0.167 HD
BRANCH  18  20
HETATM   20  C7  UNL     1      25.483   6.179  49.758  1.00  0.00     0.035 A 
HETATM   21  C8  UNL     1      25.801   7.434  50.233  1.00  0.00     0.029 A 
HETATM   22  C9  UNL     1      25.434   8.611  49.645  1.00  0.00     0.004 A 
HETATM   23  C10 UNL     1      24.695   8.605  48.500  1.00  0.00     0.024 A 
HETATM   24  C11 UNL     1      24.334   7.409  47.961  1.00  0.00     0.036 A 
HETATM   25 CL1  UNL     1      23.383   7.375  46.490  1.00  0.00    -0.084 Cl
HETATM   26  C12 UNL     1      24.724   6.267  48.582  1.00  0.00     0.053 A 
ENDBRANCH  18  20
ENDBRANCH   9  18
TORSDOF 2
ENDMDL
MODEL 6
REMARK VINA RESULT:      -8.1      4.177      7.063
REMARK  2 active torsions:
REMARK  status: ('A' for Active; 'I' for Inactive)
REMARK    1  A    between atoms: C6_9  and  N3_10 
REMARK    2  A    between atoms: N3_10  and  C7_11 
ROOT
HETATM    1  C1  UNL     1      28.908   2.427  53.803  1.00  0.00     0.000 C 
HETATM    2  O1  UNL     1      27.645   2.183  53.180  1.00  0.00     0.000 OA
HETATM    3  C2  UNL     1      26.946   1.107  53.710  1.00  0.00    -0.054 A 
HETATM    4  C3  UNL     1      26.280   1.697  52.770  1.00  0.00     0.082 A 
HETATM    5  C4  UNL     1      25.728   2.505  51.708  1.00  0.00     0.057 A 
HETATM    6  N1  UNL     1      26.752   2.595  50.841  1.00  0.00    -0.245 NA
HETATM    7  C5  UNL     1      26.667   3.292  49.666  1.00  0.00     0.235 A 
HETATM    8  N2  UNL     1      25.501   3.888  49.417  1.00  0.00    -0.224 NA
HETATM    9  C6  UNL     1      24.516   3.771  50.307  1.00  0.00     0.140 A 
HETATM   10  C13 UNL     1      24.501   3.102  51.502  1.00  0.00     0.037 A 
HETATM   11  C14 UNL     1      23.382   3.004  52.466  1.00  0.00     0.212 C 
HETATM   12  O2  UNL     1      23.104   1.789  52.975  1.00  0.00    -0.386 OA
HETATM   13  C15 UNL     1      22.664   0.773  52.164  1.00  0.00     0.180 C 
HETATM   14  C16 UNL     1      22.666  -0.451  53.194  1.00  0.00     0.120 C 
HETATM   15  C17 UNL     1      24.020  -0.357  53.674  1.00  0.00    -0.104 C 
HETATM   16  C18 UNL     1      25.098  -0.264  54.046  1.00  0.00    -0.102 C 
HETATM   17  C19 UNL     1      26.452  -0.123  54.503  1.00  0.00     0.129 C 
ENDROOT
BRANCH   9  18
HETATM   18  N3  UNL     1      23.310   4.450  49.946  1.00  0.00    -0.340 N 
HETATM   19  H6  UNL     1      22.356   4.076  49.818  1.00  0.00     0.167 HD
BRANCH  18  20
HETATM   20  C7  UNL     1      23.265   5.846  49.704  1.00  0.00     0.035 A 
HETATM   21  C8  UNL     1      23.498   6.849  50.621  1.00  0.00     0.029 A 
HETATM   22  C9  UNL     1      23.472   8.186  50.343  1.00  0.00     0.004 A 
HETATM   23  C10 UNL     1      23.199   8.620  49.081  1.00  0.00     0.024 A 
HETATM   24  C11 UNL     1      22.955   7.698  48.111  1.00  0.00     0.036 A 
HETATM   25 CL1  UNL     1      22.601   8.230  46.481  1.00  0.00    -0.084 Cl
HETATM   26  C12 UNL     1      22.993   6.380  48.437  1.00  0.00     0.053 A 
ENDBRANCH  18  20
ENDBRANCH   9  18
TORSDOF 2
ENDMDL
MODEL 7
REMARK VINA RESULT:      -8.1      3.385      7.257
REMARK  2 active torsions:
REMARK  status: ('A' for Active; 'I' for Inactive)
REMARK    1  A    between atoms: C6_9  and  N3_10 
REMARK    2  A    between atoms: N3_10  and  C7_11 
ROOT
HETATM    1  C1  UNL     1      25.055   3.009  50.451  1.00  0.00     0.000 C 
HETATM    2  O1  UNL     1      24.025   2.161  50.966  1.00  0.00     0.000 OA
HETATM    3  C2  UNL     1      24.446   1.301  51.972  1.00  0.00    -0.054 A 
HETATM    4  C3  UNL     1      23.180   1.180  51.733  1.00  0.00     0.082 A 
HETATM    5  C4  UNL     1      21.803   1.218  51.300  1.00  0.00     0.057 A 
HETATM    6  N1  UNL     1      21.912   1.183  49.959  1.00  0.00    -0.245 NA
HETATM    7  C5  UNL     1      20.825   1.207  49.128  1.00  0.00     0.235 A 
HETATM    8  N2  UNL     1      19.632   1.267  49.719  1.00  0.00    -0.224 NA
HETATM    9  C6  UNL     1      19.575   1.300  51.050  1.00  0.00     0.140 A 
HETATM   10  C13 UNL     1      20.595   1.280  51.964  1.00  0.00     0.037 A 
HETATM   11  C14 UNL     1      20.485   1.325  53.440  1.00  0.00     0.212 C 
HETATM   12  O2  UNL     1      21.232   0.457  54.146  1.00  0.00    -0.386 OA
HETATM   13  C15 UNL     1      21.022  -0.896  54.042  1.00  0.00     0.180 C 
HETATM   14  C16 UNL     1      22.249  -1.454  54.903  1.00  0.00     0.120 C 
HETATM   15  C17 UNL     1      23.333  -0.773  54.245  1.00  0.00    -0.104 C 
HETATM   16  C18 UNL     1      24.180  -0.220  53.710  1.00  0.00    -0.102 C 
HETATM   17  C19 UNL     1      25.226   0.490  53.029  1.00  0.00     0.129 C 
ENDROOT
BRANCH   9  18
HETATM   18  N3  UNL     1      18.249   1.367  51.583  1.00  0.00    -0.340 N 
HETATM   19  H6  UNL     1      17.716   2.183  51.924  1.00  0.00     0.167 HD
BRANCH  18  20
HETATM   20  C7  UNL     1      17.422   0.223  51.717  1.00  0.00     0.035 A 
HETATM   21  C8  UNL     1      16.267  -0.045  51.014  1.00  0.00     0.029 A 
HETATM   22  C9  UNL     1      15.510  -1.174  51.151  1.00  0.00     0.004 A 
HETATM   23  C10 UNL     1      15.876  -2.142  52.036  1.00  0.00     0.024 A 
HETATM   24  C11 UNL     1      17.004  -1.961  52.774  1.00  0.00     0.036 A 
HETATM   25 CL1  UNL     1      17.496  -3.191  53.920  1.00  0.00    -0.084 Cl
HETATM   26  C12 UNL     1      17.723  -0.822  52.602  1.00  0.00     0.053 A 
ENDBRANCH  18  20
ENDBRANCH   9  18
TORSDOF 2
ENDMDL
MODEL 8
REMARK VINA RESULT:      -7.9      4.052      6.391
REMARK  2 active torsions:
REMARK  status: ('A' for Active; 'I' for Inactive)
REMARK    1  A    between atoms: C6_9  and  N3_10 
REMARK    2  A    between atoms: N3_10  and  C7_11 
ROOT
HETATM    1  C1  UNL     1      20.182   0.480  51.123  1.00  0.00     0.000 C 
HETATM    2  O1  UNL     1      21.384   1.076  51.620  1.00  0.00     0.000 OA
HETATM    3  C2  UNL     1      22.132   0.246  52.446  1.00  0.00    -0.054 A 
HETATM    4  C3  UNL     1      22.707   1.392  52.265  1.00  0.00     0.082 A 
HETATM    5  C4  UNL     1      23.157   2.720  51.924  1.00  0.00     0.057 A 
HETATM    6  N1  UNL     1      22.057   3.468  52.129  1.00  0.00    -0.245 NA
HETATM    7  C5  UNL     1      22.033   4.820  51.917  1.00  0.00     0.235 A 
HETATM    8  N2  UNL     1      23.170   5.371  51.492  1.00  0.00    -0.224 NA
HETATM    9  C6  UNL     1      24.232   4.589  51.304  1.00  0.00     0.140 A 
HETATM   10  C13 UNL     1      24.359   3.238  51.485  1.00  0.00     0.037 A 
HETATM   11  C14 UNL     1      25.562   2.405  51.255  1.00  0.00     0.212 C 
HETATM   12  O2  UNL     1      25.888   1.509  52.204  1.00  0.00    -0.386 OA
HETATM   13  C15 UNL     1      26.254   1.921  53.462  1.00  0.00     0.180 C 
HETATM   14  C16 UNL     1      26.349   0.515  54.219  1.00  0.00     0.120 C 
HETATM   15  C17 UNL     1      25.046  -0.011  53.912  1.00  0.00    -0.104 C 
HETATM   16  C18 UNL     1      24.005  -0.413  53.654  1.00  0.00    -0.102 C 
HETATM   17  C19 UNL     1      22.699  -0.900  53.311  1.00  0.00     0.129 C 
ENDROOT
BRANCH   9  18
HETATM   18  N3  UNL     1      25.399   5.278  50.844  1.00  0.00    -0.340 N 
HETATM   19  H6  UNL     1      26.379   5.199  51.160  1.00  0.00     0.167 HD
BRANCH  18  20
HETATM   20  C7  UNL     1      25.356   6.236  49.800  1.00  0.00     0.035 A 
HETATM   21  C8  UNL     1      24.759   6.084  48.566  1.00  0.00     0.029 A 
HETATM   22  C9  UNL     1      24.714   7.041  47.593  1.00  0.00     0.004 A 
HETATM   23  C10 UNL     1      25.289   8.259  47.802  1.00  0.00     0.024 A 
HETATM   24  C11 UNL     1      25.903   8.497  48.992  1.00  0.00     0.036 A 
HETATM   25 CL1  UNL     1      26.650  10.053  49.284  1.00  0.00    -0.084 Cl
HETATM   26  C12 UNL     1      25.920   7.513  49.928  1.00  0.00     0.053 A 
ENDBRANCH  18  20
ENDBRANCH   9  18
TORSDOF 2
ENDMDL
MODEL 9
REMARK VINA RESULT:      -7.7      3.666      6.090
REMARK  2 active torsions:
REMARK  status: ('A' for Active; 'I' for Inactive)
REMARK    1  A    between atoms: C6_9  and  N3_10 
REMARK    2  A    between atoms: N3_10  and  C7_11 
ROOT
HETATM    1  C1  UNL     1      18.188  -0.938  52.837  1.00  0.00     0.000 C 
HETATM    2  O1  UNL     1      19.337  -0.095  52.719  1.00  0.00     0.000 OA
HETATM    3  C2  UNL     1      20.455  -0.555  53.403  1.00  0.00    -0.054 A 
HETATM    4  C3  UNL     1      20.701   0.541  52.760  1.00  0.00     0.082 A 
HETATM    5  C4  UNL     1      20.743   1.751  51.973  1.00  0.00     0.057 A 
HETATM    6  N1  UNL     1      19.632   2.400  52.365  1.00  0.00    -0.245 NA
HETATM    7  C5  UNL     1      19.270   3.618  51.857  1.00  0.00     0.235 A 
HETATM    8  N2  UNL     1      20.083   4.140  50.939  1.00  0.00    -0.224 NA
HETATM    9  C6  UNL     1      21.172   3.459  50.583  1.00  0.00     0.140 A 
HETATM   10  C13 UNL     1      21.620   2.244  51.028  1.00  0.00     0.037 A 
HETATM   11  C14 UNL     1      22.837   1.519  50.597  1.00  0.00     0.212 C 
HETATM   12  O2  UNL     1      23.615   0.984  51.557  1.00  0.00    -0.386 OA
HETATM   13  C15 UNL     1      24.258   1.787  52.466  1.00  0.00     0.180 C 
HETATM   14  C16 UNL     1      24.866   0.687  53.455  1.00  0.00     0.120 C 
HETATM   15  C17 UNL     1      23.666  -0.046  53.764  1.00  0.00    -0.104 C 
HETATM   16  C18 UNL     1      22.702  -0.618  53.994  1.00  0.00    -0.102 C 
HETATM   17  C19 UNL     1      21.481  -1.325  54.261  1.00  0.00     0.129 C 
ENDROOT
BRANCH   9  18
HETATM   18  N3  UNL     1      21.974   4.105  49.590  1.00  0.00    -0.340 N 
HETATM   19  H6  UNL     1      21.987   3.974  48.566  1.00  0.00     0.167 HD
BRANCH  18  20
HETATM   20  C7  UNL     1      22.932   5.099  49.913  1.00  0.00     0.035 A 
HETATM   21  C8  UNL     1      23.216   5.593  51.168  1.00  0.00     0.029 A 
HETATM   22  C9  UNL     1      24.168   6.532  51.444  1.00  0.00     0.004 A 
HETATM   23  C10 UNL     1      24.925   7.059  50.441  1.00  0.00     0.024 A 
HETATM   24  C11 UNL     1      24.712   6.629  49.168  1.00  0.00     0.036 A 
HETATM   25 CL1  UNL     1      25.670   7.290  47.860  1.00  0.00    -0.084 Cl
HETATM   26  C12 UNL     1      23.754   5.693  48.944  1.00  0.00     0.053 A 
ENDBRANCH  18  20
ENDBRANCH   9  18
TORSDOF 2
ENDMDL
