MODEL 1
REMARK VINA RESULT:      -7.7      0.000      0.000
REMARK  7 active torsions:
REMARK  status: ('A' for Active; 'I' for Inactive)
REMARK    1  A    between atoms: O1_2  and  C2_3 
REMARK    2  A    between atoms: C6_9  and  N3_10 
REMARK    3  A    between atoms: N3_10  and  C7_11 
REMARK    4  A    between atoms: C15_21  and  O2_22 
REMARK    5  A    between atoms: O2_22  and  C16_23 
REMARK    6  A    between atoms: C16_23  and  C17_24 
REMARK    7  A    between atoms: C17_24  and  N4_25 
ROOT
HETATM    1  C2  UNL     1      21.395   1.179  51.708  1.00  0.00     0.103 A 
HETATM    2  C3  UNL     1      21.940   1.761  50.550  1.00  0.00     0.072 A 
HETATM    3  C4  UNL     1      23.228   2.280  50.580  1.00  0.00     0.075 A 
HETATM    4  N1  UNL     1      23.829   2.851  49.504  1.00  0.00    -0.241 NA
HETATM    5  C5  UNL     1      25.098   3.326  49.617  1.00  0.00     0.236 A 
HETATM    6  N2  UNL     1      25.820   3.270  50.748  1.00  0.00    -0.224 NA
HETATM    7  C6  UNL     1      25.263   2.706  51.863  1.00  0.00     0.142 A 
HETATM    8  C13 UNL     1      23.978   2.231  51.729  1.00  0.00     0.042 A 
HETATM    9  C14 UNL     1      23.400   1.655  52.821  1.00  0.00     0.057 A 
HETATM   10  C15 UNL     1      22.138   1.114  52.900  1.00  0.00     0.103 A 
ENDROOT
BRANCH   7  11
HETATM   11  N3  UNL     1      26.067   2.669  53.029  1.00  0.00    -0.340 N 
HETATM   12  H6  UNL     1      25.940   3.337  53.802  1.00  0.00     0.167 HD
BRANCH  11  13
HETATM   13  C7  UNL     1      27.099   1.713  53.205  1.00  0.00     0.035 A 
HETATM   14  C8  UNL     1      28.374   2.004  53.649  1.00  0.00     0.032 A 
HETATM   15  C9  UNL     1      29.360   1.023  53.816  1.00  0.00     0.046 A 
HETATM   16  C10 UNL     1      29.016  -0.302  53.514  1.00  0.00     0.138 A 
HETATM   17  F1  UNL     1      30.001  -1.242  53.687  1.00  0.00    -0.204 F 
HETATM   18  C11 UNL     1      27.751  -0.700  53.058  1.00  0.00     0.074 A 
HETATM   19 CL1  UNL     1      27.371  -2.354  52.697  1.00  0.00    -0.081 Cl
HETATM   20  C12 UNL     1      26.914   0.381  52.952  1.00  0.00     0.056 A 
ENDBRANCH  11  13
ENDBRANCH   7  11
BRANCH  10  21
HETATM   21  O2  UNL     1      21.403   0.532  53.811  1.00  0.00    -0.347 OA
BRANCH  21  22
HETATM   22  C16 UNL     1      21.368  -0.379  54.803  1.00  0.00     0.205 C 
BRANCH  22  23
HETATM   23  C17 UNL     1      22.424  -1.442  54.679  1.00  0.00     0.295 C 
BRANCH  23  24
HETATM   24  N4  UNL     1      23.322  -1.557  55.772  1.00  0.00     0.081 N 
HETATM   25  C18 UNL     1      24.684  -1.185  55.423  1.00  0.00     0.306 C 
HETATM   26  H15 UNL     1      23.297  -2.469  56.264  1.00  0.00     0.315 HD
ENDBRANCH  23  24
ENDBRANCH  22  23
ENDBRANCH  21  22
ENDBRANCH  10  21
BRANCH   1  27
HETATM   27  O1  UNL     1      20.102   0.699  51.545  1.00  0.00    -0.353 OA
HETATM   28  C1  UNL     1      19.018   1.597  51.600  1.00  0.00     0.210 C 
ENDBRANCH   1  27
TORSDOF 7
ENDMDL
MODEL 2
REMARK VINA RESULT:      -7.6      2.107      4.523
REMARK  7 active torsions:
REMARK  status: ('A' for Active; 'I' for Inactive)
REMARK    1  A    between atoms: O1_2  and  C2_3 
REMARK    2  A    between atoms: C6_9  and  N3_10 
REMARK    3  A    between atoms: N3_10  and  C7_11 
REMARK    4  A    between atoms: C15_21  and  O2_22 
REMARK    5  A    between atoms: O2_22  and  C16_23 
REMARK    6  A    between atoms: C16_23  and  C17_24 
REMARK    7  A    between atoms: C17_24  and  N4_25 
ROOT
HETATM    1  C2  UNL     1      19.811  -0.166  52.549  1.00  0.00     0.103 A 
HETATM    2  C3  UNL     1      20.193  -0.787  53.750  1.00  0.00     0.072 A 
HETATM    3  C4  UNL     1      21.537  -0.855  54.096  1.00  0.00     0.075 A 
HETATM    4  N1  UNL     1      21.987  -1.430  55.241  1.00  0.00    -0.241 NA
HETATM    5  C5  UNL     1      23.320  -1.445  55.506  1.00  0.00     0.236 A 
HETATM    6  N2  UNL     1      24.251  -0.917  54.695  1.00  0.00    -0.224 NA
HETATM    7  C6  UNL     1      23.853  -0.325  53.527  1.00  0.00     0.142 A 
HETATM    8  C13 UNL     1      22.500  -0.320  53.275  1.00  0.00     0.042 A 
HETATM    9  C14 UNL     1      22.073   0.271  52.124  1.00  0.00     0.057 A 
HETATM   10  C15 UNL     1      20.774   0.391  51.688  1.00  0.00     0.103 A 
ENDROOT
BRANCH   7  11
HETATM   11  N3  UNL     1      24.873   0.219  52.707  1.00  0.00    -0.340 N 
HETATM   12  H6  UNL     1      24.662   0.813  51.894  1.00  0.00     0.167 HD
BRANCH  11  13
HETATM   13  C7  UNL     1      26.248  -0.023  52.954  1.00  0.00     0.035 A 
HETATM   14  C8  UNL     1      26.882  -1.234  52.755  1.00  0.00     0.032 A 
HETATM   15  C9  UNL     1      28.247  -1.424  53.004  1.00  0.00     0.046 A 
HETATM   16  C10 UNL     1      28.981  -0.326  53.474  1.00  0.00     0.138 A 
HETATM   17  F1  UNL     1      30.316  -0.540  53.709  1.00  0.00    -0.204 F 
HETATM   18  C11 UNL     1      28.432   0.943  53.707  1.00  0.00     0.074 A 
HETATM   19 CL1  UNL     1      29.380   2.275  54.289  1.00  0.00    -0.081 Cl
HETATM   20  C12 UNL     1      27.092   0.951  53.413  1.00  0.00     0.056 A 
ENDBRANCH  11  13
ENDBRANCH   7  11
BRANCH  10  21
HETATM   21  O2  UNL     1      20.156   0.898  50.654  1.00  0.00    -0.347 OA
BRANCH  21  22
HETATM   22  C16 UNL     1      20.293   1.499  49.456  1.00  0.00     0.205 C 
BRANCH  22  23
HETATM   23  C17 UNL     1      21.520   1.064  48.703  1.00  0.00     0.295 C 
BRANCH  23  24
HETATM   24  N4  UNL     1      22.315   2.105  48.155  1.00  0.00     0.081 N 
HETATM   25  C18 UNL     1      23.145   2.763  49.151  1.00  0.00     0.306 C 
HETATM   26  H15 UNL     1      21.796   2.797  47.583  1.00  0.00     0.315 HD
ENDBRANCH  23  24
ENDBRANCH  22  23
ENDBRANCH  21  22
ENDBRANCH  10  21
BRANCH   1  27
HETATM   27  O1  UNL     1      18.441  -0.165  52.322  1.00  0.00    -0.353 OA
HETATM   28  C1  UNL     1      17.627  -1.097  52.994  1.00  0.00     0.210 C 
ENDBRANCH   1  27
TORSDOF 7
ENDMDL
MODEL 3
REMARK VINA RESULT:      -7.5      1.421      1.854
REMARK  7 active torsions:
REMARK  status: ('A' for Active; 'I' for Inactive)
REMARK    1  A    between atoms: O1_2  and  C2_3 
REMARK    2  A    between atoms: C6_9  and  N3_10 
REMARK    3  A    between atoms: N3_10  and  C7_11 
REMARK    4  A    between atoms: C15_21  and  O2_22 
REMARK    5  A    between atoms: O2_22  and  C16_23 
REMARK    6  A    between atoms: C16_23  and  C17_24 
REMARK    7  A    between atoms: C17_24  and  N4_25 
ROOT
HETATM    1  C2  UNL     1      21.462   1.882  51.305  1.00  0.00     0.103 A 
HETATM    2  C3  UNL     1      22.191   2.380  50.212  1.00  0.00     0.072 A 
HETATM    3  C4  UNL     1      23.541   2.674  50.360  1.00  0.00     0.075 A 
HETATM    4  N1  UNL     1      24.317   3.152  49.352  1.00  0.00    -0.241 NA
HETATM    5  C5  UNL     1      25.634   3.405  49.581  1.00  0.00     0.236 A 
HETATM    6  N2  UNL     1      26.239   3.211  50.764  1.00  0.00    -0.224 NA
HETATM    7  C6  UNL     1      25.503   2.732  51.814  1.00  0.00     0.142 A 
HETATM    8  C13 UNL     1      24.173   2.483  51.564  1.00  0.00     0.042 A 
HETATM    9  C14 UNL     1      23.418   1.997  52.589  1.00  0.00     0.057 A 
HETATM   10  C15 UNL     1      22.081   1.675  52.551  1.00  0.00     0.103 A 
ENDROOT
BRANCH   7  11
HETATM   11  N3  UNL     1      26.190   2.544  53.040  1.00  0.00    -0.340 N 
HETATM   12  H6  UNL     1      26.007   3.132  53.864  1.00  0.00     0.167 HD
BRANCH  11  13
HETATM   13  C7  UNL     1      27.173   1.537  53.207  1.00  0.00     0.035 A 
HETATM   14  C8  UNL     1      28.446   1.752  53.699  1.00  0.00     0.032 A 
HETATM   15  C9  UNL     1      29.381   0.722  53.855  1.00  0.00     0.046 A 
HETATM   16  C10 UNL     1      28.989  -0.573  53.491  1.00  0.00     0.138 A 
HETATM   17  F1  UNL     1      29.927  -1.562  53.655  1.00  0.00    -0.204 F 
HETATM   18  C11 UNL     1      27.723  -0.896  52.983  1.00  0.00     0.074 A 
HETATM   19 CL1  UNL     1      27.282  -2.516  52.546  1.00  0.00    -0.081 Cl
HETATM   20  C12 UNL     1      26.937   0.225  52.896  1.00  0.00     0.056 A 
ENDBRANCH  11  13
ENDBRANCH   7  11
BRANCH  10  21
HETATM   21  O2  UNL     1      21.186   1.213  53.383  1.00  0.00    -0.347 OA
BRANCH  21  22
HETATM   22  C16 UNL     1      20.891   0.263  54.293  1.00  0.00     0.205 C 
BRANCH  22  23
HETATM   23  C17 UNL     1      20.331  -0.994  53.687  1.00  0.00     0.295 C 
BRANCH  23  24
HETATM   24  N4  UNL     1      18.935  -1.196  53.853  1.00  0.00     0.081 N 
HETATM   25  C18 UNL     1      18.171  -0.846  52.666  1.00  0.00     0.306 C 
HETATM   26  H15 UNL     1      18.529  -0.762  54.702  1.00  0.00     0.315 HD
ENDBRANCH  23  24
ENDBRANCH  22  23
ENDBRANCH  21  22
ENDBRANCH  10  21
BRANCH   1  27
HETATM   27  O1  UNL     1      20.125   1.629  51.026  1.00  0.00    -0.353 OA
HETATM   28  C1  UNL     1      19.747   1.269  49.719  1.00  0.00     0.210 C 
ENDBRANCH   1  27
TORSDOF 7
ENDMDL
MODEL 4
REMARK VINA RESULT:      -7.4      2.394      4.641
REMARK  7 active torsions:
REMARK  status: ('A' for Active; 'I' for Inactive)
REMARK    1  A    between atoms: O1_2  and  C2_3 
REMARK    2  A    between atoms: C6_9  and  N3_10 
REMARK    3  A    between atoms: N3_10  and  C7_11 
REMARK    4  A    between atoms: C15_21  and  O2_22 
REMARK    5  A    between atoms: O2_22  and  C16_23 
REMARK    6  A    between atoms: C16_23  and  C17_24 
REMARK    7  A    between atoms: C17_24  and  N4_25 
ROOT
HETATM    1  C2  UNL     1      19.863   0.130  52.483  1.00  0.00     0.103 A 
HETATM    2  C3  UNL     1      20.192  -0.539  53.674  1.00  0.00     0.072 A 
HETATM    3  C4  UNL     1      21.525  -0.688  54.037  1.00  0.00     0.075 A 
HETATM    4  N1  UNL     1      21.926  -1.314  55.173  1.00  0.00    -0.241 NA
HETATM    5  C5  UNL     1      23.252  -1.407  55.457  1.00  0.00     0.236 A 
HETATM    6  N2  UNL     1      24.222  -0.910  54.673  1.00  0.00    -0.224 NA
HETATM    7  C6  UNL     1      23.875  -0.270  53.514  1.00  0.00     0.142 A 
HETATM    8  C13 UNL     1      22.528  -0.186  53.243  1.00  0.00     0.042 A 
HETATM    9  C14 UNL     1      22.152   0.454  52.101  1.00  0.00     0.057 A 
HETATM   10  C15 UNL     1      20.868   0.655  51.650  1.00  0.00     0.103 A 
ENDROOT
BRANCH   7  11
HETATM   11  N3  UNL     1      24.936   0.237  52.723  1.00  0.00    -0.340 N 
HETATM   12  H6  UNL     1      24.769   0.856  51.918  1.00  0.00     0.167 HD
BRANCH  11  13
HETATM   13  C7  UNL     1      26.292  -0.078  52.988  1.00  0.00     0.035 A 
HETATM   14  C8  UNL     1      26.880  -1.303  52.739  1.00  0.00     0.032 A 
HETATM   15  C9  UNL     1      28.228  -1.564  53.010  1.00  0.00     0.046 A 
HETATM   16  C10 UNL     1      28.995  -0.526  53.556  1.00  0.00     0.138 A 
HETATM   17  F1  UNL     1      30.314  -0.811  53.811  1.00  0.00    -0.204 F 
HETATM   18  C11 UNL     1      28.494   0.751  53.845  1.00  0.00     0.074 A 
HETATM   19 CL1  UNL     1      29.482   2.006  54.523  1.00  0.00    -0.081 Cl
HETATM   20  C12 UNL     1      27.164   0.833  53.520  1.00  0.00     0.056 A 
ENDBRANCH  11  13
ENDBRANCH   7  11
BRANCH  10  21
HETATM   21  O2  UNL     1      20.294   1.219  50.619  1.00  0.00    -0.347 OA
BRANCH  21  22
HETATM   22  C16 UNL     1      20.233   2.314  49.836  1.00  0.00     0.205 C 
BRANCH  22  23
HETATM   23  C17 UNL     1      19.011   3.156  50.078  1.00  0.00     0.295 C 
BRANCH  23  24
HETATM   24  N4  UNL     1      18.561   3.228  51.423  1.00  0.00     0.081 N 
HETATM   25  C18 UNL     1      17.154   3.580  51.528  1.00  0.00     0.306 C 
HETATM   26  H15 UNL     1      19.143   3.817  52.047  1.00  0.00     0.315 HD
ENDBRANCH  23  24
ENDBRANCH  22  23
ENDBRANCH  21  22
ENDBRANCH  10  21
BRANCH   1  27
HETATM   27  O1  UNL     1      18.499   0.211  52.236  1.00  0.00    -0.353 OA
HETATM   28  C1  UNL     1      17.683  -0.908  52.490  1.00  0.00     0.210 C 
ENDBRANCH   1  27
TORSDOF 7
ENDMDL
MODEL 5
REMARK VINA RESULT:      -7.4      4.175      6.274
REMARK  7 active torsions:
REMARK  status: ('A' for Active; 'I' for Inactive)
REMARK    1  A    between atoms: O1_2  and  C2_3 
REMARK    2  A    between atoms: C6_9  and  N3_10 
REMARK    3  A    between atoms: N3_10  and  C7_11 
REMARK    4  A    between atoms: C15_21  and  O2_22 
REMARK    5  A    between atoms: O2_22  and  C16_23 
REMARK    6  A    between atoms: C16_23  and  C17_24 
REMARK    7  A    between atoms: C17_24  and  N4_25 
ROOT
HETATM    1  C2  UNL     1      24.880   0.915  53.435  1.00  0.00     0.103 A 
HETATM    2  C3  UNL     1      23.554   0.898  52.970  1.00  0.00     0.072 A 
HETATM    3  C4  UNL     1      22.934   2.088  52.608  1.00  0.00     0.075 A 
HETATM    4  N1  UNL     1      21.660   2.156  52.143  1.00  0.00    -0.241 NA
HETATM    5  C5  UNL     1      21.133   3.363  51.803  1.00  0.00     0.236 A 
HETATM    6  N2  UNL     1      21.800   4.524  51.897  1.00  0.00    -0.224 NA
HETATM    7  C6  UNL     1      23.087   4.514  52.361  1.00  0.00     0.142 A 
HETATM    8  C13 UNL     1      23.604   3.284  52.700  1.00  0.00     0.042 A 
HETATM    9  C14 UNL     1      24.887   3.241  53.157  1.00  0.00     0.057 A 
HETATM   10  C15 UNL     1      25.591   2.123  53.540  1.00  0.00     0.103 A 
ENDROOT
BRANCH   7  11
HETATM   11  N3  UNL     1      23.748   5.765  52.439  1.00  0.00    -0.340 N 
HETATM   12  H6  UNL     1      23.926   6.234  53.338  1.00  0.00     0.167 HD
BRANCH  11  13
HETATM   13  C7  UNL     1      24.201   6.452  51.285  1.00  0.00     0.035 A 
HETATM   14  C8  UNL     1      23.707   7.665  50.845  1.00  0.00     0.032 A 
HETATM   15  C9  UNL     1      24.194   8.311  49.702  1.00  0.00     0.046 A 
HETATM   16  C10 UNL     1      25.225   7.684  48.990  1.00  0.00     0.138 A 
HETATM   17  F1  UNL     1      25.683   8.340  47.875  1.00  0.00    -0.204 F 
HETATM   18  C11 UNL     1      25.795   6.455  49.353  1.00  0.00     0.074 A 
HETATM   19 CL1  UNL     1      27.072   5.716  48.440  1.00  0.00    -0.081 Cl
HETATM   20  C12 UNL     1      25.203   5.965  50.489  1.00  0.00     0.056 A 
ENDBRANCH  11  13
ENDBRANCH   7  11
BRANCH  10  21
HETATM   21  O2  UNL     1      26.787   1.858  53.996  1.00  0.00    -0.347 OA
BRANCH  21  22
HETATM   22  C16 UNL     1      28.113   1.939  53.768  1.00  0.00     0.205 C 
BRANCH  22  23
HETATM   23  C17 UNL     1      28.904   0.846  54.431  1.00  0.00     0.295 C 
BRANCH  23  24
HETATM   24  N4  UNL     1      28.414  -0.474  54.250  1.00  0.00     0.081 N 
HETATM   25  C18 UNL     1      29.337  -1.322  53.512  1.00  0.00     0.306 C 
HETATM   26  H15 UNL     1      27.455  -0.535  53.860  1.00  0.00     0.315 HD
ENDBRANCH  23  24
ENDBRANCH  22  23
ENDBRANCH  21  22
ENDBRANCH  10  21
BRANCH   1  27
HETATM   27  O1  UNL     1      25.381  -0.338  53.763  1.00  0.00    -0.353 OA
HETATM   28  C1  UNL     1      24.909  -0.993  54.916  1.00  0.00     0.210 C 
ENDBRANCH   1  27
TORSDOF 7
ENDMDL
MODEL 6
REMARK VINA RESULT:      -7.1      2.875      5.086
REMARK  7 active torsions:
REMARK  status: ('A' for Active; 'I' for Inactive)
REMARK    1  A    between atoms: O1_2  and  C2_3 
REMARK    2  A    between atoms: C6_9  and  N3_10 
REMARK    3  A    between atoms: N3_10  and  C7_11 
REMARK    4  A    between atoms: C15_21  and  O2_22 
REMARK    5  A    between atoms: O2_22  and  C16_23 
REMARK    6  A    between atoms: C16_23  and  C17_24 
REMARK    7  A    between atoms: C17_24  and  N4_25 
ROOT
HETATM    1  C2  UNL     1      23.008   3.244  48.972  1.00  0.00     0.103 A 
HETATM    2  C3  UNL     1      22.073   2.226  49.229  1.00  0.00     0.072 A 
HETATM    3  C4  UNL     1      22.168   1.482  50.398  1.00  0.00     0.075 A 
HETATM    4  N1  UNL     1      21.301   0.488  50.725  1.00  0.00    -0.241 NA
HETATM    5  C5  UNL     1      21.462  -0.186  51.895  1.00  0.00     0.236 A 
HETATM    6  N2  UNL     1      22.443   0.068  52.776  1.00  0.00    -0.224 NA
HETATM    7  C6  UNL     1      23.344   1.059  52.497  1.00  0.00     0.142 A 
HETATM    8  C13 UNL     1      23.166   1.729  51.309  1.00  0.00     0.042 A 
HETATM    9  C14 UNL     1      24.044   2.727  51.008  1.00  0.00     0.057 A 
HETATM   10  C15 UNL     1      24.041   3.521  49.884  1.00  0.00     0.103 A 
ENDROOT
BRANCH   7  11
HETATM   11  N3  UNL     1      24.358   1.288  53.461  1.00  0.00    -0.340 N 
HETATM   12  H6  UNL     1      24.217   1.919  54.262  1.00  0.00     0.167 HD
BRANCH  11  13
HETATM   13  C7  UNL     1      25.629   0.667  53.381  1.00  0.00     0.035 A 
HETATM   14  C8  UNL     1      25.859  -0.592  52.861  1.00  0.00     0.032 A 
HETATM   15  C9  UNL     1      27.137  -1.162  52.794  1.00  0.00     0.046 A 
HETATM   16  C10 UNL     1      28.212  -0.407  53.282  1.00  0.00     0.138 A 
HETATM   17  F1  UNL     1      29.452  -0.990  53.204  1.00  0.00    -0.204 F 
HETATM   18  C11 UNL     1      28.084   0.879  53.828  1.00  0.00     0.074 A 
HETATM   19 CL1  UNL     1      29.446   1.777  54.420  1.00  0.00    -0.081 Cl
HETATM   20  C12 UNL     1      26.773   1.280  53.816  1.00  0.00     0.056 A 
ENDBRANCH  11  13
ENDBRANCH   7  11
BRANCH  10  21
HETATM   21  O2  UNL     1      24.761   4.501  49.405  1.00  0.00    -0.347 OA
BRANCH  21  22
HETATM   22  C16 UNL     1      25.916   5.188  49.500  1.00  0.00     0.205 C 
BRANCH  22  23
HETATM   23  C17 UNL     1      25.723   6.644  49.823  1.00  0.00     0.295 C 
BRANCH  23  24
HETATM   24  N4  UNL     1      25.077   6.928  51.055  1.00  0.00     0.081 N 
HETATM   25  C18 UNL     1      23.870   7.722  50.888  1.00  0.00     0.306 C 
HETATM   26  H15 UNL     1      25.691   7.328  51.788  1.00  0.00     0.315 HD
ENDBRANCH  23  24
ENDBRANCH  22  23
ENDBRANCH  21  22
ENDBRANCH  10  21
BRANCH   1  27
HETATM   27  O1  UNL     1      22.802   3.912  47.771  1.00  0.00    -0.353 OA
HETATM   28  C1  UNL     1      21.887   3.390  46.837  1.00  0.00     0.210 C 
ENDBRANCH   1  27
TORSDOF 7
ENDMDL
MODEL 7
REMARK VINA RESULT:      -7.0      5.450      8.162
REMARK  7 active torsions:
REMARK  status: ('A' for Active; 'I' for Inactive)
REMARK    1  A    between atoms: O1_2  and  C2_3 
REMARK    2  A    between atoms: C6_9  and  N3_10 
REMARK    3  A    between atoms: N3_10  and  C7_11 
REMARK    4  A    between atoms: C15_21  and  O2_22 
REMARK    5  A    between atoms: O2_22  and  C16_23 
REMARK    6  A    between atoms: C16_23  and  C17_24 
REMARK    7  A    between atoms: C17_24  and  N4_25 
ROOT
HETATM    1  C2  UNL     1      28.714   6.880  48.051  1.00  0.00     0.103 A 
HETATM    2  C3  UNL     1      27.427   7.435  48.142  1.00  0.00     0.072 A 
HETATM    3  C4  UNL     1      26.357   6.639  48.530  1.00  0.00     0.075 A 
HETATM    4  N1  UNL     1      25.085   7.101  48.650  1.00  0.00    -0.241 NA
HETATM    5  C5  UNL     1      24.097   6.254  49.045  1.00  0.00     0.236 A 
HETATM    6  N2  UNL     1      24.294   4.957  49.333  1.00  0.00    -0.224 NA
HETATM    7  C6  UNL     1      25.556   4.439  49.229  1.00  0.00     0.142 A 
HETATM    8  C13 UNL     1      26.542   5.311  48.827  1.00  0.00     0.042 A 
HETATM    9  C14 UNL     1      27.811   4.825  48.723  1.00  0.00     0.057 A 
HETATM   10  C15 UNL     1      28.936   5.523  48.348  1.00  0.00     0.103 A 
ENDROOT
BRANCH   7  11
HETATM   11  N3  UNL     1      25.710   3.067  49.547  1.00  0.00    -0.340 N 
HETATM   12  H6  UNL     1      25.783   2.343  48.819  1.00  0.00     0.167 HD
BRANCH  11  13
HETATM   13  C7  UNL     1      25.770   2.604  50.885  1.00  0.00     0.035 A 
HETATM   14  C8  UNL     1      24.699   2.088  51.588  1.00  0.00     0.032 A 
HETATM   15  C9  UNL     1      24.808   1.634  52.909  1.00  0.00     0.046 A 
HETATM   16  C10 UNL     1      26.066   1.716  53.522  1.00  0.00     0.138 A 
HETATM   17  F1  UNL     1      26.143   1.264  54.816  1.00  0.00    -0.204 F 
HETATM   18  C11 UNL     1      27.213   2.223  52.896  1.00  0.00     0.074 A 
HETATM   19 CL1  UNL     1      28.751   2.305  53.696  1.00  0.00    -0.081 Cl
HETATM   20  C12 UNL     1      26.928   2.620  51.614  1.00  0.00     0.056 A 
ENDBRANCH  11  13
ENDBRANCH   7  11
BRANCH  10  21
HETATM   21  O2  UNL     1      30.207   5.269  48.183  1.00  0.00    -0.347 OA
BRANCH  21  22
HETATM   22  C16 UNL     1      31.132   4.644  47.428  1.00  0.00     0.205 C 
BRANCH  22  23
HETATM   23  C17 UNL     1      32.507   4.650  48.037  1.00  0.00     0.295 C 
BRANCH  23  24
HETATM   24  N4  UNL     1      33.189   3.405  48.046  1.00  0.00     0.081 N 
HETATM   25  C18 UNL     1      34.617   3.542  47.810  1.00  0.00     0.306 C 
HETATM   26  H15 UNL     1      32.776   2.676  47.436  1.00  0.00     0.315 HD
ENDBRANCH  23  24
ENDBRANCH  22  23
ENDBRANCH  21  22
ENDBRANCH  10  21
BRANCH   1  27
HETATM   27  O1  UNL     1      29.694   7.780  47.653  1.00  0.00    -0.353 OA
HETATM   28  C1  UNL     1      30.097   8.799  48.537  1.00  0.00     0.210 C 
ENDBRANCH   1  27
TORSDOF 7
ENDMDL
MODEL 8
REMARK VINA RESULT:      -7.0      3.961      5.573
REMARK  7 active torsions:
REMARK  status: ('A' for Active; 'I' for Inactive)
REMARK    1  A    between atoms: O1_2  and  C2_3 
REMARK    2  A    between atoms: C6_9  and  N3_10 
REMARK    3  A    between atoms: N3_10  and  C7_11 
REMARK    4  A    between atoms: C15_21  and  O2_22 
REMARK    5  A    between atoms: O2_22  and  C16_23 
REMARK    6  A    between atoms: C16_23  and  C17_24 
REMARK    7  A    between atoms: C17_24  and  N4_25 
ROOT
HETATM    1  C2  UNL     1      22.475   0.168  52.936  1.00  0.00     0.103 A 
HETATM    2  C3  UNL     1      21.321   0.828  52.478  1.00  0.00     0.072 A 
HETATM    3  C4  UNL     1      21.374   2.184  52.179  1.00  0.00     0.075 A 
HETATM    4  N1  UNL     1      20.307   2.891  51.725  1.00  0.00    -0.241 NA
HETATM    5  C5  UNL     1      20.448   4.215  51.447  1.00  0.00     0.236 A 
HETATM    6  N2  UNL     1      21.599   4.892  51.594  1.00  0.00    -0.224 NA
HETATM    7  C6  UNL     1      22.705   4.228  52.049  1.00  0.00     0.142 A 
HETATM    8  C13 UNL     1      22.543   2.889  52.325  1.00  0.00     0.042 A 
HETATM    9  C14 UNL     1      23.630   2.200  52.772  1.00  0.00     0.057 A 
HETATM   10  C15 UNL     1      23.687   0.864  53.096  1.00  0.00     0.103 A 
ENDROOT
BRANCH   7  11
HETATM   11  N3  UNL     1      23.894   4.987  52.185  1.00  0.00    -0.340 N 
HETATM   12  H6  UNL     1      24.269   5.256  53.105  1.00  0.00     0.167 HD
BRANCH  11  13
HETATM   13  C7  UNL     1      24.640   5.428  51.063  1.00  0.00     0.035 A 
HETATM   14  C8  UNL     1      25.276   4.594  50.163  1.00  0.00     0.032 A 
HETATM   15  C9  UNL     1      25.995   5.076  49.062  1.00  0.00     0.046 A 
HETATM   16  C10 UNL     1      26.059   6.465  48.885  1.00  0.00     0.138 A 
HETATM   17  F1  UNL     1      26.770   6.908  47.797  1.00  0.00    -0.204 F 
HETATM   18  C11 UNL     1      25.449   7.394  49.740  1.00  0.00     0.074 A 
HETATM   19 CL1  UNL     1      25.555   9.106  49.480  1.00  0.00    -0.081 Cl
HETATM   20  C12 UNL     1      24.791   6.753  50.759  1.00  0.00     0.056 A 
ENDBRANCH  11  13
ENDBRANCH   7  11
BRANCH  10  21
HETATM   21  O2  UNL     1      24.588   0.024  53.531  1.00  0.00    -0.347 OA
BRANCH  21  22
HETATM   22  C16 UNL     1      25.884  -0.344  53.490  1.00  0.00     0.205 C 
BRANCH  22  23
HETATM   23  C17 UNL     1      26.729   0.318  54.544  1.00  0.00     0.295 C 
BRANCH  23  24
HETATM   24  N4  UNL     1      27.960  -0.321  54.845  1.00  0.00     0.081 N 
HETATM   25  C18 UNL     1      29.097   0.314  54.198  1.00  0.00     0.306 C 
HETATM   26  H15 UNL     1      27.969  -1.346  54.696  1.00  0.00     0.315 HD
ENDBRANCH  23  24
ENDBRANCH  22  23
ENDBRANCH  21  22
ENDBRANCH  10  21
BRANCH   1  27
HETATM   27  O1  UNL     1      22.289  -1.183  53.198  1.00  0.00    -0.353 OA
HETATM   28  C1  UNL     1      21.473  -1.572  54.278  1.00  0.00     0.210 C 
ENDBRANCH   1  27
TORSDOF 7
ENDMDL
MODEL 9
REMARK VINA RESULT:      -6.9      3.766      6.220
REMARK  7 active torsions:
REMARK  status: ('A' for Active; 'I' for Inactive)
REMARK    1  A    between atoms: O1_2  and  C2_3 
REMARK    2  A    between atoms: C6_9  and  N3_10 
REMARK    3  A    between atoms: N3_10  and  C7_11 
REMARK    4  A    between atoms: C15_21  and  O2_22 
REMARK    5  A    between atoms: O2_22  and  C16_23 
REMARK    6  A    between atoms: C16_23  and  C17_24 
REMARK    7  A    between atoms: C17_24  and  N4_25 
ROOT
HETATM    1  C2  UNL     1      26.436  -0.115  53.304  1.00  0.00     0.103 A 
HETATM    2  C3  UNL     1      27.047   0.709  52.344  1.00  0.00     0.072 A 
HETATM    3  C4  UNL     1      26.328   1.750  51.769  1.00  0.00     0.075 A 
HETATM    4  N1  UNL     1      26.847   2.595  50.841  1.00  0.00    -0.241 NA
HETATM    5  C5  UNL     1      26.075   3.594  50.337  1.00  0.00     0.236 A 
HETATM    6  N2  UNL     1      24.801   3.813  50.701  1.00  0.00    -0.224 NA
HETATM    7  C6  UNL     1      24.228   2.991  51.633  1.00  0.00     0.142 A 
HETATM    8  C13 UNL     1      25.024   1.985  52.131  1.00  0.00     0.042 A 
HETATM    9  C14 UNL     1      24.482   1.156  53.067  1.00  0.00     0.057 A 
HETATM   10  C15 UNL     1      25.103   0.100  53.695  1.00  0.00     0.103 A 
ENDROOT
BRANCH   7  11
HETATM   11  N3  UNL     1      22.883   3.266  51.984  1.00  0.00    -0.340 N 
HETATM   12  H6  UNL     1      22.637   3.960  52.703  1.00  0.00     0.167 HD
BRANCH  11  13
HETATM   13  C7  UNL     1      21.792   2.601  51.370  1.00  0.00     0.035 A 
HETATM   14  C8  UNL     1      21.910   1.573  50.454  1.00  0.00     0.032 A 
HETATM   15  C9  UNL     1      20.801   0.940  49.880  1.00  0.00     0.046 A 
HETATM   16  C10 UNL     1      19.528   1.382  50.265  1.00  0.00     0.138 A 
HETATM   17  F1  UNL     1      18.460   0.743  49.686  1.00  0.00    -0.204 F 
HETATM   18  C11 UNL     1      19.301   2.416  51.185  1.00  0.00     0.074 A 
HETATM   19 CL1  UNL     1      17.705   2.930  51.631  1.00  0.00    -0.081 Cl
HETATM   20  C12 UNL     1      20.490   2.922  51.645  1.00  0.00     0.056 A 
ENDBRANCH  11  13
ENDBRANCH   7  11
BRANCH  10  21
HETATM   21  O2  UNL     1      24.786  -0.798  54.590  1.00  0.00    -0.347 OA
BRANCH  21  22
HETATM   22  C16 UNL     1      23.838  -1.245  55.437  1.00  0.00     0.205 C 
BRANCH  22  23
HETATM   23  C17 UNL     1      22.496  -1.437  54.787  1.00  0.00     0.295 C 
BRANCH  23  24
HETATM   24  N4  UNL     1      21.570  -0.373  54.946  1.00  0.00     0.081 N 
HETATM   25  C18 UNL     1      20.757  -0.151  53.761  1.00  0.00     0.306 C 
HETATM   26  H15 UNL     1      21.979   0.515  55.291  1.00  0.00     0.315 HD
ENDBRANCH  23  24
ENDBRANCH  22  23
ENDBRANCH  21  22
ENDBRANCH  10  21
BRANCH   1  27
HETATM   27  O1  UNL     1      27.261  -1.117  53.799  1.00  0.00    -0.353 OA
HETATM   28  C1  UNL     1      28.621  -1.136  53.434  1.00  0.00     0.210 C 
ENDBRANCH   1  27
TORSDOF 7
ENDMDL
