MODEL 1
REMARK VINA RESULT:      -8.9      0.000      0.000
REMARK  6 active torsions:
REMARK  status: ('A' for Active; 'I' for Inactive)
REMARK    1  A    between atoms: N1_1  and  C1_2 
REMARK    2  A    between atoms: C3_4  and  C4_5 
REMARK    3  A    between atoms: C9_13  and  N5_14 
REMARK    4  A    between atoms: N5_14  and  C10_15 
REMARK    5  A    between atoms: C14_19  and  N6_20 
REMARK       I    between atoms: N6_20  and  C15_21 
REMARK    6  A    between atoms: C15_21  and  C16_23 
ROOT
HETATM    1  N5  UNL     1      20.954   0.745  51.377  1.00  0.00    -0.363 N 
HETATM    2  H10 UNL     1      20.266   0.100  50.887  1.00  0.00     0.162 HD
ENDROOT
BRANCH   1   3
HETATM    3  C9  UNL     1      21.134   2.062  50.814  1.00  0.00     0.250 A 
HETATM    4  C1  UNL     1      21.798   1.984  49.495  1.00  0.00     0.049 A 
HETATM    5  C2  UNL     1      22.921   2.483  49.014  1.00  0.00     0.062 A 
HETATM    6  C3  UNL     1      23.647   3.269  49.999  1.00  0.00     0.090 A 
HETATM    7  N3  UNL     1      23.229   3.449  51.203  1.00  0.00    -0.177 NA
HETATM    8  N4  UNL     1      22.010   2.881  51.652  1.00  0.00    -0.284 N 
HETATM    9  H8  UNL     1      21.879   3.162  52.668  1.00  0.00     0.185 HD
BRANCH   4  10
HETATM   10  N1  UNL     1      20.989   1.202  48.656  1.00  0.00    -0.399 N 
HETATM   11  H1  UNL     1      20.559   0.397  49.185  1.00  0.00     0.156 HD
HETATM   12  H2  UNL     1      20.460   0.792  47.853  1.00  0.00     0.156 HD
ENDBRANCH   4  10
BRANCH   6  13
HETATM   13  C4  UNL     1      24.909   3.876  49.592  1.00  0.00     0.012 A 
HETATM   14  C5  UNL     1      24.893   5.157  49.084  1.00  0.00     0.017 A 
HETATM   15  C6  UNL     1      26.013   5.855  48.659  1.00  0.00     0.020 A 
HETATM   16  C7  UNL     1      27.225   5.178  48.771  1.00  0.00     0.116 A 
HETATM   17  N2  UNL     1      27.262   3.926  49.265  1.00  0.00    -0.272 NA
HETATM   18  C8  UNL     1      26.143   3.279  49.669  1.00  0.00     0.130 A 
ENDBRANCH   6  13
ENDBRANCH   1   3
BRANCH   1  19
HETATM   19  C10 UNL     1      21.602   0.216  52.521  1.00  0.00     0.032 A 
HETATM   20  C11 UNL     1      20.955  -0.090  53.698  1.00  0.00     0.029 A 
HETATM   21  C12 UNL     1      21.547  -0.599  54.834  1.00  0.00     0.004 A 
HETATM   22  C13 UNL     1      22.907  -0.825  54.795  1.00  0.00     0.029 A 
HETATM   23  C14 UNL     1      23.602  -0.536  53.638  1.00  0.00     0.037 A 
HETATM   24  C20 UNL     1      22.949  -0.027  52.537  1.00  0.00     0.058 A 
BRANCH  23  25
HETATM   25  N6  UNL     1      24.999  -0.774  53.612  1.00  0.00    -0.322 N 
HETATM   26  C15 UNL     1      25.934   0.280  53.698  1.00  0.00     0.263 C 
HETATM   27  O1  UNL     1      25.560   1.493  53.802  1.00  0.00    -0.267 OA
HETATM   28  H14 UNL     1      25.251  -1.791  53.525  1.00  0.00     0.169 HD
BRANCH  26  29
HETATM   29  C16 UNL     1      27.309  -0.099  53.660  1.00  0.00     0.072 A 
HETATM   30  C17 UNL     1      27.792  -1.312  53.094  1.00  0.00     0.025 A 
HETATM   31  C18 UNL     1      29.131  -1.566  53.115  1.00  0.00     0.009 A 
HETATM   32  C19 UNL     1      29.990  -0.546  53.736  1.00  0.00     0.050 A 
HETATM   33  S1  UNL     1      28.713   0.744  54.251  1.00  0.00    -0.097 SA
ENDBRANCH  26  29
ENDBRANCH  23  25
ENDBRANCH   1  19
TORSDOF 6
ENDMDL
MODEL 2
REMARK VINA RESULT:      -8.4      2.610      3.555
REMARK  6 active torsions:
REMARK  status: ('A' for Active; 'I' for Inactive)
REMARK    1  A    between atoms: N1_1  and  C1_2 
REMARK    2  A    between atoms: C3_4  and  C4_5 
REMARK    3  A    between atoms: C9_13  and  N5_14 
REMARK    4  A    between atoms: N5_14  and  C10_15 
REMARK    5  A    between atoms: C14_19  and  N6_20 
REMARK       I    between atoms: N6_20  and  C15_21 
REMARK    6  A    between atoms: C15_21  and  C16_23 
ROOT
HETATM    1  N5  UNL     1      21.865   5.978  51.693  1.00  0.00    -0.363 N 
HETATM    2  H10 UNL     1      21.040   6.393  52.220  1.00  0.00     0.162 HD
ENDROOT
BRANCH   1   3
HETATM    3  C9  UNL     1      22.631   6.875  50.862  1.00  0.00     0.250 A 
HETATM    4  C1  UNL     1      22.946   6.248  49.560  1.00  0.00     0.049 A 
HETATM    5  C2  UNL     1      24.074   5.966  48.938  1.00  0.00     0.062 A 
HETATM    6  C3  UNL     1      25.245   6.357  49.705  1.00  0.00     0.090 A 
HETATM    7  N3  UNL     1      25.174   6.916  50.863  1.00  0.00    -0.177 NA
HETATM    8  N4  UNL     1      23.924   7.189  51.473  1.00  0.00    -0.284 N 
HETATM    9  H8  UNL     1      24.117   7.643  52.413  1.00  0.00     0.185 HD
BRANCH   4  10
HETATM   10  N1  UNL     1      21.729   5.927  48.938  1.00  0.00    -0.399 N 
HETATM   11  H1  UNL     1      21.007   5.627  49.645  1.00  0.00     0.156 HD
HETATM   12  H2  UNL     1      20.953   5.751  48.259  1.00  0.00     0.156 HD
ENDBRANCH   4  10
BRANCH   6  13
HETATM   13  C4  UNL     1      26.559   6.100  49.126  1.00  0.00     0.012 A 
HETATM   14  C5  UNL     1      27.320   7.170  48.709  1.00  0.00     0.017 A 
HETATM   15  C6  UNL     1      28.582   7.072  48.142  1.00  0.00     0.020 A 
HETATM   16  C7  UNL     1      29.083   5.780  48.002  1.00  0.00     0.116 A 
HETATM   17  N2  UNL     1      28.355   4.721  48.404  1.00  0.00    -0.272 NA
HETATM   18  C8  UNL     1      27.125   4.860  48.953  1.00  0.00     0.130 A 
ENDBRANCH   6  13
ENDBRANCH   1   3
BRANCH   1  19
HETATM   19  C10 UNL     1      22.095   4.592  51.882  1.00  0.00     0.032 A 
HETATM   20  C11 UNL     1      21.200   3.609  51.522  1.00  0.00     0.029 A 
HETATM   21  C12 UNL     1      21.381   2.253  51.693  1.00  0.00     0.004 A 
HETATM   22  C13 UNL     1      22.561   1.838  52.274  1.00  0.00     0.029 A 
HETATM   23  C14 UNL     1      23.492   2.784  52.651  1.00  0.00     0.037 A 
HETATM   24  C20 UNL     1      23.248   4.125  52.453  1.00  0.00     0.058 A 
BRANCH  23  25
HETATM   25  N6  UNL     1      24.700   2.342  53.246  1.00  0.00    -0.322 N 
HETATM   26  C15 UNL     1      25.844   2.047  52.474  1.00  0.00     0.263 C 
HETATM   27  O1  UNL     1      25.838   2.165  51.206  1.00  0.00    -0.267 OA
HETATM   28  H14 UNL     1      24.648   2.263  54.293  1.00  0.00     0.169 HD
BRANCH  26  29
HETATM   29  C16 UNL     1      26.993   1.612  53.199  1.00  0.00     0.072 A 
HETATM   30  C17 UNL     1      28.152   2.409  53.421  1.00  0.00     0.025 A 
HETATM   31  C18 UNL     1      29.190   1.884  54.132  1.00  0.00     0.009 A 
HETATM   32  C19 UNL     1      29.029   0.507  54.624  1.00  0.00     0.050 A 
HETATM   33  S1  UNL     1      27.307   0.087  53.979  1.00  0.00    -0.097 SA
ENDBRANCH  26  29
ENDBRANCH  23  25
ENDBRANCH   1  19
TORSDOF 6
ENDMDL
MODEL 3
REMARK VINA RESULT:      -8.3      3.956      7.964
REMARK  6 active torsions:
REMARK  status: ('A' for Active; 'I' for Inactive)
REMARK    1  A    between atoms: N1_1  and  C1_2 
REMARK    2  A    between atoms: C3_4  and  C4_5 
REMARK    3  A    between atoms: C9_13  and  N5_14 
REMARK    4  A    between atoms: N5_14  and  C10_15 
REMARK    5  A    between atoms: C14_19  and  N6_20 
REMARK       I    between atoms: N6_20  and  C15_21 
REMARK    6  A    between atoms: C15_21  and  C16_23 
ROOT
HETATM    1  N5  UNL     1      26.103   4.840  49.790  1.00  0.00    -0.363 N 
HETATM    2  H10 UNL     1      25.597   5.362  50.565  1.00  0.00     0.162 HD
ENDROOT
BRANCH   1   3
HETATM    3  C9  UNL     1      25.792   3.439  49.631  1.00  0.00     0.250 A 
HETATM    4  C1  UNL     1      24.349   3.193  49.840  1.00  0.00     0.049 A 
HETATM    5  C2  UNL     1      23.669   2.442  50.685  1.00  0.00     0.062 A 
HETATM    6  C3  UNL     1      24.533   1.711  51.597  1.00  0.00     0.090 A 
HETATM    7  N3  UNL     1      25.818   1.797  51.572  1.00  0.00    -0.177 NA
HETATM    8  N4  UNL     1      26.481   2.627  50.634  1.00  0.00    -0.284 N 
HETATM    9  H8  UNL     1      27.526   2.537  50.807  1.00  0.00     0.185 HD
BRANCH   4  10
HETATM   10  N1  UNL     1      23.646   3.959  48.896  1.00  0.00    -0.399 N 
HETATM   11  H1  UNL     1      22.990   3.358  48.330  1.00  0.00     0.156 HD
HETATM   12  H2  UNL     1      23.260   4.724  48.296  1.00  0.00     0.156 HD
ENDBRANCH   4  10
BRANCH   6  13
HETATM   13  C4  UNL     1      23.904   0.841  52.584  1.00  0.00     0.012 A 
HETATM   14  C5  UNL     1      22.532   0.866  52.709  1.00  0.00     0.017 A 
HETATM   15  C6  UNL     1      21.804   0.096  53.604  1.00  0.00     0.020 A 
HETATM   16  C7  UNL     1      22.550  -0.753  54.418  1.00  0.00     0.116 A 
HETATM   17  N2  UNL     1      23.892  -0.792  54.311  1.00  0.00    -0.272 NA
HETATM   18  C8  UNL     1      24.565  -0.023  53.424  1.00  0.00     0.130 A 
ENDBRANCH   6  13
ENDBRANCH   1   3
BRANCH   1  19
HETATM   19  C10 UNL     1      27.018   5.598  49.017  1.00  0.00     0.032 A 
HETATM   20  C11 UNL     1      26.780   6.885  48.589  1.00  0.00     0.029 A 
HETATM   21  C12 UNL     1      27.638   7.655  47.833  1.00  0.00     0.004 A 
HETATM   22  C13 UNL     1      28.844   7.092  47.471  1.00  0.00     0.029 A 
HETATM   23  C14 UNL     1      29.131   5.805  47.875  1.00  0.00     0.037 A 
HETATM   24  C20 UNL     1      28.228   5.089  48.630  1.00  0.00     0.058 A 
BRANCH  23  25
HETATM   25  N6  UNL     1      30.375   5.240  47.495  1.00  0.00    -0.322 N 
HETATM   26  C15 UNL     1      31.454   5.144  48.400  1.00  0.00     0.263 C 
HETATM   27  O1  UNL     1      31.355   5.562  49.599  1.00  0.00    -0.267 OA
HETATM   28  H14 UNL     1      30.400   4.912  46.497  1.00  0.00     0.169 HD
BRANCH  26  29
HETATM   29  C16 UNL     1      32.648   4.554  47.888  1.00  0.00     0.072 A 
HETATM   30  C17 UNL     1      32.714   3.262  47.293  1.00  0.00     0.025 A 
HETATM   31  C18 UNL     1      33.915   2.804  46.838  1.00  0.00     0.009 A 
HETATM   32  C19 UNL     1      35.072   3.698  47.001  1.00  0.00     0.050 A 
HETATM   33  S1  UNL     1      34.269   5.187  47.836  1.00  0.00    -0.097 SA
ENDBRANCH  26  29
ENDBRANCH  23  25
ENDBRANCH   1  19
TORSDOF 6
ENDMDL
MODEL 4
REMARK VINA RESULT:      -8.3      1.436      5.376
REMARK  6 active torsions:
REMARK  status: ('A' for Active; 'I' for Inactive)
REMARK    1  A    between atoms: N1_1  and  C1_2 
REMARK    2  A    between atoms: C3_4  and  C4_5 
REMARK    3  A    between atoms: C9_13  and  N5_14 
REMARK    4  A    between atoms: N5_14  and  C10_15 
REMARK    5  A    between atoms: C14_19  and  N6_20 
REMARK       I    between atoms: N6_20  and  C15_21 
REMARK    6  A    between atoms: C15_21  and  C16_23 
ROOT
HETATM    1  N5  UNL     1      21.860   3.281  48.899  1.00  0.00    -0.363 N 
HETATM    2  H10 UNL     1      21.489   3.537  47.936  1.00  0.00     0.162 HD
ENDROOT
BRANCH   1   3
HETATM    3  C9  UNL     1      20.971   2.552  49.771  1.00  0.00     0.250 A 
HETATM    4  C1  UNL     1      21.149   2.976  51.177  1.00  0.00     0.049 A 
HETATM    5  C2  UNL     1      21.485   2.338  52.281  1.00  0.00     0.062 A 
HETATM    6  C3  UNL     1      21.733   0.924  52.053  1.00  0.00     0.090 A 
HETATM    7  N3  UNL     1      21.632   0.369  50.896  1.00  0.00    -0.177 NA
HETATM    8  N4  UNL     1      21.265   1.119  49.750  1.00  0.00    -0.284 N 
HETATM    9  H8  UNL     1      21.251   0.454  48.922  1.00  0.00     0.185 HD
BRANCH   4  10
HETATM   10  N1  UNL     1      20.878   4.353  51.244  1.00  0.00    -0.399 N 
HETATM   11  H1  UNL     1      19.848   4.544  51.124  1.00  0.00     0.156 HD
HETATM   12  H2  UNL     1      20.933   5.393  51.328  1.00  0.00     0.156 HD
ENDBRANCH   4  10
BRANCH   6  13
HETATM   13  C4  UNL     1      22.115   0.104  53.197  1.00  0.00     0.012 A 
HETATM   14  C5  UNL     1      23.454  -0.068  53.470  1.00  0.00     0.017 A 
HETATM   15  C6  UNL     1      23.959  -0.819  54.521  1.00  0.00     0.020 A 
HETATM   16  C7  UNL     1      23.010  -1.428  55.338  1.00  0.00     0.116 A 
HETATM   17  N2  UNL     1      21.696  -1.273  55.088  1.00  0.00    -0.272 NA
HETATM   18  C8  UNL     1      21.245  -0.530  54.051  1.00  0.00     0.130 A 
ENDBRANCH   6  13
ENDBRANCH   1   3
BRANCH   1  19
HETATM   19  C10 UNL     1      23.184   3.696  49.191  1.00  0.00     0.032 A 
HETATM   20  C11 UNL     1      23.687   4.938  48.873  1.00  0.00     0.029 A 
HETATM   21  C12 UNL     1      24.967   5.380  49.133  1.00  0.00     0.004 A 
HETATM   22  C13 UNL     1      25.824   4.505  49.768  1.00  0.00     0.029 A 
HETATM   23  C14 UNL     1      25.367   3.248  50.109  1.00  0.00     0.037 A 
HETATM   24  C20 UNL     1      24.076   2.869  49.819  1.00  0.00     0.058 A 
BRANCH  23  25
HETATM   25  N6  UNL     1      26.259   2.360  50.762  1.00  0.00    -0.322 N 
HETATM   26  C15 UNL     1      26.216   2.158  52.159  1.00  0.00     0.263 C 
HETATM   27  O1  UNL     1      25.372   2.767  52.892  1.00  0.00    -0.267 OA
HETATM   28  H14 UNL     1      26.933   1.886  50.109  1.00  0.00     0.169 HD
BRANCH  26  29
HETATM   29  C16 UNL     1      27.170   1.238  52.686  1.00  0.00     0.072 A 
HETATM   30  C17 UNL     1      27.079  -0.177  52.555  1.00  0.00     0.025 A 
HETATM   31  C18 UNL     1      28.054  -0.956  53.102  1.00  0.00     0.009 A 
HETATM   32  C19 UNL     1      29.146  -0.261  53.802  1.00  0.00     0.050 A 
HETATM   33  S1  UNL     1      28.630   1.540  53.586  1.00  0.00    -0.097 SA
ENDBRANCH  26  29
ENDBRANCH  23  25
ENDBRANCH   1  19
TORSDOF 6
ENDMDL
MODEL 5
REMARK VINA RESULT:      -8.0      3.834      8.027
REMARK  6 active torsions:
REMARK  status: ('A' for Active; 'I' for Inactive)
REMARK    1  A    between atoms: N1_1  and  C1_2 
REMARK    2  A    between atoms: C3_4  and  C4_5 
REMARK    3  A    between atoms: C9_13  and  N5_14 
REMARK    4  A    between atoms: N5_14  and  C10_15 
REMARK    5  A    between atoms: C14_19  and  N6_20 
REMARK       I    between atoms: N6_20  and  C15_21 
REMARK    6  A    between atoms: C15_21  and  C16_23 
ROOT
HETATM    1  N5  UNL     1      25.503   4.161  49.497  1.00  0.00    -0.363 N 
HETATM    2  H10 UNL     1      25.137   3.404  48.847  1.00  0.00     0.162 HD
ENDROOT
BRANCH   1   3
HETATM    3  C9  UNL     1      25.000   4.163  50.850  1.00  0.00     0.250 A 
HETATM    4  C1  UNL     1      25.419   2.941  51.569  1.00  0.00     0.049 A 
HETATM    5  C2  UNL     1      24.758   1.963  52.160  1.00  0.00     0.062 A 
HETATM    6  C3  UNL     1      23.317   2.137  52.076  1.00  0.00     0.090 A 
HETATM    7  N3  UNL     1      22.761   3.138  51.486  1.00  0.00    -0.177 NA
HETATM    8  N4  UNL     1      23.537   4.153  50.871  1.00  0.00    -0.284 N 
HETATM    9  H8  UNL     1      22.866   4.862  50.454  1.00  0.00     0.185 HD
BRANCH   4  10
HETATM   10  N1  UNL     1      26.823   2.908  51.571  1.00  0.00    -0.399 N 
HETATM   11  H1  UNL     1      27.182   1.984  51.930  1.00  0.00     0.156 HD
HETATM   12  H2  UNL     1      27.842   3.124  51.478  1.00  0.00     0.156 HD
ENDBRANCH   4  10
BRANCH   6  13
HETATM   13  C4  UNL     1      22.470   1.122  52.690  1.00  0.00     0.012 A 
HETATM   14  C5  UNL     1      23.069   0.072  53.352  1.00  0.00     0.017 A 
HETATM   15  C6  UNL     1      22.389  -0.961  53.981  1.00  0.00     0.020 A 
HETATM   16  C7  UNL     1      20.999  -0.896  53.916  1.00  0.00     0.116 A 
HETATM   17  N2  UNL     1      20.394   0.122  53.274  1.00  0.00    -0.272 NA
HETATM   18  C8  UNL     1      21.096   1.111  52.673  1.00  0.00     0.130 A 
ENDBRANCH   6  13
ENDBRANCH   1   3
BRANCH   1  19
HETATM   19  C10 UNL     1      26.438   5.068  48.939  1.00  0.00     0.032 A 
HETATM   20  C11 UNL     1      26.129   6.359  48.571  1.00  0.00     0.029 A 
HETATM   21  C12 UNL     1      27.004   7.272  48.020  1.00  0.00     0.004 A 
HETATM   22  C13 UNL     1      28.305   6.861  47.817  1.00  0.00     0.029 A 
HETATM   23  C14 UNL     1      28.665   5.577  48.170  1.00  0.00     0.037 A 
HETATM   24  C20 UNL     1      27.741   4.714  48.716  1.00  0.00     0.058 A 
BRANCH  23  25
HETATM   25  N6  UNL     1      30.007   5.169  47.957  1.00  0.00    -0.322 N 
HETATM   26  C15 UNL     1      31.090   5.827  48.578  1.00  0.00     0.263 C 
HETATM   27  O1  UNL     1      30.908   6.817  49.358  1.00  0.00    -0.267 OA
HETATM   28  H14 UNL     1      30.098   4.349  47.305  1.00  0.00     0.169 HD
BRANCH  26  29
HETATM   29  C16 UNL     1      32.387   5.315  48.276  1.00  0.00     0.072 A 
HETATM   30  C17 UNL     1      33.606   5.916  48.698  1.00  0.00     0.025 A 
HETATM   31  C18 UNL     1      34.789   5.334  48.349  1.00  0.00     0.009 A 
HETATM   32  C19 UNL     1      34.710   4.104  47.545  1.00  0.00     0.050 A 
HETATM   33  S1  UNL     1      32.843   3.901  47.368  1.00  0.00    -0.097 SA
ENDBRANCH  26  29
ENDBRANCH  23  25
ENDBRANCH   1  19
TORSDOF 6
ENDMDL
MODEL 6
REMARK VINA RESULT:      -8.0      4.108      8.472
REMARK  6 active torsions:
REMARK  status: ('A' for Active; 'I' for Inactive)
REMARK    1  A    between atoms: N1_1  and  C1_2 
REMARK    2  A    between atoms: C3_4  and  C4_5 
REMARK    3  A    between atoms: C9_13  and  N5_14 
REMARK    4  A    between atoms: N5_14  and  C10_15 
REMARK    5  A    between atoms: C14_19  and  N6_20 
REMARK       I    between atoms: N6_20  and  C15_21 
REMARK    6  A    between atoms: C15_21  and  C16_23 
ROOT
HETATM    1  N5  UNL     1      24.577   5.195  51.413  1.00  0.00    -0.363 N 
HETATM    2  H10 UNL     1      24.395   5.259  52.458  1.00  0.00     0.162 HD
ENDROOT
BRANCH   1   3
HETATM    3  C9  UNL     1      24.876   3.889  50.878  1.00  0.00     0.250 A 
HETATM    4  C1  UNL     1      24.497   2.828  51.836  1.00  0.00     0.049 A 
HETATM    5  C2  UNL     1      25.171   1.870  52.443  1.00  0.00     0.062 A 
HETATM    6  C3  UNL     1      26.580   1.871  52.087  1.00  0.00     0.090 A 
HETATM    7  N3  UNL     1      27.100   2.719  51.270  1.00  0.00    -0.177 NA
HETATM    8  N4  UNL     1      26.313   3.724  50.654  1.00  0.00    -0.284 N 
HETATM    9  H8  UNL     1      26.954   4.299  50.031  1.00  0.00     0.185 HD
BRANCH   4  10
HETATM   10  N1  UNL     1      23.120   2.950  52.083  1.00  0.00    -0.399 N 
HETATM   11  H1  UNL     1      22.883   3.909  52.452  1.00  0.00     0.156 HD
HETATM   12  H2  UNL     1      22.090   2.796  52.182  1.00  0.00     0.156 HD
ENDBRANCH   4  10
BRANCH   6  13
HETATM   13  C4  UNL     1      27.438   0.858  52.692  1.00  0.00     0.012 A 
HETATM   14  C5  UNL     1      28.621   1.257  53.277  1.00  0.00     0.017 A 
HETATM   15  C6  UNL     1      29.530   0.405  53.887  1.00  0.00     0.020 A 
HETATM   16  C7  UNL     1      29.186  -0.945  53.888  1.00  0.00     0.116 A 
HETATM   17  N2  UNL     1      28.035  -1.354  53.321  1.00  0.00    -0.272 NA
HETATM   18  C8  UNL     1      27.174  -0.489  52.736  1.00  0.00     0.130 A 
ENDBRANCH   6  13
ENDBRANCH   1   3
BRANCH   1  19
HETATM   19  C10 UNL     1      24.502   6.411  50.688  1.00  0.00     0.032 A 
HETATM   20  C11 UNL     1      23.342   7.134  50.519  1.00  0.00     0.029 A 
HETATM   21  C12 UNL     1      23.222   8.316  49.818  1.00  0.00     0.004 A 
HETATM   22  C13 UNL     1      24.363   8.824  49.233  1.00  0.00     0.029 A 
HETATM   23  C14 UNL     1      25.552   8.137  49.373  1.00  0.00     0.037 A 
HETATM   24  C20 UNL     1      25.602   6.961  50.086  1.00  0.00     0.058 A 
BRANCH  23  25
HETATM   25  N6  UNL     1      26.716   8.672  48.766  1.00  0.00    -0.322 N 
HETATM   26  C15 UNL     1      27.659   9.422  49.501  1.00  0.00     0.263 C 
HETATM   27  O1  UNL     1      27.503   9.651  50.744  1.00  0.00    -0.267 OA
HETATM   28  H14 UNL     1      26.793   8.454  47.740  1.00  0.00     0.169 HD
BRANCH  26  29
HETATM   29  C16 UNL     1      28.785   9.902  48.767  1.00  0.00     0.072 A 
HETATM   30  C17 UNL     1      28.722  10.399  47.434  1.00  0.00     0.025 A 
HETATM   31  C18 UNL     1      29.868  10.831  46.835  1.00  0.00     0.009 A 
HETATM   32  C19 UNL     1      31.104  10.748  47.627  1.00  0.00     0.050 A 
HETATM   33  S1  UNL     1      30.456  10.018  49.241  1.00  0.00    -0.097 SA
ENDBRANCH  26  29
ENDBRANCH  23  25
ENDBRANCH   1  19
TORSDOF 6
ENDMDL
MODEL 7
REMARK VINA RESULT:      -7.8      3.525      6.959
REMARK  6 active torsions:
REMARK  status: ('A' for Active; 'I' for Inactive)
REMARK    1  A    between atoms: N1_1  and  C1_2 
REMARK    2  A    between atoms: C3_4  and  C4_5 
REMARK    3  A    between atoms: C9_13  and  N5_14 
REMARK    4  A    between atoms: N5_14  and  C10_15 
REMARK    5  A    between atoms: C14_19  and  N6_20 
REMARK       I    between atoms: N6_20  and  C15_21 
REMARK    6  A    between atoms: C15_21  and  C16_23 
ROOT
HETATM    1  N5  UNL     1      23.447   4.608  50.018  1.00  0.00    -0.363 N 
HETATM    2  H10 UNL     1      23.006   5.537  49.748  1.00  0.00     0.162 HD
ENDROOT
BRANCH   1   3
HETATM    3  C9  UNL     1      24.586   4.655  50.903  1.00  0.00     0.250 A 
HETATM    4  C1  UNL     1      25.760   4.004  50.284  1.00  0.00     0.049 A 
HETATM    5  C2  UNL     1      26.522   2.985  50.634  1.00  0.00     0.062 A 
HETATM    6  C3  UNL     1      26.107   2.386  51.891  1.00  0.00     0.090 A 
HETATM    7  N3  UNL     1      25.104   2.813  52.577  1.00  0.00    -0.177 NA
HETATM    8  N4  UNL     1      24.328   3.915  52.138  1.00  0.00    -0.284 N 
HETATM    9  H8  UNL     1      23.564   4.078  52.858  1.00  0.00     0.185 HD
BRANCH   4  10
HETATM   10  N1  UNL     1      26.043   4.684  49.088  1.00  0.00    -0.399 N 
HETATM   11  H1  UNL     1      25.978   5.728  49.219  1.00  0.00     0.156 HD
HETATM   12  H2  UNL     1      26.285   4.949  48.106  1.00  0.00     0.156 HD
ENDBRANCH   4  10
BRANCH   6  13
HETATM   13  C4  UNL     1      26.869   1.248  52.391  1.00  0.00     0.012 A 
HETATM   14  C5  UNL     1      26.452  -0.023  52.061  1.00  0.00     0.017 A 
HETATM   15  C6  UNL     1      27.078  -1.193  52.465  1.00  0.00     0.020 A 
HETATM   16  C7  UNL     1      28.209  -1.029  53.261  1.00  0.00     0.116 A 
HETATM   17  N2  UNL     1      28.632   0.205  53.595  1.00  0.00    -0.272 NA
HETATM   18  C8  UNL     1      27.991   1.323  53.179  1.00  0.00     0.130 A 
ENDBRANCH   6  13
ENDBRANCH   1   3
BRANCH   1  19
HETATM   19  C10 UNL     1      22.850   3.447  49.465  1.00  0.00     0.032 A 
HETATM   20  C11 UNL     1      23.054   3.020  48.172  1.00  0.00     0.029 A 
HETATM   21  C12 UNL     1      22.490   1.903  47.593  1.00  0.00     0.004 A 
HETATM   22  C13 UNL     1      21.646   1.141  48.374  1.00  0.00     0.029 A 
HETATM   23  C14 UNL     1      21.409   1.526  49.678  1.00  0.00     0.037 A 
HETATM   24  C20 UNL     1      22.004   2.655  50.195  1.00  0.00     0.058 A 
BRANCH  23  25
HETATM   25  N6  UNL     1      20.539   0.733  50.468  1.00  0.00    -0.322 N 
HETATM   26  C15 UNL     1      19.157   1.005  50.552  1.00  0.00     0.263 C 
HETATM   27  O1  UNL     1      18.631   1.978  49.919  1.00  0.00    -0.267 OA
HETATM   28  H14 UNL     1      21.026  -0.053  50.968  1.00  0.00     0.169 HD
BRANCH  26  29
HETATM   29  C16 UNL     1      18.397   0.129  51.383  1.00  0.00     0.072 A 
HETATM   30  C17 UNL     1      18.878  -0.449  52.592  1.00  0.00     0.025 A 
HETATM   31  C18 UNL     1      18.057  -1.273  53.304  1.00  0.00     0.009 A 
HETATM   32  C19 UNL     1      16.712  -1.506  52.756  1.00  0.00     0.050 A 
HETATM   33  S1  UNL     1      16.769  -0.457  51.189  1.00  0.00    -0.097 SA
ENDBRANCH  26  29
ENDBRANCH  23  25
ENDBRANCH   1  19
TORSDOF 6
ENDMDL
MODEL 8
REMARK VINA RESULT:      -7.8      4.387      9.210
REMARK  6 active torsions:
REMARK  status: ('A' for Active; 'I' for Inactive)
REMARK    1  A    between atoms: N1_1  and  C1_2 
REMARK    2  A    between atoms: C3_4  and  C4_5 
REMARK    3  A    between atoms: C9_13  and  N5_14 
REMARK    4  A    between atoms: N5_14  and  C10_15 
REMARK    5  A    between atoms: C14_19  and  N6_20 
REMARK       I    between atoms: N6_20  and  C15_21 
REMARK    6  A    between atoms: C15_21  and  C16_23 
ROOT
HETATM    1  N5  UNL     1      25.456   4.512  50.108  1.00  0.00    -0.363 N 
HETATM    2  H10 UNL     1      24.870   5.066  50.800  1.00  0.00     0.162 HD
ENDROOT
BRANCH   1   3
HETATM    3  C9  UNL     1      25.189   3.097  50.009  1.00  0.00     0.250 A 
HETATM    4  C1  UNL     1      23.737   2.828  50.085  1.00  0.00     0.049 A 
HETATM    5  C2  UNL     1      22.989   2.113  50.904  1.00  0.00     0.062 A 
HETATM    6  C3  UNL     1      23.768   1.461  51.943  1.00  0.00     0.090 A 
HETATM    7  N3  UNL     1      25.046   1.578  52.044  1.00  0.00    -0.177 NA
HETATM    8  N4  UNL     1      25.787   2.366  51.126  1.00  0.00    -0.284 N 
HETATM    9  H8  UNL     1      26.810   2.313  51.409  1.00  0.00     0.185 HD
BRANCH   4  10
HETATM   10  N1  UNL     1      23.120   3.515  49.028  1.00  0.00    -0.399 N 
HETATM   11  H1  UNL     1      22.798   2.849  48.277  1.00  0.00     0.156 HD
HETATM   12  H2  UNL     1      22.715   4.235  48.386  1.00  0.00     0.156 HD
ENDBRANCH   4  10
BRANCH   6  13
HETATM   13  C4  UNL     1      23.057   0.639  52.916  1.00  0.00     0.012 A 
HETATM   14  C5  UNL     1      21.740   0.932  53.193  1.00  0.00     0.017 A 
HETATM   15  C6  UNL     1      20.945   0.237  54.093  1.00  0.00     0.020 A 
HETATM   16  C7  UNL     1      21.561  -0.830  54.743  1.00  0.00     0.116 A 
HETATM   17  N2  UNL     1      22.848  -1.132  54.486  1.00  0.00    -0.272 NA
HETATM   18  C8  UNL     1      23.589  -0.427  53.599  1.00  0.00     0.130 A 
ENDBRANCH   6  13
ENDBRANCH   1   3
BRANCH   1  19
HETATM   19  C10 UNL     1      26.423   5.246  49.377  1.00  0.00     0.032 A 
HETATM   20  C11 UNL     1      27.568   4.693  48.847  1.00  0.00     0.029 A 
HETATM   21  C12 UNL     1      28.536   5.370  48.136  1.00  0.00     0.004 A 
HETATM   22  C13 UNL     1      28.346   6.721  47.933  1.00  0.00     0.029 A 
HETATM   23  C14 UNL     1      27.214   7.323  48.443  1.00  0.00     0.037 A 
HETATM   24  C20 UNL     1      26.285   6.588  49.146  1.00  0.00     0.058 A 
BRANCH  23  25
HETATM   25  N6  UNL     1      27.032   8.712  48.226  1.00  0.00    -0.322 N 
HETATM   26  C15 UNL     1      27.693   9.679  49.014  1.00  0.00     0.263 C 
HETATM   27  O1  UNL     1      28.483   9.343  49.955  1.00  0.00    -0.267 OA
HETATM   28  H14 UNL     1      26.371   8.932  47.439  1.00  0.00     0.169 HD
BRANCH  26  29
HETATM   29  C16 UNL     1      27.421  11.042  48.689  1.00  0.00     0.072 A 
HETATM   30  C17 UNL     1      28.350  12.107  48.853  1.00  0.00     0.025 A 
HETATM   31  C18 UNL     1      27.975  13.372  48.506  1.00  0.00     0.009 A 
HETATM   32  C19 UNL     1      26.612  13.539  47.981  1.00  0.00     0.050 A 
HETATM   33  S1  UNL     1      25.975  11.765  48.041  1.00  0.00    -0.097 SA
ENDBRANCH  26  29
ENDBRANCH  23  25
ENDBRANCH   1  19
TORSDOF 6
ENDMDL
MODEL 9
REMARK VINA RESULT:      -7.8      4.040      8.403
REMARK  6 active torsions:
REMARK  status: ('A' for Active; 'I' for Inactive)
REMARK    1  A    between atoms: N1_1  and  C1_2 
REMARK    2  A    between atoms: C3_4  and  C4_5 
REMARK    3  A    between atoms: C9_13  and  N5_14 
REMARK    4  A    between atoms: N5_14  and  C10_15 
REMARK    5  A    between atoms: C14_19  and  N6_20 
REMARK       I    between atoms: N6_20  and  C15_21 
REMARK    6  A    between atoms: C15_21  and  C16_23 
ROOT
HETATM    1  N5  UNL     1      23.551   4.359  50.142  1.00  0.00    -0.363 N 
HETATM    2  H10 UNL     1      22.685   4.754  49.669  1.00  0.00     0.162 HD
ENDROOT
BRANCH   1   3
HETATM    3  C9  UNL     1      23.339   3.433  51.228  1.00  0.00     0.250 A 
HETATM    4  C1  UNL     1      24.035   3.889  52.451  1.00  0.00     0.049 A 
HETATM    5  C2  UNL     1      24.967   3.356  53.217  1.00  0.00     0.062 A 
HETATM    6  C3  UNL     1      25.391   2.047  52.748  1.00  0.00     0.090 A 
HETATM    7  N3  UNL     1      24.903   1.483  51.698  1.00  0.00    -0.177 NA
HETATM    8  N4  UNL     1      23.901   2.118  50.921  1.00  0.00    -0.284 N 
HETATM    9  H8  UNL     1      23.661   1.469  50.114  1.00  0.00     0.185 HD
BRANCH   4  10
HETATM   10  N1  UNL     1      23.526   5.155  52.783  1.00  0.00    -0.399 N 
HETATM   11  H1  UNL     1      22.871   5.098  53.607  1.00  0.00     0.156 HD
HETATM   12  H2  UNL     1      23.295   6.174  52.831  1.00  0.00     0.156 HD
ENDBRANCH   4  10
BRANCH   6  13
HETATM   13  C4  UNL     1      26.420   1.349  53.509  1.00  0.00     0.012 A 
HETATM   14  C5  UNL     1      27.730   1.758  53.381  1.00  0.00     0.017 A 
HETATM   15  C6  UNL     1      28.807   1.186  54.042  1.00  0.00     0.020 A 
HETATM   16  C7  UNL     1      28.501   0.123  54.888  1.00  0.00     0.116 A 
HETATM   17  N2  UNL     1      27.228  -0.292  55.027  1.00  0.00    -0.272 NA
HETATM   18  C8  UNL     1      26.204   0.294  54.363  1.00  0.00     0.130 A 
ENDBRANCH   6  13
ENDBRANCH   1   3
BRANCH   1  19
HETATM   19  C10 UNL     1      24.798   4.801  49.635  1.00  0.00     0.032 A 
HETATM   20  C11 UNL     1      25.899   3.986  49.487  1.00  0.00     0.029 A 
HETATM   21  C12 UNL     1      27.131   4.376  49.005  1.00  0.00     0.004 A 
HETATM   22  C13 UNL     1      27.280   5.696  48.636  1.00  0.00     0.029 A 
HETATM   23  C14 UNL     1      26.206   6.553  48.764  1.00  0.00     0.037 A 
HETATM   24  C20 UNL     1      25.002   6.100  49.254  1.00  0.00     0.058 A 
BRANCH  23  25
HETATM   25  N6  UNL     1      26.374   7.908  48.380  1.00  0.00    -0.322 N 
HETATM   26  C15 UNL     1      26.726   8.906  49.314  1.00  0.00     0.263 C 
HETATM   27  O1  UNL     1      26.908   8.631  50.544  1.00  0.00    -0.267 OA
HETATM   28  H14 UNL     1      26.211   8.077  47.355  1.00  0.00     0.169 HD
BRANCH  26  29
HETATM   29  C16 UNL     1      26.863  10.227  48.794  1.00  0.00     0.072 A 
HETATM   30  C17 UNL     1      28.068  10.984  48.829  1.00  0.00     0.025 A 
HETATM   31  C18 UNL     1      28.077  12.240  48.299  1.00  0.00     0.009 A 
HETATM   32  C19 UNL     1      26.815  12.726  47.721  1.00  0.00     0.050 A 
HETATM   33  S1  UNL     1      25.684  11.245  48.014  1.00  0.00    -0.097 SA
ENDBRANCH  26  29
ENDBRANCH  23  25
ENDBRANCH   1  19
TORSDOF 6
ENDMDL
