MODEL 1
REMARK VINA RESULT:      -8.8      0.000      0.000
REMARK  1 active torsions:
REMARK  status: ('A' for Active; 'I' for Inactive)
REMARK    1  A    between atoms: C2_2  and  C3_3 
ROOT
HETATM    1  C3  UNL     1      25.476   4.428  49.188  1.00  0.00     0.144 A 
HETATM    2  C4  UNL     1      24.910   5.521  48.308  1.00  0.00     0.003 A 
HETATM    3  C5  UNL     1      23.991   6.344  48.761  1.00  0.00     0.000 A 
HETATM    4  C6  UNL     1      23.465   6.248  50.121  1.00  0.00     0.026 A 
HETATM    5  C7  UNL     1      23.868   5.331  50.980  1.00  0.00     0.026 A 
HETATM    6  C8  UNL     1      23.255   5.366  52.313  1.00  0.00     0.104 C 
HETATM    7  C9  UNL     1      23.550   4.085  52.993  1.00  0.00     0.097 C 
HETATM    8  N1  UNL     1      22.765   3.235  52.524  1.00  0.00    -0.258 NA
HETATM    9  C10 UNL     1      22.656   1.873  52.851  1.00  0.00     0.234 C 
HETATM   10  N2  UNL     1      23.372   0.839  53.041  1.00  0.00    -0.226 NA
HETATM   11  C11 UNL     1      24.762   0.782  52.953  1.00  0.00     0.154 C 
HETATM   12  C12 UNL     1      25.888   1.276  52.518  1.00  0.00     0.127 C 
HETATM   13  C13 UNL     1      25.512   2.405  51.780  1.00  0.00    -0.022 C 
HETATM   14  C14 UNL     1      25.179   3.348  51.169  1.00  0.00     0.021 C 
HETATM   15  N3  UNL     1      24.809   4.426  50.448  1.00  0.00    -0.298 N 
HETATM   16  N4  UNL     1      27.357   1.084  52.557  1.00  0.00    -0.368 N 
HETATM   17  C15 UNL     1      27.280  -0.244  53.196  1.00  0.00     0.048 A 
HETATM   18  C16 UNL     1      27.246  -0.990  52.050  1.00  0.00    -0.014 A 
HETATM   19  C17 UNL     1      26.277  -1.364  52.931  1.00  0.00     0.053 A 
HETATM   20  C18 UNL     1      26.563  -0.477  53.938  1.00  0.00     0.020 A 
HETATM   21  C19 UNL     1      26.368   0.111  55.166  1.00  0.00    -0.031 A 
HETATM   22  C20 UNL     1      27.374   0.570  54.353  1.00  0.00     0.051 A 
HETATM   23  O1  UNL     1      25.325  -1.131  54.403  1.00  0.00     0.000 OA
HETATM   24  N5  UNL     1      24.235  -0.362  53.720  1.00  0.00    -0.202 NA
HETATM   25  H12 UNL     1      27.914   1.856  52.162  1.00  0.00     0.161 HD
HETATM   26  H17 UNL     1      24.188  -1.211  54.368  1.00  0.00     0.149 HD
ENDROOT
BRANCH   1  27
HETATM   27  C2  UNL     1      26.924   4.667  49.289  1.00  0.00    -0.007 C 
HETATM   28  C1  UNL     1      27.809   5.246  48.522  1.00  0.00     0.009 C 
ENDBRANCH   1  27
TORSDOF 1
ENDMDL
MODEL 2
REMARK VINA RESULT:      -8.7      2.957      5.707
REMARK  1 active torsions:
REMARK  status: ('A' for Active; 'I' for Inactive)
REMARK    1  A    between atoms: C2_2  and  C3_3 
ROOT
HETATM    1  C3  UNL     1      20.080  -0.344  53.415  1.00  0.00     0.144 A 
HETATM    2  C4  UNL     1      18.575  -0.480  53.329  1.00  0.00     0.003 A 
HETATM    3  C5  UNL     1      17.936  -0.211  52.213  1.00  0.00     0.000 A 
HETATM    4  C6  UNL     1      18.632   0.231  51.007  1.00  0.00     0.026 A 
HETATM    5  C7  UNL     1      19.940   0.400  50.957  1.00  0.00     0.026 A 
HETATM    6  C8  UNL     1      20.497   0.840  49.673  1.00  0.00     0.104 C 
HETATM    7  C9  UNL     1      21.882   1.310  49.905  1.00  0.00     0.097 C 
HETATM    8  N1  UNL     1      21.798   2.456  50.397  1.00  0.00    -0.258 NA
HETATM    9  C10 UNL     1      22.839   3.314  50.788  1.00  0.00     0.234 C 
HETATM   10  N2  UNL     1      23.933   3.314  51.436  1.00  0.00    -0.226 NA
HETATM   11  C11 UNL     1      24.510   2.211  52.064  1.00  0.00     0.154 C 
HETATM   12  C12 UNL     1      24.397   1.019  52.582  1.00  0.00     0.127 C 
HETATM   13  C13 UNL     1      23.041   0.703  52.441  1.00  0.00    -0.022 C 
HETATM   14  C14 UNL     1      21.902   0.455  52.311  1.00  0.00     0.021 C 
HETATM   15  N3  UNL     1      20.591   0.164  52.186  1.00  0.00    -0.298 N 
HETATM   16  N4  UNL     1      25.174  -0.076  53.210  1.00  0.00    -0.368 N 
HETATM   17  C15 UNL     1      26.403   0.728  53.354  1.00  0.00     0.048 A 
HETATM   18  C16 UNL     1      26.148   1.219  54.605  1.00  0.00    -0.014 A 
HETATM   19  C17 UNL     1      26.531   2.199  53.742  1.00  0.00     0.053 A 
HETATM   20  C18 UNL     1      26.716   1.425  52.623  1.00  0.00     0.020 A 
HETATM   21  C19 UNL     1      27.028   1.210  51.301  1.00  0.00    -0.031 A 
HETATM   22  C20 UNL     1      26.649   0.148  52.084  1.00  0.00     0.051 A 
HETATM   23  O1  UNL     1      26.903   2.799  52.120  1.00  0.00     0.000 OA
HETATM   24  N5  UNL     1      25.508   3.273  51.845  1.00  0.00    -0.202 NA
HETATM   25  H12 UNL     1      24.664  -0.962  53.339  1.00  0.00     0.161 HD
HETATM   26  H17 UNL     1      26.446   3.777  51.753  1.00  0.00     0.149 HD
ENDROOT
BRANCH   1  27
HETATM   27  C2  UNL     1      20.609  -1.671  53.770  1.00  0.00    -0.007 C 
HETATM   28  C1  UNL     1      21.547  -2.094  54.574  1.00  0.00     0.009 C 
ENDBRANCH   1  27
TORSDOF 1
ENDMDL
MODEL 3
REMARK VINA RESULT:      -8.6      2.930      6.680
REMARK  1 active torsions:
REMARK  status: ('A' for Active; 'I' for Inactive)
REMARK    1  A    between atoms: C2_2  and  C3_3 
ROOT
HETATM    1  C3  UNL     1      25.082   0.272  53.745  1.00  0.00     0.144 A 
HETATM    2  C4  UNL     1      25.361  -0.536  54.994  1.00  0.00     0.003 A 
HETATM    3  C5  UNL     1      24.421  -1.268  55.548  1.00  0.00     0.000 A 
HETATM    4  C6  UNL     1      23.068  -1.339  55.000  1.00  0.00     0.026 A 
HETATM    5  C7  UNL     1      22.697  -0.672  53.924  1.00  0.00     0.026 A 
HETATM    6  C8  UNL     1      21.307  -0.851  53.487  1.00  0.00     0.104 C 
HETATM    7  C9  UNL     1      20.984   0.219  52.516  1.00  0.00     0.097 C 
HETATM    8  N1  UNL     1      20.768   1.256  53.178  1.00  0.00    -0.258 NA
HETATM    9  C10 UNL     1      20.424   2.534  52.707  1.00  0.00     0.234 C 
HETATM   10  N2  UNL     1      20.752   3.386  51.822  1.00  0.00    -0.226 NA
HETATM   11  C11 UNL     1      21.766   3.233  50.879  1.00  0.00     0.154 C 
HETATM   12  C12 UNL     1      22.866   2.652  50.486  1.00  0.00     0.127 C 
HETATM   13  C13 UNL     1      23.172   1.753  51.515  1.00  0.00    -0.022 C 
HETATM   14  C14 UNL     1      23.411   1.004  52.385  1.00  0.00     0.021 C 
HETATM   15  N3  UNL     1      23.708   0.151  53.387  1.00  0.00    -0.298 N 
HETATM   16  N4  UNL     1      23.840   2.593  49.371  1.00  0.00    -0.368 N 
HETATM   17  C15 UNL     1      23.290   3.776  48.680  1.00  0.00     0.048 A 
HETATM   18  C16 UNL     1      24.084   4.715  49.279  1.00  0.00    -0.014 A 
HETATM   19  C17 UNL     1      22.771   5.073  49.295  1.00  0.00     0.053 A 
HETATM   20  C18 UNL     1      22.253   3.982  48.643  1.00  0.00     0.020 A 
HETATM   21  C19 UNL     1      21.240   3.218  48.113  1.00  0.00    -0.031 A 
HETATM   22  C20 UNL     1      22.531   2.760  48.046  1.00  0.00     0.051 A 
HETATM   23  O1  UNL     1      21.052   4.731  49.056  1.00  0.00     0.000 OA
HETATM   24  N5  UNL     1      20.821   4.287  50.468  1.00  0.00    -0.202 NA
HETATM   25  H12 UNL     1      24.526   1.827  49.423  1.00  0.00     0.161 HD
HETATM   26  H17 UNL     1      20.297   4.999  49.867  1.00  0.00     0.149 HD
ENDROOT
BRANCH   1  27
HETATM   27  C2  UNL     1      26.007  -0.213  52.708  1.00  0.00    -0.007 C 
HETATM   28  C1  UNL     1      26.792  -1.251  52.598  1.00  0.00     0.009 C 
ENDBRANCH   1  27
TORSDOF 1
ENDMDL
MODEL 4
REMARK VINA RESULT:      -8.6      2.550      6.449
REMARK  1 active torsions:
REMARK  status: ('A' for Active; 'I' for Inactive)
REMARK    1  A    between atoms: C2_2  and  C3_3 
ROOT
HETATM    1  C3  UNL     1      26.164   1.750  53.987  1.00  0.00     0.144 A 
HETATM    2  C4  UNL     1      26.394   0.609  54.954  1.00  0.00     0.003 A 
HETATM    3  C5  UNL     1      25.602  -0.439  54.961  1.00  0.00     0.000 A 
HETATM    4  C6  UNL     1      24.465  -0.559  54.050  1.00  0.00     0.026 A 
HETATM    5  C7  UNL     1      24.152   0.373  53.170  1.00  0.00     0.026 A 
HETATM    6  C8  UNL     1      22.988   0.107  52.317  1.00  0.00     0.104 C 
HETATM    7  C9  UNL     1      22.587   1.377  51.671  1.00  0.00     0.097 C 
HETATM    8  N1  UNL     1      21.959   2.037  52.526  1.00  0.00    -0.258 NA
HETATM    9  C10 UNL     1      21.377   3.308  52.390  1.00  0.00     0.234 C 
HETATM   10  N2  UNL     1      21.629   4.471  51.943  1.00  0.00    -0.226 NA
HETATM   11  C11 UNL     1      22.818   4.871  51.334  1.00  0.00     0.154 C 
HETATM   12  C12 UNL     1      24.092   4.695  51.118  1.00  0.00     0.127 C 
HETATM   13  C13 UNL     1      24.418   3.557  51.866  1.00  0.00    -0.022 C 
HETATM   14  C14 UNL     1      24.672   2.600  52.494  1.00  0.00     0.021 C 
HETATM   15  N3  UNL     1      24.982   1.512  53.228  1.00  0.00    -0.298 N 
HETATM   16  N4  UNL     1      25.251   5.236  50.370  1.00  0.00    -0.368 N 
HETATM   17  C15 UNL     1      24.548   6.463  49.947  1.00  0.00     0.048 A 
HETATM   18  C16 UNL     1      24.908   7.248  51.007  1.00  0.00    -0.014 A 
HETATM   19  C17 UNL     1      23.573   7.319  50.751  1.00  0.00     0.053 A 
HETATM   20  C18 UNL     1      23.525   6.467  49.676  1.00  0.00     0.020 A 
HETATM   21  C19 UNL     1      22.896   5.774  48.669  1.00  0.00    -0.031 A 
HETATM   22  C20 UNL     1      24.249   5.627  48.842  1.00  0.00     0.051 A 
HETATM   23  O1  UNL     1      22.104   6.769  49.933  1.00  0.00     0.000 OA
HETATM   24  N5  UNL     1      21.722   5.802  51.011  1.00  0.00    -0.202 NA
HETATM   25  H12 UNL     1      26.098   4.649  50.383  1.00  0.00     0.161 HD
HETATM   26  H17 UNL     1      21.155   6.572  50.532  1.00  0.00     0.149 HD
ENDROOT
BRANCH   1  27
HETATM   27  C2  UNL     1      27.380   1.866  53.166  1.00  0.00    -0.007 C 
HETATM   28  C1  UNL     1      28.556   2.404  53.347  1.00  0.00     0.009 C 
ENDBRANCH   1  27
TORSDOF 1
ENDMDL
MODEL 5
REMARK VINA RESULT:      -8.5      2.431      3.004
REMARK  1 active torsions:
REMARK  status: ('A' for Active; 'I' for Inactive)
REMARK    1  A    between atoms: C2_2  and  C3_3 
ROOT
HETATM    1  C3  UNL     1      22.064   2.282  48.831  1.00  0.00     0.144 A 
HETATM    2  C4  UNL     1      20.870   2.646  47.976  1.00  0.00     0.003 A 
HETATM    3  C5  UNL     1      19.724   2.980  48.525  1.00  0.00     0.000 A 
HETATM    4  C6  UNL     1      19.538   3.014  49.974  1.00  0.00     0.026 A 
HETATM    5  C7  UNL     1      20.497   2.707  50.825  1.00  0.00     0.026 A 
HETATM    6  C8  UNL     1      20.164   2.797  52.252  1.00  0.00     0.104 C 
HETATM    7  C9  UNL     1      21.213   2.088  53.019  1.00  0.00     0.097 C 
HETATM    8  N1  UNL     1      20.973   0.866  52.918  1.00  0.00    -0.258 NA
HETATM    9  C10 UNL     1      21.686  -0.211  53.472  1.00  0.00     0.234 C 
HETATM   10  N2  UNL     1      22.873  -0.642  53.621  1.00  0.00    -0.226 NA
HETATM   11  C11 UNL     1      24.032  -0.011  53.172  1.00  0.00     0.154 C 
HETATM   12  C12 UNL     1      24.621   0.840  52.378  1.00  0.00     0.127 C 
HETATM   13  C13 UNL     1      23.582   1.368  51.601  1.00  0.00    -0.022 C 
HETATM   14  C14 UNL     1      22.699   1.801  50.962  1.00  0.00     0.021 C 
HETATM   15  N3  UNL     1      21.696   2.294  50.208  1.00  0.00    -0.298 N 
HETATM   16  N4  UNL     1      25.937   1.435  52.049  1.00  0.00    -0.368 N 
HETATM   17  C15 UNL     1      26.700   0.489  52.885  1.00  0.00     0.048 A 
HETATM   18  C16 UNL     1      26.925  -0.456  51.922  1.00  0.00    -0.014 A 
HETATM   19  C17 UNL     1      26.462  -1.006  53.079  1.00  0.00     0.053 A 
HETATM   20  C18 UNL     1      26.346   0.143  53.820  1.00  0.00     0.020 A 
HETATM   21  C19 UNL     1      26.034   0.867  54.947  1.00  0.00    -0.031 A 
HETATM   22  C20 UNL     1      26.490   1.524  53.832  1.00  0.00     0.051 A 
HETATM   23  O1  UNL     1      25.759  -0.887  54.697  1.00  0.00     0.000 OA
HETATM   24  N5  UNL     1      24.343  -0.998  54.221  1.00  0.00    -0.202 NA
HETATM   25  H12 UNL     1      25.910   2.238  51.403  1.00  0.00     0.161 HD
HETATM   26  H17 UNL     1      24.866  -1.536  54.983  1.00  0.00     0.149 HD
ENDROOT
BRANCH   1  27
HETATM   27  C2  UNL     1      23.134   3.237  48.499  1.00  0.00    -0.007 C 
HETATM   28  C1  UNL     1      23.293   4.523  48.664  1.00  0.00     0.009 C 
ENDBRANCH   1  27
TORSDOF 1
ENDMDL
MODEL 6
REMARK VINA RESULT:      -8.2      2.237      4.432
REMARK  1 active torsions:
REMARK  status: ('A' for Active; 'I' for Inactive)
REMARK    1  A    between atoms: C2_2  and  C3_3 
ROOT
HETATM    1  C3  UNL     1      20.560   2.397  52.374  1.00  0.00     0.144 A 
HETATM    2  C4  UNL     1      19.360   3.197  51.916  1.00  0.00     0.003 A 
HETATM    3  C5  UNL     1      19.315   3.716  50.710  1.00  0.00     0.000 A 
HETATM    4  C6  UNL     1      20.410   3.557  49.756  1.00  0.00     0.026 A 
HETATM    5  C7  UNL     1      21.515   2.894  50.039  1.00  0.00     0.026 A 
HETATM    6  C8  UNL     1      22.523   2.811  48.975  1.00  0.00     0.104 C 
HETATM    7  C9  UNL     1      23.798   2.361  49.577  1.00  0.00     0.097 C 
HETATM    8  N1  UNL     1      24.303   3.353  50.143  1.00  0.00    -0.258 NA
HETATM    9  C10 UNL     1      25.512   3.430  50.854  1.00  0.00     0.234 C 
HETATM   10  N2  UNL     1      26.180   2.812  51.743  1.00  0.00    -0.226 NA
HETATM   11  C11 UNL     1      25.794   1.635  52.381  1.00  0.00     0.154 C 
HETATM   12  C12 UNL     1      24.861   0.797  52.740  1.00  0.00     0.127 C 
HETATM   13  C13 UNL     1      23.678   1.360  52.247  1.00  0.00    -0.022 C 
HETATM   14  C14 UNL     1      22.698   1.845  51.824  1.00  0.00     0.021 C 
HETATM   15  N3  UNL     1      21.561   2.400  51.359  1.00  0.00    -0.298 N 
HETATM   16  N4  UNL     1      24.633  -0.496  53.428  1.00  0.00    -0.368 N 
HETATM   17  C15 UNL     1      26.013  -0.595  53.941  1.00  0.00     0.048 A 
HETATM   18  C16 UNL     1      25.804   0.039  55.135  1.00  0.00    -0.014 A 
HETATM   19  C17 UNL     1      26.901   0.520  54.488  1.00  0.00     0.053 A 
HETATM   20  C18 UNL     1      26.853  -0.285  53.377  1.00  0.00     0.020 A 
HETATM   21  C19 UNL     1      27.288  -0.741  52.155  1.00  0.00    -0.031 A 
HETATM   22  C20 UNL     1      26.166  -1.295  52.717  1.00  0.00     0.051 A 
HETATM   23  O1  UNL     1      27.949   0.653  53.068  1.00  0.00     0.000 OA
HETATM   24  N5  UNL     1      27.246   1.854  52.513  1.00  0.00    -0.202 NA
HETATM   25  H12 UNL     1      23.680  -0.878  53.345  1.00  0.00     0.161 HD
HETATM   26  H17 UNL     1      28.284   1.678  52.698  1.00  0.00     0.149 HD
ENDROOT
BRANCH   1  27
HETATM   27  C2  UNL     1      20.072   1.052  52.716  1.00  0.00    -0.007 C 
HETATM   28  C1  UNL     1      19.351   0.157  52.095  1.00  0.00     0.009 C 
ENDBRANCH   1  27
TORSDOF 1
ENDMDL
MODEL 7
REMARK VINA RESULT:      -8.2      2.664      6.829
REMARK  1 active torsions:
REMARK  status: ('A' for Active; 'I' for Inactive)
REMARK    1  A    between atoms: C2_2  and  C3_3 
ROOT
HETATM    1  C3  UNL     1      21.701   1.237  51.898  1.00  0.00     0.144 A 
HETATM    2  C4  UNL     1      21.374  -0.139  52.434  1.00  0.00     0.003 A 
HETATM    3  C5  UNL     1      22.244  -0.805  53.160  1.00  0.00     0.000 A 
HETATM    4  C6  UNL     1      23.562  -0.263  53.483  1.00  0.00     0.026 A 
HETATM    5  C7  UNL     1      23.971   0.919  53.064  1.00  0.00     0.026 A 
HETATM    6  C8  UNL     1      25.317   1.333  53.477  1.00  0.00     0.104 C 
HETATM    7  C9  UNL     1      25.726   2.483  52.640  1.00  0.00     0.097 C 
HETATM    8  N1  UNL     1      26.078   2.021  51.534  1.00  0.00    -0.258 NA
HETATM    9  C10 UNL     1      26.548   2.716  50.408  1.00  0.00     0.234 C 
HETATM   10  N2  UNL     1      26.289   3.736  49.694  1.00  0.00    -0.226 NA
HETATM   11  C11 UNL     1      25.234   4.625  49.893  1.00  0.00     0.154 C 
HETATM   12  C12 UNL     1      24.064   4.895  50.404  1.00  0.00     0.127 C 
HETATM   13  C13 UNL     1      23.692   3.718  51.065  1.00  0.00    -0.022 C 
HETATM   14  C14 UNL     1      23.399   2.725  51.616  1.00  0.00     0.021 C 
HETATM   15  N3  UNL     1      23.041   1.584  52.238  1.00  0.00    -0.298 N 
HETATM   16  N4  UNL     1      23.055   5.971  50.546  1.00  0.00    -0.368 N 
HETATM   17  C15 UNL     1      23.711   6.868  49.575  1.00  0.00     0.048 A 
HETATM   18  C16 UNL     1      23.046   6.438  48.460  1.00  0.00    -0.014 A 
HETATM   19  C17 UNL     1      24.391   6.502  48.259  1.00  0.00     0.053 A 
HETATM   20  C18 UNL     1      24.763   6.954  49.501  1.00  0.00     0.020 A 
HETATM   21  C19 UNL     1      25.667   7.349  50.457  1.00  0.00    -0.031 A 
HETATM   22  C20 UNL     1      24.331   7.318  50.768  1.00  0.00     0.051 A 
HETATM   23  O1  UNL     1      26.053   6.695  48.834  1.00  0.00     0.000 OA
HETATM   24  N5  UNL     1      26.277   5.229  49.045  1.00  0.00    -0.202 NA
HETATM   25  H12 UNL     1      22.289   5.774  51.206  1.00  0.00     0.161 HD
HETATM   26  H17 UNL     1      26.858   5.954  48.516  1.00  0.00     0.149 HD
ENDROOT
BRANCH   1  27
HETATM   27  C2  UNL     1      20.696   2.160  52.448  1.00  0.00    -0.007 C 
HETATM   28  C1  UNL     1      19.646   2.765  51.957  1.00  0.00     0.009 C 
ENDBRANCH   1  27
TORSDOF 1
ENDMDL
MODEL 8
REMARK VINA RESULT:      -8.1      7.849     10.217
REMARK  1 active torsions:
REMARK  status: ('A' for Active; 'I' for Inactive)
REMARK    1  A    between atoms: C2_2  and  C3_3 
ROOT
HETATM    1  C3  UNL     1      29.738   8.119  48.750  1.00  0.00     0.144 A 
HETATM    2  C4  UNL     1      29.080   9.371  49.286  1.00  0.00     0.003 A 
HETATM    3  C5  UNL     1      29.633  10.550  49.115  1.00  0.00     0.000 A 
HETATM    4  C6  UNL     1      30.903  10.717  48.411  1.00  0.00     0.026 A 
HETATM    5  C7  UNL     1      31.581   9.703  47.909  1.00  0.00     0.026 A 
HETATM    6  C8  UNL     1      32.835  10.028  47.221  1.00  0.00     0.104 C 
HETATM    7  C9  UNL     1      33.610   8.778  47.052  1.00  0.00     0.097 C 
HETATM    8  N1  UNL     1      34.141   8.528  48.155  1.00  0.00    -0.258 NA
HETATM    9  C10 UNL     1      34.971   7.449  48.498  1.00  0.00     0.234 C 
HETATM   10  N2  UNL     1      35.055   6.185  48.377  1.00  0.00    -0.226 NA
HETATM   11  C11 UNL     1      34.137   5.365  47.725  1.00  0.00     0.154 C 
HETATM   12  C12 UNL     1      32.935   5.161  47.259  1.00  0.00     0.127 C 
HETATM   13  C13 UNL     1      32.235   6.332  47.573  1.00  0.00    -0.022 C 
HETATM   14  C14 UNL     1      31.666   7.321  47.842  1.00  0.00     0.021 C 
HETATM   15  N3  UNL     1      30.994   8.446  48.160  1.00  0.00    -0.298 N 
HETATM   16  N4  UNL     1      32.104   4.180  46.522  1.00  0.00    -0.368 N 
HETATM   17  C15 UNL     1      33.107   3.101  46.600  1.00  0.00     0.048 A 
HETATM   18  C16 UNL     1      32.672   2.540  47.770  1.00  0.00    -0.014 A 
HETATM   19  C17 UNL     1      34.018   2.741  47.771  1.00  0.00     0.053 A 
HETATM   20  C18 UNL     1      34.146   3.283  46.516  1.00  0.00     0.020 A 
HETATM   21  C19 UNL     1      34.843   3.837  45.468  1.00  0.00    -0.031 A 
HETATM   22  C20 UNL     1      33.483   3.683  45.363  1.00  0.00     0.051 A 
HETATM   23  O1  UNL     1      35.501   3.415  47.082  1.00  0.00     0.000 OA
HETATM   24  N5  UNL     1      35.435   4.685  47.875  1.00  0.00    -0.202 NA
HETATM   25  H12 UNL     1      31.180   4.523  46.220  1.00  0.00     0.161 HD
HETATM   26  H17 UNL     1      36.233   3.985  47.745  1.00  0.00     0.149 HD
ENDROOT
BRANCH   1  27
HETATM   27  C2  UNL     1      28.788   7.505  47.809  1.00  0.00    -0.007 C 
HETATM   28  C1  UNL     1      27.733   6.745  47.943  1.00  0.00     0.009 C 
ENDBRANCH   1  27
TORSDOF 1
ENDMDL
MODEL 9
REMARK VINA RESULT:      -7.9      3.761      7.079
REMARK  1 active torsions:
REMARK  status: ('A' for Active; 'I' for Inactive)
REMARK    1  A    between atoms: C2_2  and  C3_3 
ROOT
HETATM    1  C3  UNL     1      21.763   3.154  48.146  1.00  0.00     0.144 A 
HETATM    2  C4  UNL     1      20.969   1.867  48.196  1.00  0.00     0.003 A 
HETATM    3  C5  UNL     1      21.142   1.006  49.173  1.00  0.00     0.000 A 
HETATM    4  C6  UNL     1      22.101   1.236  50.251  1.00  0.00     0.026 A 
HETATM    5  C7  UNL     1      22.861   2.313  50.314  1.00  0.00     0.026 A 
HETATM    6  C8  UNL     1      23.770   2.409  51.461  1.00  0.00     0.104 C 
HETATM    7  C9  UNL     1      24.766   3.467  51.177  1.00  0.00     0.097 C 
HETATM    8  N1  UNL     1      25.609   2.973  50.399  1.00  0.00    -0.258 NA
HETATM    9  C10 UNL     1      26.745   3.583  49.844  1.00  0.00     0.234 C 
HETATM   10  N2  UNL     1      27.113   4.656  49.269  1.00  0.00    -0.226 NA
HETATM   11  C11 UNL     1      26.297   5.748  48.980  1.00  0.00     0.154 C 
HETATM   12  C12 UNL     1      25.108   6.251  48.787  1.00  0.00     0.127 C 
HETATM   13  C13 UNL     1      24.240   5.164  48.944  1.00  0.00    -0.022 C 
HETATM   14  C14 UNL     1      23.528   4.243  49.083  1.00  0.00     0.021 C 
HETATM   15  N3  UNL     1      22.698   3.190  49.221  1.00  0.00    -0.298 N 
HETATM   16  N4  UNL     1      24.392   7.517  48.504  1.00  0.00    -0.368 N 
HETATM   17  C15 UNL     1      25.621   8.278  48.210  1.00  0.00     0.048 A 
HETATM   18  C16 UNL     1      25.660   8.038  46.864  1.00  0.00    -0.014 A 
HETATM   19  C17 UNL     1      26.864   7.813  47.457  1.00  0.00     0.053 A 
HETATM   20  C18 UNL     1      26.521   8.134  48.746  1.00  0.00     0.020 A 
HETATM   21  C19 UNL     1      26.760   8.293  50.091  1.00  0.00    -0.031 A 
HETATM   22  C20 UNL     1      25.505   8.545  49.598  1.00  0.00     0.051 A 
HETATM   23  O1  UNL     1      27.897   7.620  48.879  1.00  0.00     0.000 OA
HETATM   24  N5  UNL     1      27.719   6.134  48.957  1.00  0.00    -0.202 NA
HETATM   25  H12 UNL     1      23.366   7.472  48.589  1.00  0.00     0.161 HD
HETATM   26  H17 UNL     1      28.606   6.731  48.956  1.00  0.00     0.149 HD
ENDROOT
BRANCH   1  27
HETATM   27  C2  UNL     1      20.789   4.258  48.176  1.00  0.00    -0.007 C 
HETATM   28  C1  UNL     1      19.871   4.642  49.022  1.00  0.00     0.009 C 
ENDBRANCH   1  27
TORSDOF 1
ENDMDL
