MODEL 1
REMARK VINA RESULT:      -6.8      0.000      0.000
REMARK  6 active torsions:
REMARK  status: ('A' for Active; 'I' for Inactive)
REMARK    1  A    between atoms: O1_2  and  C2_3 
REMARK    2  A    between atoms: C2_3  and  C3_5 
REMARK    3  A    between atoms: N1_10  and  C8_11 
REMARK    4  A    between atoms: C8_11  and  C9_12 
REMARK    5  A    between atoms: C9_12  and  O3_13 
REMARK    6  A    between atoms: O3_13  and  C10_14 
ROOT
HETATM    1  C8  UNL     1      26.421  -0.363  54.311  1.00  0.00     0.300 C 
ENDROOT
BRANCH   1   2
HETATM    2  N1  UNL     1      27.022  -0.426  53.030  1.00  0.00     0.104 N 
HETATM    3  C3  UNL     1      28.194   0.382  52.891  1.00  0.00     0.321 C 
HETATM    4  C4  UNL     1      29.252  -0.174  53.828  1.00  0.00     0.046 C 
HETATM    5  C5  UNL     1      29.569  -1.592  53.416  1.00  0.00     0.004 C 
HETATM    6  C6  UNL     1      28.367  -2.464  53.280  1.00  0.00     0.030 C 
HETATM    7  C7  UNL     1      27.297  -1.727  52.506  1.00  0.00     0.273 C 
BRANCH   3   8
HETATM    8  C2  UNL     1      28.002   1.817  53.118  1.00  0.00     0.292 C 
HETATM    9  O2  UNL     1      28.031   2.602  54.127  1.00  0.00    -0.263 OA
BRANCH   8  10
HETATM   10  O1  UNL     1      27.710   2.616  52.024  1.00  0.00    -0.325 OA
HETATM   11  C1  UNL     1      26.369   2.561  51.516  1.00  0.00     0.213 C 
ENDBRANCH   8  10
ENDBRANCH   3   8
ENDBRANCH   1   2
BRANCH   1  12
HETATM   12  C9  UNL     1      24.958  -0.580  54.382  1.00  0.00     0.206 C 
BRANCH  12  13
HETATM   13  O3  UNL     1      24.260   0.266  53.469  1.00  0.00    -0.349 OA
BRANCH  13  14
HETATM   14  C10 UNL     1      22.907   0.349  53.381  1.00  0.00     0.069 C 
HETATM   15  C11 UNL     1      21.779  -0.007  54.043  1.00  0.00     0.014 C 
HETATM   16  C12 UNL     1      20.509  -0.248  53.253  1.00  0.00     0.058 C 
HETATM   17  P1  UNL     1      20.172   1.065  52.051  1.00  0.00    -0.129 P 
HETATM   18  C13 UNL     1      21.602   2.139  52.522  1.00  0.00     0.036 C 
HETATM   19  C16 UNL     1      21.094   0.698  50.435  1.00  0.00     0.033 C 
HETATM   20  H20 UNL     1      19.186   1.723  52.024  1.00  0.00     0.054 HD
HETATM   21  C14 UNL     1      22.541   1.053  52.165  1.00  0.00    -0.031 C 
HETATM   22  C15 UNL     1      22.490   1.347  50.713  1.00  0.00     0.042 C 
ENDBRANCH  13  14
ENDBRANCH  12  13
ENDBRANCH   1  12
TORSDOF 6
ENDMDL
MODEL 2
REMARK VINA RESULT:      -6.7      1.673      3.000
REMARK  6 active torsions:
REMARK  status: ('A' for Active; 'I' for Inactive)
REMARK    1  A    between atoms: O1_2  and  C2_3 
REMARK    2  A    between atoms: C2_3  and  C3_5 
REMARK    3  A    between atoms: N1_10  and  C8_11 
REMARK    4  A    between atoms: C8_11  and  C9_12 
REMARK    5  A    between atoms: C9_12  and  O3_13 
REMARK    6  A    between atoms: O3_13  and  C10_14 
ROOT
HETATM    1  C8  UNL     1      24.834  -0.221  53.231  1.00  0.00     0.300 C 
ENDROOT
BRANCH   1   2
HETATM    2  N1  UNL     1      25.426   1.001  53.637  1.00  0.00     0.104 N 
HETATM    3  C3  UNL     1      26.825   1.096  53.357  1.00  0.00     0.321 C 
HETATM    4  C4  UNL     1      26.996   1.081  51.848  1.00  0.00     0.046 C 
HETATM    5  C5  UNL     1      26.286   2.280  51.266  1.00  0.00     0.004 C 
HETATM    6  C6  UNL     1      24.869   2.415  51.710  1.00  0.00     0.030 C 
HETATM    7  C7  UNL     1      24.788   2.205  53.205  1.00  0.00     0.273 C 
BRANCH   3   8
HETATM    8  C2  UNL     1      27.666   0.074  53.985  1.00  0.00     0.292 C 
HETATM    9  O2  UNL     1      27.927  -0.298  55.180  1.00  0.00    -0.263 OA
BRANCH   8  10
HETATM   10  O1  UNL     1      28.410  -0.754  53.160  1.00  0.00    -0.325 OA
HETATM   11  C1  UNL     1      29.779  -0.980  53.524  1.00  0.00     0.213 C 
ENDBRANCH   8  10
ENDBRANCH   3   8
ENDBRANCH   1   2
BRANCH   1  12
HETATM   12  C9  UNL     1      23.600  -0.640  53.935  1.00  0.00     0.206 C 
BRANCH  12  13
HETATM   13  O3  UNL     1      22.591  -1.055  53.016  1.00  0.00    -0.349 OA
BRANCH  13  14
HETATM   14  C10 UNL     1      21.394  -0.431  52.858  1.00  0.00     0.069 C 
HETATM   15  C11 UNL     1      20.136  -0.411  53.361  1.00  0.00     0.014 C 
HETATM   16  C12 UNL     1      18.990  -0.002  52.458  1.00  0.00     0.058 C 
HETATM   17  P1  UNL     1      19.341   1.507  51.521  1.00  0.00    -0.129 P 
HETATM   18  C13 UNL     1      20.991   1.841  52.288  1.00  0.00     0.036 C 
HETATM   19  C16 UNL     1      20.270   1.064  49.928  1.00  0.00     0.033 C 
HETATM   20  H20 UNL     1      18.689   2.497  51.561  1.00  0.00     0.054 HD
HETATM   21  C14 UNL     1      21.491   0.542  51.785  1.00  0.00    -0.031 C 
HETATM   22  C15 UNL     1      21.755   1.056  50.419  1.00  0.00     0.042 C 
ENDBRANCH  13  14
ENDBRANCH  12  13
ENDBRANCH   1  12
TORSDOF 6
ENDMDL
MODEL 3
REMARK VINA RESULT:      -6.7      3.099      5.111
REMARK  6 active torsions:
REMARK  status: ('A' for Active; 'I' for Inactive)
REMARK    1  A    between atoms: O1_2  and  C2_3 
REMARK    2  A    between atoms: C2_3  and  C3_5 
REMARK    3  A    between atoms: N1_10  and  C8_11 
REMARK    4  A    between atoms: C8_11  and  C9_12 
REMARK    5  A    between atoms: C9_12  and  O3_13 
REMARK    6  A    between atoms: O3_13  and  C10_14 
ROOT
HETATM    1  C8  UNL     1      26.741   1.769  52.460  1.00  0.00     0.300 C 
ENDROOT
BRANCH   1   2
HETATM    2  N1  UNL     1      27.037   0.394  52.632  1.00  0.00     0.104 N 
HETATM    3  C3  UNL     1      27.591   0.068  53.910  1.00  0.00     0.321 C 
HETATM    4  C4  UNL     1      26.531   0.357  54.959  1.00  0.00     0.046 C 
HETATM    5  C5  UNL     1      25.332  -0.523  54.694  1.00  0.00     0.004 C 
HETATM    6  C6  UNL     1      24.828  -0.448  53.293  1.00  0.00     0.030 C 
HETATM    7  C7  UNL     1      25.993  -0.536  52.334  1.00  0.00     0.273 C 
BRANCH   3   8
HETATM    8  C2  UNL     1      28.848   0.742  54.243  1.00  0.00     0.292 C 
HETATM    9  O2  UNL     1      29.192   1.770  54.922  1.00  0.00    -0.263 OA
BRANCH   8  10
HETATM   10  O1  UNL     1      30.025   0.208  53.742  1.00  0.00    -0.325 OA
HETATM   11  C1  UNL     1      30.118  -1.223  53.680  1.00  0.00     0.213 C 
ENDBRANCH   8  10
ENDBRANCH   3   8
ENDBRANCH   1   2
BRANCH   1  12
HETATM   12  C9  UNL     1      26.228   2.188  51.135  1.00  0.00     0.206 C 
BRANCH  12  13
HETATM   13  O3  UNL     1      27.068   3.176  50.539  1.00  0.00    -0.349 OA
BRANCH  13  14
HETATM   14  C10 UNL     1      26.618   4.209  49.780  1.00  0.00     0.069 C 
HETATM   15  C11 UNL     1      26.997   5.016  48.759  1.00  0.00     0.014 C 
HETATM   16  C12 UNL     1      26.417   6.412  48.674  1.00  0.00     0.058 C 
HETATM   17  P1  UNL     1      24.619   6.439  48.893  1.00  0.00    -0.129 P 
HETATM   18  C13 UNL     1      24.405   4.606  49.012  1.00  0.00     0.036 C 
HETATM   19  C16 UNL     1      24.206   6.519  50.742  1.00  0.00     0.033 C 
HETATM   20  H20 UNL     1      23.846   6.868  48.102  1.00  0.00     0.054 HD
HETATM   21  C14 UNL     1      25.280   4.577  50.205  1.00  0.00    -0.031 C 
HETATM   22  C15 UNL     1      24.204   5.004  51.131  1.00  0.00     0.042 C 
ENDBRANCH  13  14
ENDBRANCH  12  13
ENDBRANCH   1  12
TORSDOF 6
ENDMDL
MODEL 4
REMARK VINA RESULT:      -6.6      1.820      3.453
REMARK  6 active torsions:
REMARK  status: ('A' for Active; 'I' for Inactive)
REMARK    1  A    between atoms: O1_2  and  C2_3 
REMARK    2  A    between atoms: C2_3  and  C3_5 
REMARK    3  A    between atoms: N1_10  and  C8_11 
REMARK    4  A    between atoms: C8_11  and  C9_12 
REMARK    5  A    between atoms: C9_12  and  O3_13 
REMARK    6  A    between atoms: O3_13  and  C10_14 
ROOT
HETATM    1  C8  UNL     1      26.549   1.908  52.636  1.00  0.00     0.300 C 
ENDROOT
BRANCH   1   2
HETATM    2  N1  UNL     1      26.896   0.535  52.693  1.00  0.00     0.104 N 
HETATM    3  C3  UNL     1      27.543   0.144  53.906  1.00  0.00     0.321 C 
HETATM    4  C4  UNL     1      26.549   0.325  55.040  1.00  0.00     0.046 C 
HETATM    5  C5  UNL     1      25.361  -0.575  54.793  1.00  0.00     0.004 C 
HETATM    6  C6  UNL     1      24.762  -0.423  53.436  1.00  0.00     0.030 C 
HETATM    7  C7  UNL     1      25.862  -0.407  52.399  1.00  0.00     0.273 C 
BRANCH   3   8
HETATM    8  C2  UNL     1      28.800   0.836  54.203  1.00  0.00     0.292 C 
HETATM    9  O2  UNL     1      29.141   1.907  54.813  1.00  0.00    -0.263 OA
BRANCH   8  10
HETATM   10  O1  UNL     1      29.979   0.266  53.750  1.00  0.00    -0.325 OA
HETATM   11  C1  UNL     1      29.996  -1.160  53.589  1.00  0.00     0.213 C 
ENDBRANCH   8  10
ENDBRANCH   3   8
ENDBRANCH   1   2
BRANCH   1  12
HETATM   12  C9  UNL     1      26.697   2.588  51.329  1.00  0.00     0.206 C 
BRANCH  12  13
HETATM   13  O3  UNL     1      25.458   2.639  50.623  1.00  0.00    -0.349 OA
BRANCH  13  14
HETATM   14  C10 UNL     1      24.359   3.314  51.050  1.00  0.00     0.069 C 
HETATM   15  C11 UNL     1      23.978   4.525  51.525  1.00  0.00     0.014 C 
HETATM   16  C12 UNL     1      22.779   4.608  52.446  1.00  0.00     0.058 C 
HETATM   17  P1  UNL     1      21.355   3.674  51.829  1.00  0.00    -0.129 P 
HETATM   18  C13 UNL     1      22.133   3.154  50.234  1.00  0.00     0.036 C 
HETATM   19  C16 UNL     1      21.494   1.866  52.384  1.00  0.00     0.033 C 
HETATM   20  H20 UNL     1      20.286   4.135  51.606  1.00  0.00     0.054 HD
HETATM   21  C14 UNL     1      23.198   2.446  50.979  1.00  0.00    -0.031 C 
HETATM   22  C15 UNL     1      22.362   1.249  51.238  1.00  0.00     0.042 C 
ENDBRANCH  13  14
ENDBRANCH  12  13
ENDBRANCH   1  12
TORSDOF 6
ENDMDL
MODEL 5
REMARK VINA RESULT:      -6.5      3.025      6.708
REMARK  6 active torsions:
REMARK  status: ('A' for Active; 'I' for Inactive)
REMARK    1  A    between atoms: O1_2  and  C2_3 
REMARK    2  A    between atoms: C2_3  and  C3_5 
REMARK    3  A    between atoms: N1_10  and  C8_11 
REMARK    4  A    between atoms: C8_11  and  C9_12 
REMARK    5  A    between atoms: C9_12  and  O3_13 
REMARK    6  A    between atoms: O3_13  and  C10_14 
ROOT
HETATM    1  C8  UNL     1      22.576   0.672  52.092  1.00  0.00     0.300 C 
ENDROOT
BRANCH   1   2
HETATM    2  N1  UNL     1      22.025   0.823  53.388  1.00  0.00     0.104 N 
HETATM    3  C3  UNL     1      20.607   1.008  53.404  1.00  0.00     0.321 C 
HETATM    4  C4  UNL     1      19.969  -0.264  52.872  1.00  0.00     0.046 C 
HETATM    5  C5  UNL     1      20.336  -1.410  53.786  1.00  0.00     0.004 C 
HETATM    6  C6  UNL     1      21.800  -1.532  54.042  1.00  0.00     0.030 C 
HETATM    7  C7  UNL     1      22.370  -0.168  54.359  1.00  0.00     0.273 C 
BRANCH   3   8
HETATM    8  C2  UNL     1      20.114   2.180  52.675  1.00  0.00     0.292 C 
HETATM    9  O2  UNL     1      20.349   3.436  52.685  1.00  0.00    -0.263 OA
BRANCH   8  10
HETATM   10  O1  UNL     1      19.143   1.983  51.706  1.00  0.00    -0.325 OA
HETATM   11  C1  UNL     1      18.237   3.068  51.460  1.00  0.00     0.213 C 
ENDBRANCH   8  10
ENDBRANCH   3   8
ENDBRANCH   1   2
BRANCH   1  12
HETATM   12  C9  UNL     1      23.570   1.682  51.659  1.00  0.00     0.206 C 
BRANCH  12  13
HETATM   13  O3  UNL     1      24.875   1.116  51.549  1.00  0.00    -0.349 OA
BRANCH  13  14
HETATM   14  C10 UNL     1      25.852   1.254  52.483  1.00  0.00     0.069 C 
HETATM   15  C11 UNL     1      26.544   2.203  53.159  1.00  0.00     0.014 C 
HETATM   16  C12 UNL     1      27.951   1.892  53.626  1.00  0.00     0.058 C 
HETATM   17  P1  UNL     1      28.078   0.284  54.448  1.00  0.00    -0.129 P 
HETATM   18  C13 UNL     1      26.275  -0.122  54.374  1.00  0.00     0.036 C 
HETATM   19  C16 UNL     1      28.347  -1.073  53.151  1.00  0.00     0.033 C 
HETATM   20  H20 UNL     1      28.467   0.117  55.557  1.00  0.00     0.054 HD
HETATM   21  C14 UNL     1      26.318  -0.058  52.896  1.00  0.00    -0.031 C 
HETATM   22  C15 UNL     1      26.876  -1.424  52.751  1.00  0.00     0.042 C 
ENDBRANCH  13  14
ENDBRANCH  12  13
ENDBRANCH   1  12
TORSDOF 6
ENDMDL
MODEL 6
REMARK VINA RESULT:      -6.5      1.565      2.248
REMARK  6 active torsions:
REMARK  status: ('A' for Active; 'I' for Inactive)
REMARK    1  A    between atoms: O1_2  and  C2_3 
REMARK    2  A    between atoms: C2_3  and  C3_5 
REMARK    3  A    between atoms: N1_10  and  C8_11 
REMARK    4  A    between atoms: C8_11  and  C9_12 
REMARK    5  A    between atoms: C9_12  and  O3_13 
REMARK    6  A    between atoms: O3_13  and  C10_14 
ROOT
HETATM    1  C8  UNL     1      25.756  -0.312  53.711  1.00  0.00     0.300 C 
ENDROOT
BRANCH   1   2
HETATM    2  N1  UNL     1      26.578  -0.357  52.558  1.00  0.00     0.104 N 
HETATM    3  C3  UNL     1      27.823   0.332  52.699  1.00  0.00     0.321 C 
HETATM    4  C4  UNL     1      28.632  -0.388  53.764  1.00  0.00     0.046 C 
HETATM    5  C5  UNL     1      28.891  -1.803  53.302  1.00  0.00     0.004 C 
HETATM    6  C6  UNL     1      27.662  -2.535  52.882  1.00  0.00     0.030 C 
HETATM    7  C7  UNL     1      26.828  -1.645  51.990  1.00  0.00     0.273 C 
BRANCH   3   8
HETATM    8  C2  UNL     1      27.723   1.762  53.002  1.00  0.00     0.292 C 
HETATM    9  O2  UNL     1      27.637   2.476  54.060  1.00  0.00    -0.263 OA
BRANCH   8  10
HETATM   10  O1  UNL     1      27.708   2.653  51.941  1.00  0.00    -0.325 OA
HETATM   11  C1  UNL     1      26.564   2.619  51.075  1.00  0.00     0.213 C 
ENDBRANCH   8  10
ENDBRANCH   3   8
ENDBRANCH   1   2
BRANCH   1  12
HETATM   12  C9  UNL     1      24.291  -0.273  53.494  1.00  0.00     0.206 C 
BRANCH  12  13
HETATM   13  O3  UNL     1      23.812   1.069  53.408  1.00  0.00    -0.349 OA
BRANCH  13  14
HETATM   14  C10 UNL     1      23.279   1.623  52.288  1.00  0.00     0.069 C 
HETATM   15  C11 UNL     1      22.845   1.293  51.047  1.00  0.00     0.014 C 
HETATM   16  C12 UNL     1      22.921   2.329  49.944  1.00  0.00     0.058 C 
HETATM   17  P1  UNL     1      22.276   3.943  50.452  1.00  0.00    -0.129 P 
HETATM   18  C13 UNL     1      21.728   3.418  52.139  1.00  0.00     0.036 C 
HETATM   19  C16 UNL     1      23.648   4.936  51.304  1.00  0.00     0.033 C 
HETATM   20  H20 UNL     1      21.386   4.516  49.917  1.00  0.00     0.054 HD
HETATM   21  C14 UNL     1      23.120   3.053  52.481  1.00  0.00    -0.031 C 
HETATM   22  C15 UNL     1      23.520   4.449  52.784  1.00  0.00     0.042 C 
ENDBRANCH  13  14
ENDBRANCH  12  13
ENDBRANCH   1  12
TORSDOF 6
ENDMDL
MODEL 7
REMARK VINA RESULT:      -6.4      2.178      3.843
REMARK  6 active torsions:
REMARK  status: ('A' for Active; 'I' for Inactive)
REMARK    1  A    between atoms: O1_2  and  C2_3 
REMARK    2  A    between atoms: C2_3  and  C3_5 
REMARK    3  A    between atoms: N1_10  and  C8_11 
REMARK    4  A    between atoms: C8_11  and  C9_12 
REMARK    5  A    between atoms: C9_12  and  O3_13 
REMARK    6  A    between atoms: O3_13  and  C10_14 
ROOT
HETATM    1  C8  UNL     1      23.774   0.320  52.894  1.00  0.00     0.300 C 
ENDROOT
BRANCH   1   2
HETATM    2  N1  UNL     1      24.603   1.368  53.365  1.00  0.00     0.104 N 
HETATM    3  C3  UNL     1      25.987   1.024  53.460  1.00  0.00     0.321 C 
HETATM    4  C4  UNL     1      26.493   0.750  52.054  1.00  0.00     0.046 C 
HETATM    5  C5  UNL     1      26.345   2.008  51.231  1.00  0.00     0.004 C 
HETATM    6  C6  UNL     1      24.977   2.599  51.274  1.00  0.00     0.030 C 
HETATM    7  C7  UNL     1      24.488   2.631  52.705  1.00  0.00     0.273 C 
BRANCH   3   8
HETATM    8  C2  UNL     1      26.299  -0.096  54.351  1.00  0.00     0.292 C 
HETATM    9  O2  UNL     1      25.669  -0.776  55.232  1.00  0.00    -0.263 OA
BRANCH   8  10
HETATM   10  O1  UNL     1      27.578  -0.628  54.306  1.00  0.00    -0.325 OA
HETATM   11  C1  UNL     1      28.634   0.162  54.872  1.00  0.00     0.213 C 
ENDBRANCH   8  10
ENDBRANCH   3   8
ENDBRANCH   1   2
BRANCH   1  12
HETATM   12  C9  UNL     1      22.387   0.273  53.409  1.00  0.00     0.206 C 
BRANCH  12  13
HETATM   13  O3  UNL     1      21.445   0.077  52.355  1.00  0.00    -0.349 OA
BRANCH  13  14
HETATM   14  C10 UNL     1      21.364   0.855  51.244  1.00  0.00     0.069 C 
HETATM   15  C11 UNL     1      21.599   0.824  49.910  1.00  0.00     0.014 C 
HETATM   16  C12 UNL     1      21.950   2.113  49.196  1.00  0.00     0.058 C 
HETATM   17  P1  UNL     1      20.842   3.478  49.630  1.00  0.00    -0.129 P 
HETATM   18  C13 UNL     1      19.720   2.488  50.716  1.00  0.00     0.036 C 
HETATM   19  C16 UNL     1      21.469   4.330  51.204  1.00  0.00     0.033 C 
HETATM   20  H20 UNL     1      20.186   4.093  48.855  1.00  0.00     0.054 HD
HETATM   21  C14 UNL     1      20.858   2.167  51.606  1.00  0.00    -0.031 C 
HETATM   22  C15 UNL     1      20.798   3.464  52.321  1.00  0.00     0.042 C 
ENDBRANCH  13  14
ENDBRANCH  12  13
ENDBRANCH   1  12
TORSDOF 6
ENDMDL
MODEL 8
REMARK VINA RESULT:      -6.3      3.113      6.533
REMARK  6 active torsions:
REMARK  status: ('A' for Active; 'I' for Inactive)
REMARK    1  A    between atoms: O1_2  and  C2_3 
REMARK    2  A    between atoms: C2_3  and  C3_5 
REMARK    3  A    between atoms: N1_10  and  C8_11 
REMARK    4  A    between atoms: C8_11  and  C9_12 
REMARK    5  A    between atoms: C9_12  and  O3_13 
REMARK    6  A    between atoms: O3_13  and  C10_14 
ROOT
HETATM    1  C8  UNL     1      23.871   2.116  51.208  1.00  0.00     0.300 C 
ENDROOT
BRANCH   1   2
HETATM    2  N1  UNL     1      23.151   2.098  52.428  1.00  0.00     0.104 N 
HETATM    3  C3  UNL     1      21.806   2.572  52.323  1.00  0.00     0.321 C 
HETATM    4  C4  UNL     1      21.046   1.610  51.426  1.00  0.00     0.046 C 
HETATM    5  C5  UNL     1      21.047   0.243  52.069  1.00  0.00     0.004 C 
HETATM    6  C6  UNL     1      22.404  -0.240  52.458  1.00  0.00     0.030 C 
HETATM    7  C7  UNL     1      23.150   0.871  53.161  1.00  0.00     0.273 C 
BRANCH   3   8
HETATM    8  C2  UNL     1      21.658   3.950  51.849  1.00  0.00     0.292 C 
HETATM    9  O2  UNL     1      22.049   5.105  52.235  1.00  0.00    -0.263 OA
BRANCH   8  10
HETATM   10  O1  UNL     1      20.922   4.166  50.694  1.00  0.00    -0.325 OA
HETATM   11  C1  UNL     1      20.676   5.530  50.323  1.00  0.00     0.213 C 
ENDBRANCH   8  10
ENDBRANCH   3   8
ENDBRANCH   1   2
BRANCH   1  12
HETATM   12  C9  UNL     1      25.173   2.823  51.203  1.00  0.00     0.206 C 
BRANCH  12  13
HETATM   13  O3  UNL     1      26.265   1.906  51.261  1.00  0.00    -0.349 OA
BRANCH  13  14
HETATM   14  C10 UNL     1      27.061   1.728  52.347  1.00  0.00     0.069 C 
HETATM   15  C11 UNL     1      27.898   2.407  53.168  1.00  0.00     0.014 C 
HETATM   16  C12 UNL     1      29.027   1.659  53.846  1.00  0.00     0.058 C 
HETATM   17  P1  UNL     1      28.483   0.109  54.608  1.00  0.00    -0.129 P 
HETATM   18  C13 UNL     1      26.687   0.315  54.221  1.00  0.00     0.036 C 
HETATM   19  C16 UNL     1      28.512  -1.278  53.315  1.00  0.00     0.033 C 
HETATM   20  H20 UNL     1      28.603  -0.161  55.757  1.00  0.00     0.054 HD
HETATM   21  C14 UNL     1      26.998   0.342  52.774  1.00  0.00    -0.031 C 
HETATM   22  C15 UNL     1      27.097  -1.133  52.664  1.00  0.00     0.042 C 
ENDBRANCH  13  14
ENDBRANCH  12  13
ENDBRANCH   1  12
TORSDOF 6
ENDMDL
MODEL 9
REMARK VINA RESULT:      -6.1      2.429      4.450
REMARK  6 active torsions:
REMARK  status: ('A' for Active; 'I' for Inactive)
REMARK    1  A    between atoms: O1_2  and  C2_3 
REMARK    2  A    between atoms: C2_3  and  C3_5 
REMARK    3  A    between atoms: N1_10  and  C8_11 
REMARK    4  A    between atoms: C8_11  and  C9_12 
REMARK    5  A    between atoms: C9_12  and  O3_13 
REMARK    6  A    between atoms: O3_13  and  C10_14 
ROOT
HETATM    1  C8  UNL     1      24.072   1.183  53.227  1.00  0.00     0.300 C 
ENDROOT
BRANCH   1   2
HETATM    2  N1  UNL     1      24.062  -0.216  53.006  1.00  0.00     0.104 N 
HETATM    3  C3  UNL     1      25.035  -0.937  53.766  1.00  0.00     0.321 C 
HETATM    4  C4  UNL     1      24.678  -0.788  55.235  1.00  0.00     0.046 C 
HETATM    5  C5  UNL     1      23.313  -1.392  55.467  1.00  0.00     0.004 C 
HETATM    6  C6  UNL     1      22.263  -0.885  54.537  1.00  0.00     0.030 C 
HETATM    7  C7  UNL     1      22.802  -0.882  53.125  1.00  0.00     0.273 C 
BRANCH   3   8
HETATM    8  C2  UNL     1      26.430  -0.556  53.530  1.00  0.00     0.292 C 
HETATM    9  O2  UNL     1      27.165  -0.341  52.506  1.00  0.00    -0.263 OA
BRANCH   8  10
HETATM   10  O1  UNL     1      27.245  -0.352  54.632  1.00  0.00    -0.325 OA
HETATM   11  C1  UNL     1      28.649  -0.185  54.383  1.00  0.00     0.213 C 
ENDBRANCH   8  10
ENDBRANCH   3   8
ENDBRANCH   1   2
BRANCH   1  12
HETATM   12  C9  UNL     1      23.272   2.019  52.303  1.00  0.00     0.206 C 
BRANCH  12  13
HETATM   13  O3  UNL     1      23.766   1.939  50.966  1.00  0.00    -0.349 OA
BRANCH  13  14
HETATM   14  C10 UNL     1      23.279   2.661  49.924  1.00  0.00     0.069 C 
HETATM   15  C11 UNL     1      23.465   3.834  49.270  1.00  0.00     0.014 C 
HETATM   16  C12 UNL     1      22.286   4.480  48.572  1.00  0.00     0.058 C 
HETATM   17  P1  UNL     1      21.345   3.311  47.559  1.00  0.00    -0.129 P 
HETATM   18  C13 UNL     1      22.455   1.859  47.844  1.00  0.00     0.036 C 
HETATM   19  C16 UNL     1      20.059   2.427  48.636  1.00  0.00     0.033 C 
HETATM   20  H20 UNL     1      21.151   3.426  46.394  1.00  0.00     0.054 HD
HETATM   21  C14 UNL     1      22.188   1.937  49.298  1.00  0.00    -0.031 C 
HETATM   22  C15 UNL     1      20.889   1.228  49.201  1.00  0.00     0.042 C 
ENDBRANCH  13  14
ENDBRANCH  12  13
ENDBRANCH   1  12
TORSDOF 6
ENDMDL
