MODEL 1
REMARK VINA RESULT:      -8.3      0.000      0.000
REMARK  2 active torsions:
REMARK  status: ('A' for Active; 'I' for Inactive)
REMARK    1  A    between atoms: C1_2  and  N2_3 
REMARK    2  A    between atoms: C10_15  and  C11_16 
ROOT
HETATM    1  N2  UNL     1      23.575  -0.765  53.591  1.00  0.00    -0.217 NA
HETATM    2  C2  UNL     1      24.667  -0.388  53.008  1.00  0.00     0.183 C 
HETATM    3  O1  UNL     1      25.706  -1.248  52.542  1.00  0.00    -0.289 OA
HETATM    4  C3  UNL     1      27.049  -1.126  52.991  1.00  0.00     0.104 A 
HETATM    5  C4  UNL     1      27.788  -2.288  52.845  1.00  0.00     0.043 A 
HETATM    6  C5  UNL     1      29.107  -2.351  53.227  1.00  0.00     0.045 A 
HETATM    7  C6  UNL     1      29.710  -1.226  53.771  1.00  0.00     0.118 A 
HETATM    8  F1  UNL     1      31.011  -1.282  54.151  1.00  0.00    -0.206 F 
HETATM    9  C7  UNL     1      29.025  -0.051  53.939  1.00  0.00     0.074 A 
HETATM   10  C8  UNL     1      27.706  -0.012  53.548  1.00  0.00     0.069 A 
HETATM   11  N3  UNL     1      27.165   1.304  53.808  1.00  0.00    -0.363 N 
HETATM   12  C9  UNL     1      25.937   1.755  53.175  1.00  0.00     0.105 C 
HETATM   13  C10 UNL     1      24.841   1.054  52.815  1.00  0.00     0.043 C 
HETATM   14  H6  UNL     1      27.645   1.957  54.451  1.00  0.00     0.165 HD
ENDROOT
BRANCH  13  15
HETATM   15  C11 UNL     1      23.745   1.796  52.219  1.00  0.00    -0.019 A 
HETATM   16  C12 UNL     1      23.297   3.010  52.670  1.00  0.00     0.012 A 
HETATM   17  C13 UNL     1      22.313   3.777  52.086  1.00  0.00     0.002 A 
HETATM   18  C14 UNL     1      21.694   3.322  50.941  1.00  0.00     0.019 A 
HETATM   19  C15 UNL     1      22.089   2.110  50.426  1.00  0.00     0.011 A 
HETATM   20 BR1  UNL     1      21.242   1.470  48.846  1.00  0.00    -0.051 Br
HETATM   21  C16 UNL     1      23.080   1.414  51.076  1.00  0.00     0.031 A 
ENDBRANCH  13  15
BRANCH   1  22
HETATM   22  C1  UNL     1      22.571   0.107  54.047  1.00  0.00     0.226 C 
HETATM   23  N1  UNL     1      22.403  -0.911  54.848  1.00  0.00    -0.293 NA
HETATM   24  H1  UNL     1      21.640  -0.835  55.560  1.00  0.00     0.187 HD
ENDBRANCH   1  22
TORSDOF 2
ENDMDL
MODEL 2
REMARK VINA RESULT:      -8.2      2.122      3.241
REMARK  2 active torsions:
REMARK  status: ('A' for Active; 'I' for Inactive)
REMARK    1  A    between atoms: C1_2  and  N2_3 
REMARK    2  A    between atoms: C10_15  and  C11_16 
ROOT
HETATM    1  N2  UNL     1      26.846   3.200  50.810  1.00  0.00    -0.217 NA
HETATM    2  C2  UNL     1      26.731   2.407  51.826  1.00  0.00     0.183 C 
HETATM    3  O1  UNL     1      27.773   2.054  52.735  1.00  0.00    -0.289 OA
HETATM    4  C3  UNL     1      28.161   0.705  52.956  1.00  0.00     0.104 A 
HETATM    5  C4  UNL     1      29.449   0.574  53.448  1.00  0.00     0.043 A 
HETATM    6  C5  UNL     1      29.989  -0.660  53.720  1.00  0.00     0.045 A 
HETATM    7  C6  UNL     1      29.228  -1.798  53.498  1.00  0.00     0.118 A 
HETATM    8  F1  UNL     1      29.756  -3.019  53.764  1.00  0.00    -0.206 F 
HETATM    9  C7  UNL     1      27.948  -1.726  53.012  1.00  0.00     0.074 A 
HETATM   10  C8  UNL     1      27.429  -0.480  52.747  1.00  0.00     0.069 A 
HETATM   11  N3  UNL     1      26.080  -0.617  52.245  1.00  0.00    -0.363 N 
HETATM   12  C9  UNL     1      25.161   0.508  52.229  1.00  0.00     0.105 C 
HETATM   13  C10 UNL     1      25.406   1.823  52.053  1.00  0.00     0.043 C 
HETATM   14  H6  UNL     1      25.738  -1.525  51.885  1.00  0.00     0.165 HD
ENDROOT
BRANCH  13  15
HETATM   15  C11 UNL     1      24.263   2.719  52.062  1.00  0.00    -0.019 A 
HETATM   16  C12 UNL     1      24.159   3.833  52.854  1.00  0.00     0.012 A 
HETATM   17  C13 UNL     1      23.128   4.745  52.835  1.00  0.00     0.002 A 
HETATM   18  C14 UNL     1      22.081   4.562  51.956  1.00  0.00     0.019 A 
HETATM   19  C15 UNL     1      22.112   3.465  51.127  1.00  0.00     0.011 A 
HETATM   20 BR1  UNL     1      20.674   3.200  49.909  1.00  0.00    -0.051 Br
HETATM   21  C16 UNL     1      23.183   2.608  51.215  1.00  0.00     0.031 A 
ENDBRANCH  13  15
BRANCH   1  22
HETATM   22  C1  UNL     1      25.802   3.524  49.927  1.00  0.00     0.226 C 
HETATM   23  N1  UNL     1      26.426   4.669  50.010  1.00  0.00    -0.293 NA
HETATM   24  H1  UNL     1      26.034   5.465  49.454  1.00  0.00     0.187 HD
ENDBRANCH   1  22
TORSDOF 2
ENDMDL
MODEL 3
REMARK VINA RESULT:      -7.8      3.029      3.825
REMARK  2 active torsions:
REMARK  status: ('A' for Active; 'I' for Inactive)
REMARK    1  A    between atoms: C1_2  and  N2_3 
REMARK    2  A    between atoms: C10_15  and  C11_16 
ROOT
HETATM    1  N2  UNL     1      23.411   3.868  52.596  1.00  0.00    -0.217 NA
HETATM    2  C2  UNL     1      24.244   2.971  52.178  1.00  0.00     0.183 C 
HETATM    3  O1  UNL     1      24.515   1.720  52.810  1.00  0.00    -0.289 OA
HETATM    4  C3  UNL     1      25.823   1.348  53.223  1.00  0.00     0.104 A 
HETATM    5  C4  UNL     1      25.834   0.386  54.220  1.00  0.00     0.043 A 
HETATM    6  C5  UNL     1      27.012  -0.092  54.740  1.00  0.00     0.045 A 
HETATM    7  C6  UNL     1      28.216   0.399  54.257  1.00  0.00     0.118 A 
HETATM    8  F1  UNL     1      29.383  -0.068  54.768  1.00  0.00    -0.206 F 
HETATM    9  C7  UNL     1      28.263   1.352  53.273  1.00  0.00     0.074 A 
HETATM   10  C8  UNL     1      27.070   1.815  52.767  1.00  0.00     0.069 A 
HETATM   11  N3  UNL     1      27.332   2.809  51.749  1.00  0.00    -0.363 N 
HETATM   12  C9  UNL     1      26.310   3.199  50.794  1.00  0.00     0.105 C 
HETATM   13  C10 UNL     1      24.971   3.280  50.943  1.00  0.00     0.043 C 
HETATM   14  H6  UNL     1      28.259   3.264  51.678  1.00  0.00     0.165 HD
ENDROOT
BRANCH  13  15
HETATM   15  C11 UNL     1      24.201   3.734  49.799  1.00  0.00    -0.019 A 
HETATM   16  C12 UNL     1      23.179   3.025  49.223  1.00  0.00     0.012 A 
HETATM   17  C13 UNL     1      22.379   3.455  48.188  1.00  0.00     0.002 A 
HETATM   18  C14 UNL     1      22.589   4.707  47.649  1.00  0.00     0.019 A 
HETATM   19  C15 UNL     1      23.598   5.480  48.173  1.00  0.00     0.011 A 
HETATM   20 BR1  UNL     1      23.898   7.210  47.438  1.00  0.00    -0.051 Br
HETATM   21  C16 UNL     1      24.345   4.968  49.207  1.00  0.00     0.031 A 
ENDBRANCH  13  15
BRANCH   1  22
HETATM   22  C1  UNL     1      23.170   5.095  51.957  1.00  0.00     0.226 C 
HETATM   23  N1  UNL     1      23.769   5.494  53.047  1.00  0.00    -0.293 NA
HETATM   24  H1  UNL     1      23.909   6.524  53.164  1.00  0.00     0.187 HD
ENDBRANCH   1  22
TORSDOF 2
ENDMDL
MODEL 4
REMARK VINA RESULT:      -7.7      1.838      2.466
REMARK  2 active torsions:
REMARK  status: ('A' for Active; 'I' for Inactive)
REMARK    1  A    between atoms: C1_2  and  N2_3 
REMARK    2  A    between atoms: C10_15  and  C11_16 
ROOT
HETATM    1  N2  UNL     1      22.609  -0.434  53.982  1.00  0.00    -0.217 NA
HETATM    2  C2  UNL     1      23.571   0.043  53.260  1.00  0.00     0.183 C 
HETATM    3  O1  UNL     1      24.867  -0.535  53.106  1.00  0.00    -0.289 OA
HETATM    4  C3  UNL     1      26.055   0.176  53.426  1.00  0.00     0.104 A 
HETATM    5  C4  UNL     1      27.137  -0.648  53.693  1.00  0.00     0.043 A 
HETATM    6  C5  UNL     1      28.367  -0.131  54.020  1.00  0.00     0.045 A 
HETATM    7  C6  UNL     1      28.529   1.245  54.086  1.00  0.00     0.118 A 
HETATM    8  F1  UNL     1      29.742   1.760  54.410  1.00  0.00    -0.206 F 
HETATM    9  C7  UNL     1      27.494   2.106  53.833  1.00  0.00     0.074 A 
HETATM   10  C8  UNL     1      26.271   1.565  53.506  1.00  0.00     0.069 A 
HETATM   11  N3  UNL     1      25.318   2.630  53.281  1.00  0.00    -0.363 N 
HETATM   12  C9  UNL     1      24.072   2.390  52.574  1.00  0.00     0.105 C 
HETATM   13  C10 UNL     1      23.293   1.289  52.541  1.00  0.00     0.043 C 
HETATM   14  H6  UNL     1      25.506   3.589  53.618  1.00  0.00     0.165 HD
ENDROOT
BRANCH  13  15
HETATM   15  C11 UNL     1      22.074   1.361  51.754  1.00  0.00    -0.019 A 
HETATM   16  C12 UNL     1      21.631   0.366  50.922  1.00  0.00     0.012 A 
HETATM   17  C13 UNL     1      20.446   0.366  50.221  1.00  0.00     0.002 A 
HETATM   18  C14 UNL     1      19.595   1.445  50.334  1.00  0.00     0.019 A 
HETATM   19  C15 UNL     1      19.971   2.486  51.151  1.00  0.00     0.011 A 
HETATM   20 BR1  UNL     1      18.806   3.982  51.318  1.00  0.00    -0.051 Br
HETATM   21  C16 UNL     1      21.172   2.398  51.813  1.00  0.00     0.031 A 
ENDBRANCH  13  15
BRANCH   1  22
HETATM   22  C1  UNL     1      21.344   0.161  54.120  1.00  0.00     0.226 C 
HETATM   23  N1  UNL     1      21.244  -0.838  54.957  1.00  0.00    -0.293 NA
HETATM   24  H1  UNL     1      20.339  -0.938  55.472  1.00  0.00     0.187 HD
ENDBRANCH   1  22
TORSDOF 2
ENDMDL
MODEL 5
REMARK VINA RESULT:      -7.6      5.720      7.393
REMARK  2 active torsions:
REMARK  status: ('A' for Active; 'I' for Inactive)
REMARK    1  A    between atoms: C1_2  and  N2_3 
REMARK    2  A    between atoms: C10_15  and  C11_16 
ROOT
HETATM    1  N2  UNL     1      26.841   3.360  49.946  1.00  0.00    -0.217 NA
HETATM    2  C2  UNL     1      26.257   4.438  49.533  1.00  0.00     0.183 C 
HETATM    3  O1  UNL     1      26.786   5.368  48.588  1.00  0.00    -0.289 OA
HETATM    4  C3  UNL     1      26.965   6.743  48.897  1.00  0.00     0.104 A 
HETATM    5  C4  UNL     1      27.908   7.371  48.099  1.00  0.00     0.043 A 
HETATM    6  C5  UNL     1      28.208   8.702  48.259  1.00  0.00     0.045 A 
HETATM    7  C6  UNL     1      27.554   9.433  49.239  1.00  0.00     0.118 A 
HETATM    8  F1  UNL     1      27.848  10.747  49.402  1.00  0.00    -0.206 F 
HETATM    9  C7  UNL     1      26.613   8.862  50.057  1.00  0.00     0.074 A 
HETATM   10  C8  UNL     1      26.329   7.528  49.878  1.00  0.00     0.069 A 
HETATM   11  N3  UNL     1      25.321   7.119  50.832  1.00  0.00    -0.363 N 
HETATM   12  C9  UNL     1      24.562   5.893  50.650  1.00  0.00     0.105 C 
HETATM   13  C10 UNL     1      24.933   4.720  50.094  1.00  0.00     0.043 C 
HETATM   14  H6  UNL     1      25.117   7.694  51.667  1.00  0.00     0.165 HD
ENDROOT
BRANCH  13  15
HETATM   15  C11 UNL     1      23.948   3.652  50.079  1.00  0.00    -0.019 A 
HETATM   16  C12 UNL     1      23.422   3.100  48.941  1.00  0.00     0.012 A 
HETATM   17  C13 UNL     1      22.547   2.038  48.886  1.00  0.00     0.002 A 
HETATM   18  C14 UNL     1      22.134   1.444  50.060  1.00  0.00     0.019 A 
HETATM   19  C15 UNL     1      22.618   1.943  51.246  1.00  0.00     0.011 A 
HETATM   20 BR1  UNL     1      22.055   1.132  52.874  1.00  0.00    -0.051 Br
HETATM   21  C16 UNL     1      23.489   3.005  51.204  1.00  0.00     0.031 A 
ENDBRANCH  13  15
BRANCH   1  22
HETATM   22  C1  UNL     1      26.298   2.467  50.885  1.00  0.00     0.226 C 
HETATM   23  N1  UNL     1      27.335   2.918  51.539  1.00  0.00    -0.293 NA
HETATM   24  H1  UNL     1      27.489   2.542  52.503  1.00  0.00     0.187 HD
ENDBRANCH   1  22
TORSDOF 2
ENDMDL
MODEL 6
REMARK VINA RESULT:      -7.6      2.882      3.634
REMARK  2 active torsions:
REMARK  status: ('A' for Active; 'I' for Inactive)
REMARK    1  A    between atoms: C1_2  and  N2_3 
REMARK    2  A    between atoms: C10_15  and  C11_16 
ROOT
HETATM    1  N2  UNL     1      22.684   2.693  51.894  1.00  0.00    -0.217 NA
HETATM    2  C2  UNL     1      23.807   2.209  51.472  1.00  0.00     0.183 C 
HETATM    3  O1  UNL     1      24.429   1.010  51.933  1.00  0.00    -0.289 OA
HETATM    4  C3  UNL     1      25.742   0.999  52.477  1.00  0.00     0.104 A 
HETATM    5  C4  UNL     1      25.990  -0.087  53.301  1.00  0.00     0.043 A 
HETATM    6  C5  UNL     1      27.208  -0.258  53.912  1.00  0.00     0.045 A 
HETATM    7  C6  UNL     1      28.212   0.676  53.699  1.00  0.00     0.118 A 
HETATM    8  F1  UNL     1      29.416   0.512  54.301  1.00  0.00    -0.206 F 
HETATM    9  C7  UNL     1      28.020   1.769  52.895  1.00  0.00     0.074 A 
HETATM   10  C8  UNL     1      26.792   1.920  52.293  1.00  0.00     0.069 A 
HETATM   11  N3  UNL     1      26.791   3.125  51.495  1.00  0.00    -0.363 N 
HETATM   12  C9  UNL     1      25.788   3.351  50.469  1.00  0.00     0.105 C 
HETATM   13  C10 UNL     1      24.494   2.971  50.425  1.00  0.00     0.043 C 
HETATM   14  H6  UNL     1      27.510   3.856  51.637  1.00  0.00     0.165 HD
ENDROOT
BRANCH  13  15
HETATM   15  C11 UNL     1      23.722   3.374  49.262  1.00  0.00    -0.019 A 
HETATM   16  C12 UNL     1      22.920   2.532  48.536  1.00  0.00     0.012 A 
HETATM   17  C13 UNL     1      22.117   2.893  47.478  1.00  0.00     0.002 A 
HETATM   18  C14 UNL     1      22.085   4.212  47.075  1.00  0.00     0.019 A 
HETATM   19  C15 UNL     1      22.864   5.118  47.754  1.00  0.00     0.011 A 
HETATM   20 BR1  UNL     1      22.828   6.942  47.209  1.00  0.00    -0.051 Br
HETATM   21  C16 UNL     1      23.633   4.667  48.800  1.00  0.00     0.031 A 
ENDBRANCH  13  15
BRANCH   1  22
HETATM   22  C1  UNL     1      22.099   3.881  51.426  1.00  0.00     0.226 C 
HETATM   23  N1  UNL     1      21.191   3.471  52.271  1.00  0.00    -0.293 NA
HETATM   24  H1  UNL     1      20.338   4.067  52.380  1.00  0.00     0.187 HD
ENDBRANCH   1  22
TORSDOF 2
ENDMDL
MODEL 7
REMARK VINA RESULT:      -7.6      4.490      5.667
REMARK  2 active torsions:
REMARK  status: ('A' for Active; 'I' for Inactive)
REMARK    1  A    between atoms: C1_2  and  N2_3 
REMARK    2  A    between atoms: C10_15  and  C11_16 
ROOT
HETATM    1  N2  UNL     1      23.446   5.832  51.319  1.00  0.00    -0.217 NA
HETATM    2  C2  UNL     1      23.953   4.786  50.750  1.00  0.00     0.183 C 
HETATM    3  O1  UNL     1      23.631   3.429  51.053  1.00  0.00    -0.289 OA
HETATM    4  C3  UNL     1      24.617   2.490  51.460  1.00  0.00     0.104 A 
HETATM    5  C4  UNL     1      24.099   1.418  52.169  1.00  0.00     0.043 A 
HETATM    6  C5  UNL     1      24.909   0.413  52.640  1.00  0.00     0.045 A 
HETATM    7  C6  UNL     1      26.274   0.473  52.400  1.00  0.00     0.118 A 
HETATM    8  F1  UNL     1      27.079  -0.516  52.864  1.00  0.00    -0.206 F 
HETATM    9  C7  UNL     1      26.839   1.511  51.705  1.00  0.00     0.074 A 
HETATM   10  C8  UNL     1      26.008   2.505  51.243  1.00  0.00     0.069 A 
HETATM   11  N3  UNL     1      26.790   3.501  50.544  1.00  0.00    -0.363 N 
HETATM   12  C9  UNL     1      26.167   4.456  49.644  1.00  0.00     0.105 C 
HETATM   13  C10 UNL     1      24.947   5.030  49.701  1.00  0.00     0.043 C 
HETATM   14  H6  UNL     1      27.816   3.553  50.669  1.00  0.00     0.165 HD
ENDROOT
BRANCH  13  15
HETATM   15  C11 UNL     1      24.611   5.981  48.656  1.00  0.00    -0.019 A 
HETATM   16  C12 UNL     1      25.450   6.970  48.211  1.00  0.00     0.012 A 
HETATM   17  C13 UNL     1      25.196   7.839  47.174  1.00  0.00     0.002 A 
HETATM   18  C14 UNL     1      24.002   7.745  46.491  1.00  0.00     0.019 A 
HETATM   19  C15 UNL     1      23.106   6.777  46.879  1.00  0.00     0.011 A 
HETATM   20 BR1  UNL     1      21.453   6.635  45.945  1.00  0.00    -0.051 Br
HETATM   21  C16 UNL     1      23.445   5.952  47.925  1.00  0.00     0.031 A 
ENDBRANCH  13  15
BRANCH   1  22
HETATM   22  C1  UNL     1      23.789   7.158  51.004  1.00  0.00     0.226 C 
HETATM   23  N1  UNL     1      24.357   7.023  52.172  1.00  0.00    -0.293 NA
HETATM   24  H1  UNL     1      24.876   7.850  52.548  1.00  0.00     0.187 HD
ENDBRANCH   1  22
TORSDOF 2
ENDMDL
MODEL 8
REMARK VINA RESULT:      -7.4      2.152      2.470
REMARK  2 active torsions:
REMARK  status: ('A' for Active; 'I' for Inactive)
REMARK    1  A    between atoms: C1_2  and  N2_3 
REMARK    2  A    between atoms: C10_15  and  C11_16 
ROOT
HETATM    1  N2  UNL     1      23.801   1.050  52.621  1.00  0.00    -0.217 NA
HETATM    2  C2  UNL     1      24.984   0.953  52.107  1.00  0.00     0.183 C 
HETATM    3  O1  UNL     1      25.734  -0.251  51.950  1.00  0.00    -0.289 OA
HETATM    4  C3  UNL     1      27.025  -0.418  52.519  1.00  0.00     0.104 A 
HETATM    5  C4  UNL     1      27.380  -1.745  52.700  1.00  0.00     0.043 A 
HETATM    6  C5  UNL     1      28.595  -2.093  53.240  1.00  0.00     0.045 A 
HETATM    7  C6  UNL     1      29.484  -1.095  53.610  1.00  0.00     0.118 A 
HETATM    8  F1  UNL     1      30.685  -1.433  54.144  1.00  0.00    -0.206 F 
HETATM    9  C7  UNL     1      29.183   0.233  53.454  1.00  0.00     0.074 A 
HETATM   10  C8  UNL     1      27.961   0.557  52.912  1.00  0.00     0.069 A 
HETATM   11  N3  UNL     1      27.835   1.996  52.833  1.00  0.00    -0.363 N 
HETATM   12  C9  UNL     1      26.837   2.622  51.983  1.00  0.00     0.105 C 
HETATM   13  C10 UNL     1      25.600   2.201  51.647  1.00  0.00     0.043 C 
HETATM   14  H6  UNL     1      28.458   2.613  53.383  1.00  0.00     0.165 HD
ENDROOT
BRANCH  13  15
HETATM   15  C11 UNL     1      24.814   3.069  50.787  1.00  0.00    -0.019 A 
HETATM   16  C12 UNL     1      24.112   2.642  49.690  1.00  0.00     0.012 A 
HETATM   17  C13 UNL     1      23.297   3.420  48.898  1.00  0.00     0.002 A 
HETATM   18  C14 UNL     1      23.144   4.757  49.197  1.00  0.00     0.019 A 
HETATM   19  C15 UNL     1      23.818   5.262  50.284  1.00  0.00     0.011 A 
HETATM   20 BR1  UNL     1      23.614   7.107  50.708  1.00  0.00    -0.051 Br
HETATM   21  C16 UNL     1      24.608   4.410  51.018  1.00  0.00     0.031 A 
ENDBRANCH  13  15
BRANCH   1  22
HETATM   22  C1  UNL     1      23.089   2.252  52.769  1.00  0.00     0.226 C 
HETATM   23  N1  UNL     1      22.111   1.395  52.647  1.00  0.00    -0.293 NA
HETATM   24  H1  UNL     1      21.137   1.775  52.686  1.00  0.00     0.187 HD
ENDBRANCH   1  22
TORSDOF 2
ENDMDL
MODEL 9
REMARK VINA RESULT:      -7.4      7.035      8.499
REMARK  2 active torsions:
REMARK  status: ('A' for Active; 'I' for Inactive)
REMARK    1  A    between atoms: C1_2  and  N2_3 
REMARK    2  A    between atoms: C10_15  and  C11_16 
ROOT
HETATM    1  N2  UNL     1      26.414   8.228  50.179  1.00  0.00    -0.217 NA
HETATM    2  C2  UNL     1      26.030   7.109  49.655  1.00  0.00     0.183 C 
HETATM    3  O1  UNL     1      24.838   6.396  49.983  1.00  0.00    -0.289 OA
HETATM    4  C3  UNL     1      24.862   5.053  50.446  1.00  0.00     0.104 A 
HETATM    5  C4  UNL     1      23.734   4.696  51.167  1.00  0.00     0.043 A 
HETATM    6  C5  UNL     1      23.588   3.434  51.690  1.00  0.00     0.045 A 
HETATM    7  C6  UNL     1      24.592   2.497  51.493  1.00  0.00     0.118 A 
HETATM    8  F1  UNL     1      24.453   1.250  52.009  1.00  0.00    -0.206 F 
HETATM    9  C7  UNL     1      25.729   2.797  50.790  1.00  0.00     0.074 A 
HETATM   10  C8  UNL     1      25.853   4.067  50.275  1.00  0.00     0.069 A 
HETATM   11  N3  UNL     1      27.113   4.182  49.575  1.00  0.00    -0.363 N 
HETATM   12  C9  UNL     1      27.357   5.259  48.630  1.00  0.00     0.105 C 
HETATM   13  C10 UNL     1      26.906   6.531  48.632  1.00  0.00     0.043 C 
HETATM   14  H6  UNL     1      27.871   3.496  49.731  1.00  0.00     0.165 HD
ENDROOT
BRANCH  13  15
HETATM   15  C11 UNL     1      27.350   7.394  47.552  1.00  0.00    -0.019 A 
HETATM   16  C12 UNL     1      28.647   7.489  47.121  1.00  0.00     0.012 A 
HETATM   17  C13 UNL     1      29.092   8.237  46.053  1.00  0.00     0.002 A 
HETATM   18  C14 UNL     1      28.186   8.975  45.322  1.00  0.00     0.019 A 
HETATM   19  C15 UNL     1      26.862   8.932  45.694  1.00  0.00     0.011 A 
HETATM   20 BR1  UNL     1      25.600   9.947  44.694  1.00  0.00    -0.051 Br
HETATM   21  C16 UNL     1      26.510   8.157  46.773  1.00  0.00     0.031 A 
ENDBRANCH  13  15
BRANCH   1  22
HETATM   22  C1  UNL     1      27.598   8.903  49.840  1.00  0.00     0.226 C 
HETATM   23  N1  UNL     1      27.236   9.555  50.913  1.00  0.00    -0.293 NA
HETATM   24  H1  UNL     1      27.854  10.340  51.224  1.00  0.00     0.187 HD
ENDBRANCH   1  22
TORSDOF 2
ENDMDL
