MODEL 1
REMARK VINA RESULT:      -7.3      0.000      0.000
REMARK  7 active torsions:
REMARK  status: ('A' for Active; 'I' for Inactive)
REMARK    1  A    between atoms: C2_2  and  C3_3 
REMARK    2  A    between atoms: C3_3  and  C4_4 
REMARK    3  A    between atoms: C4_4  and  O1_5 
REMARK    4  A    between atoms: O1_5  and  C5_6 
REMARK    5  A    between atoms: C5_6  and  C6_7 
REMARK    6  A    between atoms: C6_7  and  N1_8 
REMARK    7  A    between atoms: N1_8  and  C7_9 
ROOT
HETATM    1  C5  UNL     1      23.615   3.115  51.914  1.00  0.00     0.218 C 
HETATM    2  O3  UNL     1      23.024   3.111  50.684  1.00  0.00    -0.347 OA
HETATM    3  C13 UNL     1      23.660   3.805  49.689  1.00  0.00     0.202 C 
HETATM    4  C14 UNL     1      23.955   5.207  50.044  1.00  0.00     0.040 C 
HETATM    5  C15 UNL     1      23.879   5.441  51.347  1.00  0.00     0.131 C 
HETATM    6  F1  UNL     1      24.140   6.715  51.748  1.00  0.00    -0.208 F 
HETATM    7  C16 UNL     1      23.548   4.515  52.465  1.00  0.00     0.295 C 
HETATM    8  F2  UNL     1      22.242   4.861  52.835  1.00  0.00    -0.236 F 
ENDROOT
BRANCH   1   9
HETATM    9  O1  UNL     1      23.200   2.139  52.742  1.00  0.00    -0.351 OA
BRANCH   9  10
HETATM   10  C4  UNL     1      22.699   0.981  52.265  1.00  0.00     0.175 C 
BRANCH  10  11
HETATM   11  C3  UNL     1      22.953  -0.217  53.148  1.00  0.00     0.052 C 
BRANCH  11  12
HETATM   12  C2  UNL     1      21.854  -0.420  54.125  1.00  0.00    -0.035 C 
HETATM   13  C1  UNL     1      21.219  -1.517  54.474  1.00  0.00     0.007 C 
ENDBRANCH  11  12
ENDBRANCH  10  11
ENDBRANCH   9  10
ENDBRANCH   1   9
BRANCH   1  14
HETATM   14  C6  UNL     1      25.111   2.854  51.676  1.00  0.00     0.194 C 
BRANCH  14  15
HETATM   15  N1  UNL     1      25.765   2.754  52.987  1.00  0.00    -0.365 N 
HETATM   16  H10 UNL     1      25.675   3.340  53.840  1.00  0.00     0.161 HD
BRANCH  15  17
HETATM   17  C7  UNL     1      26.694   1.661  53.132  1.00  0.00     0.142 A 
HETATM   18  C8  UNL     1      26.472   0.447  52.680  1.00  0.00     0.058 A 
HETATM   19  C9  UNL     1      27.364  -0.703  52.792  1.00  0.00     0.028 A 
HETATM   20  C10 UNL     1      28.570  -0.780  53.332  1.00  0.00     0.035 A 
HETATM   21 CL1  UNL     1      29.343  -2.331  53.283  1.00  0.00    -0.084 Cl
HETATM   22  C11 UNL     1      29.371   0.258  53.979  1.00  0.00     0.048 A 
HETATM   23  C12 UNL     1      29.008   1.514  54.171  1.00  0.00     0.146 A 
HETATM   24  O2  UNL     1      27.820   2.142  53.819  1.00  0.00    -0.306 OA
ENDBRANCH  15  17
ENDBRANCH  14  15
ENDBRANCH   1  14
TORSDOF 7
ENDMDL
MODEL 2
REMARK VINA RESULT:      -7.3      3.900      6.153
REMARK  7 active torsions:
REMARK  status: ('A' for Active; 'I' for Inactive)
REMARK    1  A    between atoms: C2_2  and  C3_3 
REMARK    2  A    between atoms: C3_3  and  C4_4 
REMARK    3  A    between atoms: C4_4  and  O1_5 
REMARK    4  A    between atoms: O1_5  and  C5_6 
REMARK    5  A    between atoms: C5_6  and  C6_7 
REMARK    6  A    between atoms: C6_7  and  N1_8 
REMARK    7  A    between atoms: N1_8  and  C7_9 
ROOT
HETATM    1  C5  UNL     1      26.491  -0.334  53.363  1.00  0.00     0.218 C 
HETATM    2  O3  UNL     1      26.682  -0.411  54.712  1.00  0.00    -0.347 OA
HETATM    3  C13 UNL     1      27.796   0.208  55.215  1.00  0.00     0.202 C 
HETATM    4  C14 UNL     1      29.050  -0.208  54.556  1.00  0.00     0.040 C 
HETATM    5  C15 UNL     1      28.850  -0.815  53.394  1.00  0.00     0.131 C 
HETATM    6  F1  UNL     1      29.964  -1.226  52.729  1.00  0.00    -0.208 F 
HETATM    7  C16 UNL     1      27.578  -1.125  52.685  1.00  0.00     0.295 C 
HETATM    8  F2  UNL     1      27.401  -2.503  52.866  1.00  0.00    -0.236 F 
ENDROOT
BRANCH   1   9
HETATM    9  O1  UNL     1      25.235  -0.596  52.956  1.00  0.00    -0.351 OA
BRANCH   9  10
HETATM   10  C4  UNL     1      24.184  -0.451  53.789  1.00  0.00     0.175 C 
BRANCH  10  11
HETATM   11  C3  UNL     1      22.932   0.071  53.125  1.00  0.00     0.052 C 
BRANCH  11  12
HETATM   12  C2  UNL     1      21.728  -0.179  53.956  1.00  0.00    -0.035 C 
HETATM   13  C1  UNL     1      21.309  -1.282  54.537  1.00  0.00     0.007 C 
ENDBRANCH  11  12
ENDBRANCH  10  11
ENDBRANCH   9  10
ENDBRANCH   1   9
BRANCH   1  14
HETATM   14  C6  UNL     1      26.761   1.128  52.970  1.00  0.00     0.194 C 
BRANCH  14  15
HETATM   15  N1  UNL     1      26.638   1.233  51.511  1.00  0.00    -0.365 N 
HETATM   16  H10 UNL     1      26.890   0.565  50.756  1.00  0.00     0.161 HD
BRANCH  15  17
HETATM   17  C7  UNL     1      26.074   2.467  51.025  1.00  0.00     0.142 A 
HETATM   18  C8  UNL     1      26.535   3.121  49.981  1.00  0.00     0.058 A 
HETATM   19  C9  UNL     1      26.015   4.371  49.436  1.00  0.00     0.028 A 
HETATM   20  C10 UNL     1      24.981   5.096  49.836  1.00  0.00     0.035 A 
HETATM   21 CL1  UNL     1      24.655   6.542  48.937  1.00  0.00    -0.084 Cl
HETATM   22  C11 UNL     1      24.052   4.866  50.940  1.00  0.00     0.048 A 
HETATM   23  C12 UNL     1      24.091   3.857  51.793  1.00  0.00     0.146 A 
HETATM   24  O2  UNL     1      24.992   2.801  51.853  1.00  0.00    -0.306 OA
ENDBRANCH  15  17
ENDBRANCH  14  15
ENDBRANCH   1  14
TORSDOF 7
ENDMDL
MODEL 3
REMARK VINA RESULT:      -7.2      2.299      4.383
REMARK  7 active torsions:
REMARK  status: ('A' for Active; 'I' for Inactive)
REMARK    1  A    between atoms: C2_2  and  C3_3 
REMARK    2  A    between atoms: C3_3  and  C4_4 
REMARK    3  A    between atoms: C4_4  and  O1_5 
REMARK    4  A    between atoms: O1_5  and  C5_6 
REMARK    5  A    between atoms: C5_6  and  C6_7 
REMARK    6  A    between atoms: C6_7  and  N1_8 
REMARK    7  A    between atoms: N1_8  and  C7_9 
ROOT
HETATM    1  C5  UNL     1      24.206   3.172  51.449  1.00  0.00     0.218 C 
HETATM    2  O3  UNL     1      23.221   4.109  51.570  1.00  0.00    -0.347 OA
HETATM    3  C13 UNL     1      22.086   3.730  52.237  1.00  0.00     0.202 C 
HETATM    4  C14 UNL     1      21.474   2.497  51.706  1.00  0.00     0.040 C 
HETATM    5  C15 UNL     1      22.297   1.797  50.936  1.00  0.00     0.131 C 
HETATM    6  F1  UNL     1      21.798   0.645  50.411  1.00  0.00    -0.208 F 
HETATM    7  C16 UNL     1      23.706   2.075  50.546  1.00  0.00     0.295 C 
HETATM    8  F2  UNL     1      23.626   2.501  49.214  1.00  0.00    -0.236 F 
ENDROOT
BRANCH   1   9
HETATM    9  O1  UNL     1      25.421   3.668  51.151  1.00  0.00    -0.351 OA
BRANCH   9  10
HETATM   10  C4  UNL     1      25.617   4.433  50.057  1.00  0.00     0.175 C 
BRANCH  10  11
HETATM   11  C3  UNL     1      26.840   4.064  49.251  1.00  0.00     0.052 C 
BRANCH  11  12
HETATM   12  C2  UNL     1      27.447   5.253  48.604  1.00  0.00    -0.035 C 
HETATM   13  C1  UNL     1      28.700   5.504  48.291  1.00  0.00     0.007 C 
ENDBRANCH  11  12
ENDBRANCH  10  11
ENDBRANCH   9  10
ENDBRANCH   1   9
BRANCH   1  14
HETATM   14  C6  UNL     1      24.350   2.515  52.830  1.00  0.00     0.194 C 
BRANCH  14  15
HETATM   15  N1  UNL     1      25.708   2.785  53.319  1.00  0.00    -0.365 N 
HETATM   16  H10 UNL     1      26.151   3.664  53.650  1.00  0.00     0.161 HD
BRANCH  15  17
HETATM   17  C7  UNL     1      26.591   1.646  53.353  1.00  0.00     0.142 A 
HETATM   18  C8  UNL     1      26.309   0.485  52.803  1.00  0.00     0.058 A 
HETATM   19  C9  UNL     1      27.151  -0.706  52.800  1.00  0.00     0.028 A 
HETATM   20  C10 UNL     1      28.362  -0.881  53.309  1.00  0.00     0.035 A 
HETATM   21 CL1  UNL     1      29.065  -2.453  53.113  1.00  0.00    -0.084 Cl
HETATM   22  C11 UNL     1      29.216   0.063  54.027  1.00  0.00     0.048 A 
HETATM   23  C12 UNL     1      28.911   1.312  54.332  1.00  0.00     0.146 A 
HETATM   24  O2  UNL     1      27.746   2.018  54.057  1.00  0.00    -0.306 OA
ENDBRANCH  15  17
ENDBRANCH  14  15
ENDBRANCH   1  14
TORSDOF 7
ENDMDL
MODEL 4
REMARK VINA RESULT:      -7.2      3.595      6.639
REMARK  7 active torsions:
REMARK  status: ('A' for Active; 'I' for Inactive)
REMARK    1  A    between atoms: C2_2  and  C3_3 
REMARK    2  A    between atoms: C3_3  and  C4_4 
REMARK    3  A    between atoms: C4_4  and  O1_5 
REMARK    4  A    between atoms: O1_5  and  C5_6 
REMARK    5  A    between atoms: C5_6  and  C6_7 
REMARK    6  A    between atoms: C6_7  and  N1_8 
REMARK    7  A    between atoms: N1_8  and  C7_9 
ROOT
HETATM    1  C5  UNL     1      26.438   1.646  52.452  1.00  0.00     0.218 C 
HETATM    2  O3  UNL     1      26.832   0.583  51.691  1.00  0.00    -0.347 OA
HETATM    3  C13 UNL     1      26.855  -0.641  52.304  1.00  0.00     0.202 C 
HETATM    4  C14 UNL     1      27.643  -0.662  53.552  1.00  0.00     0.040 C 
HETATM    5  C15 UNL     1      27.884   0.550  54.034  1.00  0.00     0.131 C 
HETATM    6  F1  UNL     1      28.607   0.607  55.186  1.00  0.00    -0.208 F 
HETATM    7  C16 UNL     1      27.483   1.884  53.509  1.00  0.00     0.295 C 
HETATM    8  F2  UNL     1      28.658   2.414  52.961  1.00  0.00    -0.236 F 
ENDROOT
BRANCH   1   9
HETATM    9  O1  UNL     1      26.056   2.730  51.751  1.00  0.00    -0.351 OA
BRANCH   9  10
HETATM   10  C4  UNL     1      26.553   2.981  50.523  1.00  0.00     0.175 C 
BRANCH  10  11
HETATM   11  C3  UNL     1      25.688   3.881  49.674  1.00  0.00     0.052 C 
BRANCH  11  12
HETATM   12  C2  UNL     1      26.483   4.958  49.032  1.00  0.00    -0.035 C 
HETATM   13  C1  UNL     1      27.719   4.950  48.583  1.00  0.00     0.007 C 
ENDBRANCH  11  12
ENDBRANCH  10  11
ENDBRANCH   9  10
ENDBRANCH   1   9
BRANCH   1  14
HETATM   14  C6  UNL     1      25.191   1.186  53.223  1.00  0.00     0.194 C 
BRANCH  14  15
HETATM   15  N1  UNL     1      24.018   1.436  52.375  1.00  0.00    -0.365 N 
HETATM   16  H10 UNL     1      23.895   2.049  51.546  1.00  0.00     0.161 HD
BRANCH  15  17
HETATM   17  C7  UNL     1      22.825   0.715  52.742  1.00  0.00     0.142 A 
HETATM   18  C8  UNL     1      21.682   0.818  52.101  1.00  0.00     0.058 A 
HETATM   19  C9  UNL     1      20.439   0.121  52.415  1.00  0.00     0.028 A 
HETATM   20  C10 UNL     1      20.190  -0.764  53.369  1.00  0.00     0.035 A 
HETATM   21 CL1  UNL     1      18.576  -1.390  53.443  1.00  0.00    -0.084 Cl
HETATM   22  C11 UNL     1      21.082  -1.308  54.392  1.00  0.00     0.048 A 
HETATM   23  C12 UNL     1      22.350  -0.982  54.572  1.00  0.00     0.146 A 
HETATM   24  O2  UNL     1      23.127  -0.075  53.862  1.00  0.00    -0.306 OA
ENDBRANCH  15  17
ENDBRANCH  14  15
ENDBRANCH   1  14
TORSDOF 7
ENDMDL
MODEL 5
REMARK VINA RESULT:      -7.0      3.676      5.784
REMARK  7 active torsions:
REMARK  status: ('A' for Active; 'I' for Inactive)
REMARK    1  A    between atoms: C2_2  and  C3_3 
REMARK    2  A    between atoms: C3_3  and  C4_4 
REMARK    3  A    between atoms: C4_4  and  O1_5 
REMARK    4  A    between atoms: O1_5  and  C5_6 
REMARK    5  A    between atoms: C5_6  and  C6_7 
REMARK    6  A    between atoms: C6_7  and  N1_8 
REMARK    7  A    between atoms: N1_8  and  C7_9 
ROOT
HETATM    1  C5  UNL     1      26.246   1.089  53.373  1.00  0.00     0.218 C 
HETATM    2  O3  UNL     1      26.869   2.153  53.959  1.00  0.00    -0.347 OA
HETATM    3  C13 UNL     1      28.113   2.477  53.488  1.00  0.00     0.202 C 
HETATM    4  C14 UNL     1      29.058   1.344  53.488  1.00  0.00     0.040 C 
HETATM    5  C15 UNL     1      28.458   0.166  53.602  1.00  0.00     0.131 C 
HETATM    6  F1  UNL     1      29.269  -0.927  53.609  1.00  0.00    -0.208 F 
HETATM    7  C16 UNL     1      27.011  -0.159  53.725  1.00  0.00     0.295 C 
HETATM    8  F2  UNL     1      26.840  -0.505  55.071  1.00  0.00    -0.236 F 
ENDROOT
BRANCH   1   9
HETATM    9  O1  UNL     1      24.915   1.036  53.569  1.00  0.00    -0.351 OA
BRANCH   9  10
HETATM   10  C4  UNL     1      24.266  -0.142  53.655  1.00  0.00     0.175 C 
BRANCH  10  11
HETATM   11  C3  UNL     1      22.819  -0.088  53.228  1.00  0.00     0.052 C 
BRANCH  11  12
HETATM   12  C2  UNL     1      22.071  -1.289  53.676  1.00  0.00    -0.035 C 
HETATM   13  C1  UNL     1      20.884  -1.393  54.233  1.00  0.00     0.007 C 
ENDBRANCH  11  12
ENDBRANCH  10  11
ENDBRANCH   9  10
ENDBRANCH   1   9
BRANCH   1  14
HETATM   14  C6  UNL     1      26.438   1.258  51.857  1.00  0.00     0.194 C 
BRANCH  14  15
HETATM   15  N1  UNL     1      25.312   2.049  51.344  1.00  0.00    -0.365 N 
HETATM   16  H10 UNL     1      24.286   1.903  51.420  1.00  0.00     0.161 HD
BRANCH  15  17
HETATM   17  C7  UNL     1      25.673   3.236  50.611  1.00  0.00     0.142 A 
HETATM   18  C8  UNL     1      26.672   3.292  49.756  1.00  0.00     0.058 A 
HETATM   19  C9  UNL     1      27.093   4.454  48.982  1.00  0.00     0.028 A 
HETATM   20  C10 UNL     1      26.571   5.671  48.942  1.00  0.00     0.035 A 
HETATM   21 CL1  UNL     1      27.346   6.812  47.893  1.00  0.00    -0.084 Cl
HETATM   22  C11 UNL     1      25.420   6.216  49.660  1.00  0.00     0.048 A 
HETATM   23  C12 UNL     1      24.672   5.569  50.537  1.00  0.00     0.146 A 
HETATM   24  O2  UNL     1      24.786   4.257  50.980  1.00  0.00    -0.306 OA
ENDBRANCH  15  17
ENDBRANCH  14  15
ENDBRANCH   1  14
TORSDOF 7
ENDMDL
MODEL 6
REMARK VINA RESULT:      -6.7      1.713      2.001
REMARK  7 active torsions:
REMARK  status: ('A' for Active; 'I' for Inactive)
REMARK    1  A    between atoms: C2_2  and  C3_3 
REMARK    2  A    between atoms: C3_3  and  C4_4 
REMARK    3  A    between atoms: C4_4  and  O1_5 
REMARK    4  A    between atoms: O1_5  and  C5_6 
REMARK    5  A    between atoms: C5_6  and  C6_7 
REMARK    6  A    between atoms: C6_7  and  N1_8 
REMARK    7  A    between atoms: N1_8  and  C7_9 
ROOT
HETATM    1  C5  UNL     1      22.101   1.753  52.005  1.00  0.00     0.218 C 
HETATM    2  O3  UNL     1      21.381   1.134  51.026  1.00  0.00    -0.347 OA
HETATM    3  C13 UNL     1      21.835   1.273  49.741  1.00  0.00     0.202 C 
HETATM    4  C14 UNL     1      22.036   2.678  49.335  1.00  0.00     0.040 C 
HETATM    5  C15 UNL     1      22.084   3.515  50.364  1.00  0.00     0.131 C 
HETATM    6  F1  UNL     1      22.267   4.830  50.064  1.00  0.00    -0.208 F 
HETATM    7  C16 UNL     1      21.966   3.242  51.822  1.00  0.00     0.295 C 
HETATM    8  F2  UNL     1      20.683   3.688  52.162  1.00  0.00    -0.236 F 
ENDROOT
BRANCH   1   9
HETATM    9  O1  UNL     1      21.873   1.293  53.250  1.00  0.00    -0.351 OA
BRANCH   9  10
HETATM   10  C4  UNL     1      20.805   0.517  53.524  1.00  0.00     0.175 C 
BRANCH  10  11
HETATM   11  C3  UNL     1      21.116  -0.687  54.382  1.00  0.00     0.052 C 
BRANCH  11  12
HETATM   12  C2  UNL     1      22.569  -0.797  54.665  1.00  0.00    -0.035 C 
HETATM   13  C1  UNL     1      23.210  -1.542  55.539  1.00  0.00     0.007 C 
ENDBRANCH  11  12
ENDBRANCH  10  11
ENDBRANCH   9  10
ENDBRANCH   1   9
BRANCH   1  14
HETATM   14  C6  UNL     1      23.580   1.450  51.712  1.00  0.00     0.194 C 
BRANCH  14  15
HETATM   15  N1  UNL     1      24.365   1.859  52.884  1.00  0.00    -0.365 N 
HETATM   16  H10 UNL     1      24.162   2.550  53.633  1.00  0.00     0.161 HD
BRANCH  15  17
HETATM   17  C7  UNL     1      25.637   1.198  53.037  1.00  0.00     0.142 A 
HETATM   18  C8  UNL     1      25.806  -0.100  52.912  1.00  0.00     0.058 A 
HETATM   19  C9  UNL     1      27.060  -0.833  53.053  1.00  0.00     0.028 A 
HETATM   20  C10 UNL     1      28.277  -0.376  53.306  1.00  0.00     0.035 A 
HETATM   21 CL1  UNL     1      29.543  -1.556  53.405  1.00  0.00    -0.084 Cl
HETATM   22  C11 UNL     1      28.731   0.997  53.519  1.00  0.00     0.048 A 
HETATM   23  C12 UNL     1      27.970   2.077  53.522  1.00  0.00     0.146 A 
HETATM   24  O2  UNL     1      26.598   2.178  53.330  1.00  0.00    -0.306 OA
ENDBRANCH  15  17
ENDBRANCH  14  15
ENDBRANCH   1  14
TORSDOF 7
ENDMDL
MODEL 7
REMARK VINA RESULT:      -6.6      4.045      6.356
REMARK  7 active torsions:
REMARK  status: ('A' for Active; 'I' for Inactive)
REMARK    1  A    between atoms: C2_2  and  C3_3 
REMARK    2  A    between atoms: C3_3  and  C4_4 
REMARK    3  A    between atoms: C4_4  and  O1_5 
REMARK    4  A    between atoms: O1_5  and  C5_6 
REMARK    5  A    between atoms: C5_6  and  C6_7 
REMARK    6  A    between atoms: C6_7  and  N1_8 
REMARK    7  A    between atoms: N1_8  and  C7_9 
ROOT
HETATM    1  C5  UNL     1      25.816   2.063  52.370  1.00  0.00     0.218 C 
HETATM    2  O3  UNL     1      26.450   2.229  53.567  1.00  0.00    -0.347 OA
HETATM    3  C13 UNL     1      27.753   1.812  53.640  1.00  0.00     0.202 C 
HETATM    4  C14 UNL     1      27.949   0.412  53.214  1.00  0.00     0.040 C 
HETATM    5  C15 UNL     1      26.925  -0.068  52.520  1.00  0.00     0.131 C 
HETATM    6  F1  UNL     1      27.037  -1.356  52.094  1.00  0.00    -0.208 F 
HETATM    7  C16 UNL     1      25.649   0.587  52.124  1.00  0.00     0.295 C 
HETATM    8  F2  UNL     1      24.687   0.029  52.975  1.00  0.00    -0.236 F 
ENDROOT
BRANCH   1   9
HETATM    9  O1  UNL     1      24.709   2.813  52.210  1.00  0.00    -0.351 OA
BRANCH   9  10
HETATM   10  C4  UNL     1      24.215   3.556  53.221  1.00  0.00     0.175 C 
BRANCH  10  11
HETATM   11  C3  UNL     1      23.408   4.753  52.776  1.00  0.00     0.052 C 
BRANCH  11  12
HETATM   12  C2  UNL     1      22.442   4.395  51.707  1.00  0.00    -0.035 C 
HETATM   13  C1  UNL     1      21.532   5.127  51.104  1.00  0.00     0.007 C 
ENDBRANCH  11  12
ENDBRANCH  10  11
ENDBRANCH   9  10
ENDBRANCH   1   9
BRANCH   1  14
HETATM   14  C6  UNL     1      26.801   2.537  51.289  1.00  0.00     0.194 C 
BRANCH  14  15
HETATM   15  N1  UNL     1      26.036   2.790  50.061  1.00  0.00    -0.365 N 
HETATM   16  H10 UNL     1      25.361   2.193  49.544  1.00  0.00     0.161 HD
BRANCH  15  17
HETATM   17  C7  UNL     1      26.243   4.083  49.459  1.00  0.00     0.142 A 
HETATM   18  C8  UNL     1      25.303   4.994  49.341  1.00  0.00     0.058 A 
HETATM   19  C9  UNL     1      25.441   6.318  48.744  1.00  0.00     0.028 A 
HETATM   20  C10 UNL     1      26.513   6.898  48.226  1.00  0.00     0.035 A 
HETATM   21 CL1  UNL     1      26.301   8.501  47.601  1.00  0.00    -0.084 Cl
HETATM   22  C11 UNL     1      27.877   6.389  48.093  1.00  0.00     0.048 A 
HETATM   23  C12 UNL     1      28.300   5.193  48.464  1.00  0.00     0.146 A 
HETATM   24  O2  UNL     1      27.584   4.157  49.051  1.00  0.00    -0.306 OA
ENDBRANCH  15  17
ENDBRANCH  14  15
ENDBRANCH   1  14
TORSDOF 7
ENDMDL
MODEL 8
REMARK VINA RESULT:      -6.5      4.183      7.154
REMARK  7 active torsions:
REMARK  status: ('A' for Active; 'I' for Inactive)
REMARK    1  A    between atoms: C2_2  and  C3_3 
REMARK    2  A    between atoms: C3_3  and  C4_4 
REMARK    3  A    between atoms: C4_4  and  O1_5 
REMARK    4  A    between atoms: O1_5  and  C5_6 
REMARK    5  A    between atoms: C5_6  and  C6_7 
REMARK    6  A    between atoms: C6_7  and  N1_8 
REMARK    7  A    between atoms: N1_8  and  C7_9 
ROOT
HETATM    1  C5  UNL     1      24.674   2.153  51.976  1.00  0.00     0.218 C 
HETATM    2  O3  UNL     1      23.848   1.768  50.961  1.00  0.00    -0.347 OA
HETATM    3  C13 UNL     1      22.595   1.341  51.312  1.00  0.00     0.202 C 
HETATM    4  C14 UNL     1      22.599   0.266  52.323  1.00  0.00     0.040 C 
HETATM    5  C15 UNL     1      23.759   0.154  52.958  1.00  0.00     0.131 C 
HETATM    6  F1  UNL     1      23.836  -0.818  53.907  1.00  0.00    -0.208 F 
HETATM    7  C16 UNL     1      25.015   0.937  52.796  1.00  0.00     0.295 C 
HETATM    8  F2  UNL     1      25.879   0.077  52.107  1.00  0.00    -0.236 F 
ENDROOT
BRANCH   1   9
HETATM    9  O1  UNL     1      25.717   2.914  51.595  1.00  0.00    -0.351 OA
BRANCH   9  10
HETATM   10  C4  UNL     1      26.196   2.867  50.336  1.00  0.00     0.175 C 
BRANCH  10  11
HETATM   11  C3  UNL     1      26.097   4.173  49.584  1.00  0.00     0.052 C 
BRANCH  11  12
HETATM   12  C2  UNL     1      27.363   4.495  48.878  1.00  0.00    -0.035 C 
HETATM   13  C1  UNL     1      27.810   5.641  48.414  1.00  0.00     0.007 C 
ENDBRANCH  11  12
ENDBRANCH  10  11
ENDBRANCH   9  10
ENDBRANCH   1   9
BRANCH   1  14
HETATM   14  C6  UNL     1      23.831   3.037  52.909  1.00  0.00     0.194 C 
BRANCH  14  15
HETATM   15  N1  UNL     1      24.292   4.423  52.756  1.00  0.00    -0.365 N 
HETATM   16  H10 UNL     1      25.145   4.900  53.109  1.00  0.00     0.161 HD
BRANCH  15  17
HETATM   17  C7  UNL     1      23.426   5.282  51.988  1.00  0.00     0.142 A 
HETATM   18  C8  UNL     1      22.158   5.023  51.755  1.00  0.00     0.058 A 
HETATM   19  C9  UNL     1      21.227   5.844  50.988  1.00  0.00     0.028 A 
HETATM   20  C10 UNL     1      21.428   7.009  50.392  1.00  0.00     0.035 A 
HETATM   21 CL1  UNL     1      20.072   7.699  49.562  1.00  0.00    -0.084 Cl
HETATM   22  C11 UNL     1      22.641   7.822  50.321  1.00  0.00     0.048 A 
HETATM   23  C12 UNL     1      23.815   7.516  50.843  1.00  0.00     0.146 A 
HETATM   24  O2  UNL     1      24.181   6.387  51.566  1.00  0.00    -0.306 OA
ENDBRANCH  15  17
ENDBRANCH  14  15
ENDBRANCH   1  14
TORSDOF 7
ENDMDL
MODEL 9
REMARK VINA RESULT:      -6.4      3.617      6.078
REMARK  7 active torsions:
REMARK  status: ('A' for Active; 'I' for Inactive)
REMARK    1  A    between atoms: C2_2  and  C3_3 
REMARK    2  A    between atoms: C3_3  and  C4_4 
REMARK    3  A    between atoms: C4_4  and  O1_5 
REMARK    4  A    between atoms: O1_5  and  C5_6 
REMARK    5  A    between atoms: C5_6  and  C6_7 
REMARK    6  A    between atoms: C6_7  and  N1_8 
REMARK    7  A    between atoms: N1_8  and  C7_9 
ROOT
HETATM    1  C5  UNL     1      25.585   1.226  53.213  1.00  0.00     0.218 C 
HETATM    2  O3  UNL     1      26.384   1.889  54.099  1.00  0.00    -0.347 OA
HETATM    3  C13 UNL     1      27.695   2.062  53.740  1.00  0.00     0.202 C 
HETATM    4  C14 UNL     1      28.376   0.807  53.367  1.00  0.00     0.040 C 
HETATM    5  C15 UNL     1      27.533  -0.185  53.107  1.00  0.00     0.131 C 
HETATM    6  F1  UNL     1      28.092  -1.375  52.756  1.00  0.00    -0.208 F 
HETATM    7  C16 UNL     1      26.045  -0.205  53.139  1.00  0.00     0.295 C 
HETATM    8  F2  UNL     1      25.728  -0.909  54.308  1.00  0.00    -0.236 F 
ENDROOT
BRANCH   1   9
HETATM    9  O1  UNL     1      24.265   1.409  53.400  1.00  0.00    -0.351 OA
BRANCH   9  10
HETATM   10  C4  UNL     1      23.355   0.629  52.780  1.00  0.00     0.175 C 
BRANCH  10  11
HETATM   11  C3  UNL     1      22.025   0.541  53.489  1.00  0.00     0.052 C 
BRANCH  11  12
HETATM   12  C2  UNL     1      22.026  -0.524  54.524  1.00  0.00    -0.035 C 
HETATM   13  C1  UNL     1      21.624  -1.775  54.457  1.00  0.00     0.007 C 
ENDBRANCH  11  12
ENDBRANCH  10  11
ENDBRANCH   9  10
ENDBRANCH   1   9
BRANCH   1  14
HETATM   14  C6  UNL     1      25.896   1.814  51.827  1.00  0.00     0.194 C 
BRANCH  14  15
HETATM   15  N1  UNL     1      25.583   3.249  51.865  1.00  0.00    -0.365 N 
HETATM   16  H10 UNL     1      25.806   3.976  52.572  1.00  0.00     0.161 HD
BRANCH  15  17
HETATM   17  C7  UNL     1      24.841   3.750  50.735  1.00  0.00     0.142 A 
HETATM   18  C8  UNL     1      25.004   4.952  50.228  1.00  0.00     0.058 A 
HETATM   19  C9  UNL     1      24.290   5.523  49.091  1.00  0.00     0.028 A 
HETATM   20  C10 UNL     1      23.365   4.975  48.318  1.00  0.00     0.035 A 
HETATM   21 CL1  UNL     1      22.732   5.966  47.045  1.00  0.00    -0.084 Cl
HETATM   22  C11 UNL     1      22.780   3.636  48.371  1.00  0.00     0.048 A 
HETATM   23  C12 UNL     1      23.066   2.697  49.255  1.00  0.00     0.146 A 
HETATM   24  O2  UNL     1      23.960   2.741  50.317  1.00  0.00    -0.306 OA
ENDBRANCH  15  17
ENDBRANCH  14  15
ENDBRANCH   1  14
TORSDOF 7
ENDMDL
