MODEL 1
REMARK VINA RESULT:      -8.5      0.000      0.000
REMARK  3 active torsions:
REMARK  status: ('A' for Active; 'I' for Inactive)
REMARK       I    between atoms: C3_3  and  N1_5 
REMARK    1  A    between atoms: N1_5  and  C4_6 
REMARK    2  A    between atoms: C7_9  and  N2_10 
REMARK    3  A    between atoms: N2_10  and  C8_11 
ROOT
HETATM    1  C1  UNL     1      30.161  -0.994  53.285  1.00  0.00     0.022 C 
HETATM    2  C2  UNL     1      28.976  -1.055  53.473  1.00  0.00    -0.016 C 
HETATM    3  C3  UNL     1      27.546  -1.108  53.716  1.00  0.00     0.301 C 
HETATM    4  O1  UNL     1      26.946  -2.044  53.103  1.00  0.00    -0.258 OA
HETATM    5  N1  UNL     1      26.859  -0.200  54.563  1.00  0.00    -0.301 N 
HETATM    6  H2  UNL     1      27.450   0.548  55.032  1.00  0.00     0.171 HD
ENDROOT
BRANCH   5   7
HETATM    7  C4  UNL     1      25.447  -0.488  54.618  1.00  0.00     0.131 A 
HETATM    8  C5  UNL     1      24.583  -0.082  53.636  1.00  0.00     0.068 A 
HETATM    9  C6  UNL     1      23.229  -0.317  53.616  1.00  0.00     0.044 A 
HETATM   10  C7  UNL     1      22.388   0.109  52.609  1.00  0.00     0.142 A 
HETATM   11  C15 UNL     1      22.795  -1.028  54.715  1.00  0.00     0.089 A 
HETATM   12  N3  UNL     1      21.119  -0.248  52.827  1.00  0.00    -0.224 NA
HETATM   13  C14 UNL     1      20.611  -0.920  53.833  1.00  0.00     0.236 A 
HETATM   14  N4  UNL     1      21.467  -1.318  54.798  1.00  0.00    -0.240 NA
HETATM   15  C16 UNL     1      23.630  -1.454  55.723  1.00  0.00     0.151 A 
HETATM   16  N5  UNL     1      24.947  -1.185  55.672  1.00  0.00    -0.241 NA
BRANCH  10  17
HETATM   17  N2  UNL     1      22.900   0.837  51.513  1.00  0.00    -0.340 N 
HETATM   18  H4  UNL     1      23.133   0.361  50.623  1.00  0.00     0.167 HD
BRANCH  17  19
HETATM   19  C8  UNL     1      23.162   2.201  51.432  1.00  0.00     0.033 A 
HETATM   20  C9  UNL     1      22.653   3.111  52.321  1.00  0.00     0.031 A 
HETATM   21  C10 UNL     1      22.885   4.467  52.291  1.00  0.00     0.021 A 
HETATM   22  C11 UNL     1      23.693   5.006  51.298  1.00  0.00     0.011 A 
HETATM   23 BR1  UNL     1      24.099   6.844  51.132  1.00  0.00    -0.051 Br
HETATM   24  C12 UNL     1      24.231   4.135  50.377  1.00  0.00     0.021 A 
HETATM   25  C13 UNL     1      23.953   2.791  50.473  1.00  0.00     0.031 A 
ENDBRANCH  17  19
ENDBRANCH  10  17
ENDBRANCH   5   7
TORSDOF 3
ENDMDL
MODEL 2
REMARK VINA RESULT:      -7.6      3.658      6.706
REMARK  3 active torsions:
REMARK  status: ('A' for Active; 'I' for Inactive)
REMARK       I    between atoms: C3_3  and  N1_5 
REMARK    1  A    between atoms: N1_5  and  C4_6 
REMARK    2  A    between atoms: C7_9  and  N2_10 
REMARK    3  A    between atoms: N2_10  and  C8_11 
ROOT
HETATM    1  C1  UNL     1      18.921   5.528  49.358  1.00  0.00     0.022 C 
HETATM    2  C2  UNL     1      19.166   4.588  50.065  1.00  0.00    -0.016 C 
HETATM    3  C3  UNL     1      19.470   3.439  50.899  1.00  0.00     0.301 C 
HETATM    4  O1  UNL     1      19.214   3.605  52.131  1.00  0.00    -0.258 OA
HETATM    5  N1  UNL     1      20.007   2.226  50.397  1.00  0.00    -0.301 N 
HETATM    6  H2  UNL     1      20.186   2.184  49.351  1.00  0.00     0.171 HD
ENDROOT
BRANCH   5   7
HETATM    7  C4  UNL     1      20.209   1.259  51.448  1.00  0.00     0.131 A 
HETATM    8  C5  UNL     1      21.443   1.022  51.993  1.00  0.00     0.068 A 
HETATM    9  C6  UNL     1      21.715   0.121  52.993  1.00  0.00     0.044 A 
HETATM   10  C7  UNL     1      22.973  -0.092  53.518  1.00  0.00     0.142 A 
HETATM   11  C15 UNL     1      20.592  -0.555  53.424  1.00  0.00     0.089 A 
HETATM   12  N3  UNL     1      22.969  -1.018  54.480  1.00  0.00    -0.224 NA
HETATM   13  C14 UNL     1      21.961  -1.711  54.955  1.00  0.00     0.236 A 
HETATM   14  N4  UNL     1      20.747  -1.474  54.415  1.00  0.00    -0.240 NA
HETATM   15  C16 UNL     1      19.335  -0.347  52.903  1.00  0.00     0.151 A 
HETATM   16  N5  UNL     1      19.147   0.555  51.922  1.00  0.00    -0.241 NA
BRANCH  10  17
HETATM   17  N2  UNL     1      24.082   0.633  53.027  1.00  0.00    -0.340 N 
HETATM   18  H4  UNL     1      23.946   1.502  52.480  1.00  0.00     0.167 HD
BRANCH  17  19
HETATM   19  C8  UNL     1      25.434   0.342  53.174  1.00  0.00     0.033 A 
HETATM   20  C9  UNL     1      26.012  -0.788  52.659  1.00  0.00     0.031 A 
HETATM   21  C10 UNL     1      27.343  -1.122  52.769  1.00  0.00     0.021 A 
HETATM   22  C11 UNL     1      28.211  -0.276  53.447  1.00  0.00     0.011 A 
HETATM   23 BR1  UNL     1      30.058  -0.602  53.677  1.00  0.00    -0.051 Br
HETATM   24  C12 UNL     1      27.682   0.877  53.985  1.00  0.00     0.021 A 
HETATM   25  C13 UNL     1      26.340   1.140  53.833  1.00  0.00     0.031 A 
ENDBRANCH  17  19
ENDBRANCH  10  17
ENDBRANCH   5   7
TORSDOF 3
ENDMDL
MODEL 3
REMARK VINA RESULT:      -7.5      4.217      7.078
REMARK  3 active torsions:
REMARK  status: ('A' for Active; 'I' for Inactive)
REMARK       I    between atoms: C3_3  and  N1_5 
REMARK    1  A    between atoms: N1_5  and  C4_6 
REMARK    2  A    between atoms: C7_9  and  N2_10 
REMARK    3  A    between atoms: N2_10  and  C8_11 
ROOT
HETATM    1  C1  UNL     1      27.678   9.346  49.801  1.00  0.00     0.022 C 
HETATM    2  C2  UNL     1      26.872   8.463  49.924  1.00  0.00    -0.016 C 
HETATM    3  C3  UNL     1      25.915   7.381  50.060  1.00  0.00     0.301 C 
HETATM    4  O1  UNL     1      24.823   7.715  50.612  1.00  0.00    -0.258 OA
HETATM    5  N1  UNL     1      26.162   6.054  49.619  1.00  0.00    -0.301 N 
HETATM    6  H2  UNL     1      27.107   5.874  49.168  1.00  0.00     0.171 HD
ENDROOT
BRANCH   5   7
HETATM    7  C4  UNL     1      25.039   5.189  49.882  1.00  0.00     0.131 A 
HETATM    8  C5  UNL     1      24.983   4.386  50.989  1.00  0.00     0.068 A 
HETATM    9  C6  UNL     1      23.951   3.537  51.309  1.00  0.00     0.044 A 
HETATM   10  C7  UNL     1      23.928   2.740  52.435  1.00  0.00     0.142 A 
HETATM   11  C15 UNL     1      22.931   3.563  50.381  1.00  0.00     0.089 A 
HETATM   12  N3  UNL     1      22.813   2.009  52.514  1.00  0.00    -0.224 NA
HETATM   13  C14 UNL     1      21.794   1.965  51.689  1.00  0.00     0.236 A 
HETATM   14  N4  UNL     1      21.854   2.759  50.599  1.00  0.00    -0.240 NA
HETATM   15  C16 UNL     1      22.948   4.355  49.256  1.00  0.00     0.151 A 
HETATM   16  N5  UNL     1      23.996   5.163  49.010  1.00  0.00    -0.241 NA
BRANCH  10  17
HETATM   17  N2  UNL     1      25.010   2.759  53.343  1.00  0.00    -0.340 N 
HETATM   18  H4  UNL     1      25.066   3.480  54.085  1.00  0.00     0.167 HD
BRANCH  17  19
HETATM   19  C8  UNL     1      26.099   1.896  53.404  1.00  0.00     0.033 A 
HETATM   20  C9  UNL     1      25.967   0.542  53.569  1.00  0.00     0.031 A 
HETATM   21  C10 UNL     1      27.007  -0.357  53.630  1.00  0.00     0.021 A 
HETATM   22  C11 UNL     1      28.316   0.096  53.521  1.00  0.00     0.011 A 
HETATM   23 BR1  UNL     1      29.840  -1.018  53.586  1.00  0.00    -0.051 Br
HETATM   24  C12 UNL     1      28.506   1.450  53.354  1.00  0.00     0.021 A 
HETATM   25  C13 UNL     1      27.414   2.285  53.302  1.00  0.00     0.031 A 
ENDBRANCH  17  19
ENDBRANCH  10  17
ENDBRANCH   5   7
TORSDOF 3
ENDMDL
MODEL 4
REMARK VINA RESULT:      -7.4      1.811      4.760
REMARK  3 active torsions:
REMARK  status: ('A' for Active; 'I' for Inactive)
REMARK       I    between atoms: C3_3  and  N1_5 
REMARK    1  A    between atoms: N1_5  and  C4_6 
REMARK    2  A    between atoms: C7_9  and  N2_10 
REMARK    3  A    between atoms: N2_10  and  C8_11 
ROOT
HETATM    1  C1  UNL     1      17.719  -0.491  52.474  1.00  0.00     0.022 C 
HETATM    2  C2  UNL     1      18.887  -0.514  52.759  1.00  0.00    -0.016 C 
HETATM    3  C3  UNL     1      20.290  -0.546  53.128  1.00  0.00     0.301 C 
HETATM    4  O1  UNL     1      21.089  -0.353  52.162  1.00  0.00    -0.258 OA
HETATM    5  N1  UNL     1      20.748  -0.770  54.452  1.00  0.00    -0.301 N 
HETATM    6  H2  UNL     1      20.001  -0.920  55.192  1.00  0.00     0.171 HD
ENDROOT
BRANCH   5   7
HETATM    7  C4  UNL     1      22.188  -0.749  54.527  1.00  0.00     0.131 A 
HETATM    8  C5  UNL     1      22.954  -0.076  53.613  1.00  0.00     0.068 A 
HETATM    9  C6  UNL     1      24.327  -0.009  53.616  1.00  0.00     0.044 A 
HETATM   10  C7  UNL     1      25.067   0.680  52.678  1.00  0.00     0.142 A 
HETATM   11  C15 UNL     1      24.893  -0.705  54.663  1.00  0.00     0.089 A 
HETATM   12  N3  UNL     1      26.380   0.590  52.905  1.00  0.00    -0.224 NA
HETATM   13  C14 UNL     1      27.010  -0.044  53.865  1.00  0.00     0.236 A 
HETATM   14  N4  UNL     1      26.251  -0.706  54.763  1.00  0.00    -0.240 NA
HETATM   15  C16 UNL     1      24.159  -1.395  55.601  1.00  0.00     0.151 A 
HETATM   16  N5  UNL     1      22.816  -1.415  55.532  1.00  0.00    -0.241 NA
BRANCH  10  17
HETATM   17  N2  UNL     1      24.422   1.370  51.628  1.00  0.00    -0.340 N 
HETATM   18  H4  UNL     1      23.956   0.852  50.861  1.00  0.00     0.167 HD
BRANCH  17  19
HETATM   19  C8  UNL     1      24.303   2.744  51.445  1.00  0.00     0.033 A 
HETATM   20  C9  UNL     1      23.691   3.565  52.355  1.00  0.00     0.031 A 
HETATM   21  C10 UNL     1      23.551   4.929  52.228  1.00  0.00     0.021 A 
HETATM   22  C11 UNL     1      24.053   5.571  51.103  1.00  0.00     0.011 A 
HETATM   23 BR1  UNL     1      23.935   7.430  50.793  1.00  0.00    -0.051 Br
HETATM   24  C12 UNL     1      24.679   4.791  50.155  1.00  0.00     0.021 A 
HETATM   25  C13 UNL     1      24.779   3.434  50.354  1.00  0.00     0.031 A 
ENDBRANCH  17  19
ENDBRANCH  10  17
ENDBRANCH   5   7
TORSDOF 3
ENDMDL
MODEL 5
REMARK VINA RESULT:      -7.4      2.887      5.320
REMARK  3 active torsions:
REMARK  status: ('A' for Active; 'I' for Inactive)
REMARK       I    between atoms: C3_3  and  N1_5 
REMARK    1  A    between atoms: N1_5  and  C4_6 
REMARK    2  A    between atoms: C7_9  and  N2_10 
REMARK    3  A    between atoms: N2_10  and  C8_11 
ROOT
HETATM    1  C1  UNL     1      27.062   4.933  48.917  1.00  0.00     0.022 C 
HETATM    2  C2  UNL     1      26.118   4.416  49.453  1.00  0.00    -0.016 C 
HETATM    3  C3  UNL     1      24.988   3.799  50.122  1.00  0.00     0.301 C 
HETATM    4  O1  UNL     1      24.149   3.258  49.340  1.00  0.00    -0.258 OA
HETATM    5  N1  UNL     1      24.820   3.790  51.531  1.00  0.00    -0.301 N 
HETATM    6  H2  UNL     1      25.578   4.268  52.101  1.00  0.00     0.171 HD
ENDROOT
BRANCH   5   7
HETATM    7  C4  UNL     1      23.610   3.107  51.918  1.00  0.00     0.131 A 
HETATM    8  C5  UNL     1      23.603   1.787  52.283  1.00  0.00     0.068 A 
HETATM    9  C6  UNL     1      22.495   1.069  52.663  1.00  0.00     0.044 A 
HETATM   10  C7  UNL     1      22.526  -0.262  53.025  1.00  0.00     0.142 A 
HETATM   11  C15 UNL     1      21.339   1.821  52.645  1.00  0.00     0.089 A 
HETATM   12  N3  UNL     1      21.317  -0.725  53.352  1.00  0.00    -0.224 NA
HETATM   13  C14 UNL     1      20.167  -0.092  53.366  1.00  0.00     0.236 A 
HETATM   14  N4  UNL     1      20.179   1.208  53.005  1.00  0.00    -0.240 NA
HETATM   15  C16 UNL     1      21.303   3.149  52.284  1.00  0.00     0.151 A 
HETATM   16  N5  UNL     1      22.432   3.786  51.924  1.00  0.00    -0.241 NA
BRANCH  10  17
HETATM   17  N2  UNL     1      23.745  -0.974  53.016  1.00  0.00    -0.340 N 
HETATM   18  H4  UNL     1      23.771  -1.977  52.756  1.00  0.00     0.167 HD
BRANCH  17  19
HETATM   19  C8  UNL     1      25.018  -0.508  53.327  1.00  0.00     0.033 A 
HETATM   20  C9  UNL     1      25.989  -0.309  52.381  1.00  0.00     0.031 A 
HETATM   21  C10 UNL     1      27.260   0.156  52.631  1.00  0.00     0.021 A 
HETATM   22  C11 UNL     1      27.638   0.461  53.933  1.00  0.00     0.011 A 
HETATM   23 BR1  UNL     1      29.344   1.107  54.426  1.00  0.00    -0.051 Br
HETATM   24  C12 UNL     1      26.699   0.280  54.924  1.00  0.00     0.021 A 
HETATM   25  C13 UNL     1      25.449  -0.189  54.594  1.00  0.00     0.031 A 
ENDBRANCH  17  19
ENDBRANCH  10  17
ENDBRANCH   5   7
TORSDOF 3
ENDMDL
MODEL 6
REMARK VINA RESULT:      -7.4      3.609      6.453
REMARK  3 active torsions:
REMARK  status: ('A' for Active; 'I' for Inactive)
REMARK       I    between atoms: C3_3  and  N1_5 
REMARK    1  A    between atoms: N1_5  and  C4_6 
REMARK    2  A    between atoms: C7_9  and  N2_10 
REMARK    3  A    between atoms: N2_10  and  C8_11 
ROOT
HETATM    1  C1  UNL     1      26.471   7.481  48.448  1.00  0.00     0.022 C 
HETATM    2  C2  UNL     1      25.736   6.576  48.741  1.00  0.00    -0.016 C 
HETATM    3  C3  UNL     1      24.867   5.467  49.088  1.00  0.00     0.301 C 
HETATM    4  O1  UNL     1      23.721   5.813  49.511  1.00  0.00    -0.258 OA
HETATM    5  N1  UNL     1      25.247   4.105  48.970  1.00  0.00    -0.301 N 
HETATM    6  H2  UNL     1      26.227   3.918  48.606  1.00  0.00     0.171 HD
ENDROOT
BRANCH   5   7
HETATM    7  C4  UNL     1      24.188   3.219  49.385  1.00  0.00     0.131 A 
HETATM    8  C5  UNL     1      24.161   2.648  50.629  1.00  0.00     0.068 A 
HETATM    9  C6  UNL     1      23.189   1.797  51.097  1.00  0.00     0.044 A 
HETATM   10  C7  UNL     1      23.195   1.239  52.359  1.00  0.00     0.142 A 
HETATM   11  C15 UNL     1      22.199   1.556  50.169  1.00  0.00     0.089 A 
HETATM   12  N3  UNL     1      22.139   0.449  52.567  1.00  0.00    -0.224 NA
HETATM   13  C14 UNL     1      21.152   0.159  51.753  1.00  0.00     0.236 A 
HETATM   14  N4  UNL     1      21.182   0.724  50.527  1.00  0.00    -0.240 NA
HETATM   15  C16 UNL     1      22.188   2.109  48.908  1.00  0.00     0.151 A 
HETATM   16  N5  UNL     1      23.177   2.935  48.521  1.00  0.00    -0.241 NA
BRANCH  10  17
HETATM   17  N2  UNL     1      24.244   1.527  53.260  1.00  0.00    -0.340 N 
HETATM   18  H4  UNL     1      24.132   2.254  53.990  1.00  0.00     0.167 HD
BRANCH  17  19
HETATM   19  C8  UNL     1      25.505   0.943  53.329  1.00  0.00     0.033 A 
HETATM   20  C9  UNL     1      26.556   1.518  53.993  1.00  0.00     0.031 A 
HETATM   21  C10 UNL     1      27.819   0.983  54.098  1.00  0.00     0.021 A 
HETATM   22  C11 UNL     1      28.103  -0.237  53.498  1.00  0.00     0.011 A 
HETATM   23 BR1  UNL     1      29.786  -1.092  53.558  1.00  0.00    -0.051 Br
HETATM   24  C12 UNL     1      27.080  -0.860  52.816  1.00  0.00     0.021 A 
HETATM   25  C13 UNL     1      25.844  -0.261  52.756  1.00  0.00     0.031 A 
ENDBRANCH  17  19
ENDBRANCH  10  17
ENDBRANCH   5   7
TORSDOF 3
ENDMDL
MODEL 7
REMARK VINA RESULT:      -7.4      2.532      4.065
REMARK  3 active torsions:
REMARK  status: ('A' for Active; 'I' for Inactive)
REMARK       I    between atoms: C3_3  and  N1_5 
REMARK    1  A    between atoms: N1_5  and  C4_6 
REMARK    2  A    between atoms: C7_9  and  N2_10 
REMARK    3  A    between atoms: N2_10  and  C8_11 
ROOT
HETATM    1  C1  UNL     1      26.493   4.552  49.097  1.00  0.00     0.022 C 
HETATM    2  C2  UNL     1      26.271   3.807  50.014  1.00  0.00    -0.016 C 
HETATM    3  C3  UNL     1      26.018   2.890  51.110  1.00  0.00     0.301 C 
HETATM    4  O1  UNL     1      25.162   3.303  51.950  1.00  0.00    -0.258 OA
HETATM    5  N1  UNL     1      26.664   1.634  51.247  1.00  0.00    -0.301 N 
HETATM    6  H2  UNL     1      27.364   1.377  50.491  1.00  0.00     0.171 HD
ENDROOT
BRANCH   5   7
HETATM    7  C4  UNL     1      26.221   0.935  52.429  1.00  0.00     0.131 A 
HETATM    8  C5  UNL     1      24.971   0.384  52.523  1.00  0.00     0.068 A 
HETATM    9  C6  UNL     1      24.477  -0.295  53.610  1.00  0.00     0.044 A 
HETATM   10  C7  UNL     1      23.210  -0.837  53.670  1.00  0.00     0.142 A 
HETATM   11  C15 UNL     1      25.385  -0.380  54.645  1.00  0.00     0.089 A 
HETATM   12  N3  UNL     1      22.975  -1.446  54.835  1.00  0.00    -0.224 NA
HETATM   13  C14 UNL     1      23.769  -1.578  55.872  1.00  0.00     0.236 A 
HETATM   14  N4  UNL     1      25.000  -1.033  55.774  1.00  0.00    -0.240 NA
HETATM   15  C16 UNL     1      26.650   0.161  54.591  1.00  0.00     0.151 A 
HETATM   16  N5  UNL     1      27.063   0.813  53.489  1.00  0.00    -0.241 NA
BRANCH  10  17
HETATM   17  N2  UNL     1      22.328  -0.710  52.574  1.00  0.00    -0.340 N 
HETATM   18  H4  UNL     1      22.109  -1.525  51.973  1.00  0.00     0.167 HD
BRANCH  17  19
HETATM   19  C8  UNL     1      21.653   0.425  52.139  1.00  0.00     0.033 A 
HETATM   20  C9  UNL     1      21.476   0.723  50.813  1.00  0.00     0.031 A 
HETATM   21  C10 UNL     1      20.813   1.827  50.327  1.00  0.00     0.021 A 
HETATM   22  C11 UNL     1      20.261   2.744  51.213  1.00  0.00     0.011 A 
HETATM   23 BR1  UNL     1      19.325   4.300  50.693  1.00  0.00    -0.051 Br
HETATM   24  C12 UNL     1      20.410   2.493  52.560  1.00  0.00     0.021 A 
HETATM   25  C13 UNL     1      21.086   1.366  52.967  1.00  0.00     0.031 A 
ENDBRANCH  17  19
ENDBRANCH  10  17
ENDBRANCH   5   7
TORSDOF 3
ENDMDL
MODEL 8
REMARK VINA RESULT:      -7.2      3.882      6.746
REMARK  3 active torsions:
REMARK  status: ('A' for Active; 'I' for Inactive)
REMARK       I    between atoms: C3_3  and  N1_5 
REMARK    1  A    between atoms: N1_5  and  C4_6 
REMARK    2  A    between atoms: C7_9  and  N2_10 
REMARK    3  A    between atoms: N2_10  and  C8_11 
ROOT
HETATM    1  C1  UNL     1      20.677   4.343  45.874  1.00  0.00     0.022 C 
HETATM    2  C2  UNL     1      20.648   3.760  46.924  1.00  0.00    -0.016 C 
HETATM    3  C3  UNL     1      20.616   3.033  48.180  1.00  0.00     0.301 C 
HETATM    4  O1  UNL     1      20.484   3.768  49.206  1.00  0.00    -0.258 OA
HETATM    5  N1  UNL     1      20.720   1.621  48.273  1.00  0.00    -0.301 N 
HETATM    6  H2  UNL     1      20.826   1.094  47.357  1.00  0.00     0.171 HD
ENDROOT
BRANCH   5   7
HETATM    7  C4  UNL     1      20.658   1.172  49.642  1.00  0.00     0.131 A 
HETATM    8  C5  UNL     1      21.767   1.130  50.445  1.00  0.00     0.068 A 
HETATM    9  C6  UNL     1      21.790   0.716  51.755  1.00  0.00     0.044 A 
HETATM   10  C7  UNL     1      22.927   0.686  52.535  1.00  0.00     0.142 A 
HETATM   11  C15 UNL     1      20.548   0.332  52.215  1.00  0.00     0.089 A 
HETATM   12  N3  UNL     1      22.681   0.246  53.771  1.00  0.00    -0.224 NA
HETATM   13  C14 UNL     1      21.543  -0.140  54.299  1.00  0.00     0.236 A 
HETATM   14  N4  UNL     1      20.454  -0.097  53.503  1.00  0.00    -0.240 NA
HETATM   15  C16 UNL     1      19.410   0.359  51.441  1.00  0.00     0.151 A 
HETATM   16  N5  UNL     1      19.467   0.777  50.163  1.00  0.00    -0.241 NA
BRANCH  10  17
HETATM   17  N2  UNL     1      24.169   1.091  51.998  1.00  0.00    -0.340 N 
HETATM   18  H4  UNL     1      24.214   1.779  51.224  1.00  0.00     0.167 HD
BRANCH  17  19
HETATM   19  C8  UNL     1      25.445   0.681  52.373  1.00  0.00     0.033 A 
HETATM   20  C9  UNL     1      26.426   1.558  52.754  1.00  0.00     0.031 A 
HETATM   21  C10 UNL     1      27.700   1.207  53.138  1.00  0.00     0.021 A 
HETATM   22  C11 UNL     1      28.070  -0.132  53.159  1.00  0.00     0.011 A 
HETATM   23 BR1  UNL     1      29.778  -0.761  53.664  1.00  0.00    -0.051 Br
HETATM   24  C12 UNL     1      27.120  -1.057  52.785  1.00  0.00     0.021 A 
HETATM   25  C13 UNL     1      25.867  -0.627  52.413  1.00  0.00     0.031 A 
ENDBRANCH  17  19
ENDBRANCH  10  17
ENDBRANCH   5   7
TORSDOF 3
ENDMDL
MODEL 9
REMARK VINA RESULT:      -7.2      4.085      6.451
REMARK  3 active torsions:
REMARK  status: ('A' for Active; 'I' for Inactive)
REMARK       I    between atoms: C3_3  and  N1_5 
REMARK    1  A    between atoms: N1_5  and  C4_6 
REMARK    2  A    between atoms: C7_9  and  N2_10 
REMARK    3  A    between atoms: N2_10  and  C8_11 
ROOT
HETATM    1  C1  UNL     1      25.708  -0.491  53.068  1.00  0.00     0.022 C 
HETATM    2  C2  UNL     1      25.052   0.445  52.697  1.00  0.00    -0.016 C 
HETATM    3  C3  UNL     1      24.263   1.587  52.273  1.00  0.00     0.301 C 
HETATM    4  O1  UNL     1      23.824   1.507  51.085  1.00  0.00    -0.258 OA
HETATM    5  N1  UNL     1      23.994   2.707  53.102  1.00  0.00    -0.301 N 
HETATM    6  H2  UNL     1      24.405   2.680  54.081  1.00  0.00     0.171 HD
ENDROOT
BRANCH   5   7
HETATM    7  C4  UNL     1      23.187   3.690  52.422  1.00  0.00     0.131 A 
HETATM    8  C5  UNL     1      23.707   4.876  51.977  1.00  0.00     0.068 A 
HETATM    9  C6  UNL     1      23.006   5.860  51.323  1.00  0.00     0.044 A 
HETATM   10  C7  UNL     1      23.564   7.045  50.888  1.00  0.00     0.142 A 
HETATM   11  C15 UNL     1      21.677   5.539  51.143  1.00  0.00     0.089 A 
HETATM   12  N3  UNL     1      22.671   7.830  50.280  1.00  0.00    -0.224 NA
HETATM   13  C14 UNL     1      21.395   7.616  50.063  1.00  0.00     0.236 A 
HETATM   14  N4  UNL     1      20.887   6.445  50.504  1.00  0.00    -0.240 NA
HETATM   15  C16 UNL     1      21.115   4.359  51.576  1.00  0.00     0.151 A 
HETATM   16  N5  UNL     1      21.868   3.442  52.210  1.00  0.00    -0.241 NA
BRANCH  10  17
HETATM   17  N2  UNL     1      24.933   7.311  51.108  1.00  0.00    -0.340 N 
HETATM   18  H4  UNL     1      25.290   7.494  52.064  1.00  0.00     0.167 HD
BRANCH  17  19
HETATM   19  C8  UNL     1      25.960   7.372  50.173  1.00  0.00     0.033 A 
HETATM   20  C9  UNL     1      26.795   8.452  50.054  1.00  0.00     0.031 A 
HETATM   21  C10 UNL     1      27.828   8.563  49.152  1.00  0.00     0.021 A 
HETATM   22  C11 UNL     1      28.087   7.522  48.269  1.00  0.00     0.011 A 
HETATM   23 BR1  UNL     1      29.469   7.533  46.980  1.00  0.00    -0.051 Br
HETATM   24  C12 UNL     1      27.277   6.410  48.345  1.00  0.00     0.021 A 
HETATM   25  C13 UNL     1      26.263   6.375  49.275  1.00  0.00     0.031 A 
ENDBRANCH  17  19
ENDBRANCH  10  17
ENDBRANCH   5   7
TORSDOF 3
ENDMDL
