MODEL 1
REMARK VINA RESULT:      -7.7      0.000      0.000
REMARK  8 active torsions:
REMARK  status: ('A' for Active; 'I' for Inactive)
REMARK    1  A    between atoms: C2_2  and  C3_3 
REMARK       I    between atoms: C3_3  and  N1_5 
REMARK    2  A    between atoms: N1_5  and  C4_6 
REMARK    3  A    between atoms: C5_7  and  C6_8 
REMARK    4  A    between atoms: N2_9  and  C7_10 
REMARK    5  A    between atoms: N3_11  and  C8_12 
REMARK    6  A    between atoms: C8_12  and  N4_13 
REMARK    7  A    between atoms: N4_13  and  C9_14 
REMARK    8  A    between atoms: C13_18  and  C14_19 
ROOT
HETATM    1  C8  UNL     1      25.950   2.778  53.389  1.00  0.00     0.270 C 
ENDROOT
BRANCH   1   2
HETATM    2  N3  UNL     1      27.014   2.164  54.161  1.00  0.00    -0.272 NA
HETATM    3  C7  UNL     1      28.245   2.260  53.731  1.00  0.00     0.168 C 
BRANCH   3   4
HETATM    4  N2  UNL     1      28.699   1.509  54.863  1.00  0.00    -0.278 NA
HETATM    5  C6  UNL     1      29.183   0.337  54.617  1.00  0.00     0.218 C 
BRANCH   5   6
HETATM    6  C5  UNL     1      29.413  -0.496  53.417  1.00  0.00     0.030 C 
HETATM    7  C4  UNL     1      28.403  -1.279  53.037  1.00  0.00     0.092 C 
BRANCH   7   8
HETATM    8  N1  UNL     1      27.276  -1.147  53.894  1.00  0.00    -0.337 N 
HETATM    9  C3  UNL     1      26.021  -0.774  53.328  1.00  0.00     0.221 C 
HETATM   10  O1  UNL     1      25.785  -0.542  52.129  1.00  0.00    -0.273 OA
HETATM   11  H6  UNL     1      27.398  -1.326  54.904  1.00  0.00     0.168 HD
BRANCH   9  12
HETATM   12  C2  UNL     1      24.890  -0.657  54.285  1.00  0.00     0.098 C 
HETATM   13  C1  UNL     1      23.606  -0.275  53.580  1.00  0.00     0.014 C 
ENDBRANCH   9  12
ENDBRANCH   7   8
ENDBRANCH   5   6
ENDBRANCH   3   4
ENDBRANCH   1   2
BRANCH   1  14
HETATM   14  N4  UNL     1      26.337   2.715  51.996  1.00  0.00    -0.374 N 
HETATM   15  H13 UNL     1      27.332   2.522  51.676  1.00  0.00     0.161 HD
BRANCH  14  16
HETATM   16  C9  UNL     1      25.321   2.924  51.030  1.00  0.00     0.018 A 
HETATM   17  C10 UNL     1      24.096   2.896  51.564  1.00  0.00     0.025 A 
HETATM   18  C11 UNL     1      23.124   3.120  50.495  1.00  0.00    -0.001 A 
HETATM   19  C12 UNL     1      23.783   3.279  49.345  1.00  0.00    -0.011 A 
HETATM   20  C13 UNL     1      25.244   3.169  49.579  1.00  0.00     0.090 A 
BRANCH  20  21
HETATM   21  C14 UNL     1      25.964   4.391  49.145  1.00  0.00    -0.045 A 
HETATM   22  C15 UNL     1      27.322   4.380  48.892  1.00  0.00     0.008 A 
HETATM   23  C16 UNL     1      28.043   5.490  48.484  1.00  0.00     0.001 A 
HETATM   24  C17 UNL     1      27.349   6.683  48.322  1.00  0.00     0.000 A 
HETATM   25  C18 UNL     1      25.982   6.757  48.562  1.00  0.00     0.001 A 
HETATM   26  C19 UNL     1      25.353   5.615  48.960  1.00  0.00     0.008 A 
ENDBRANCH  20  21
ENDBRANCH  14  16
ENDBRANCH   1  14
TORSDOF 8
ENDMDL
MODEL 2
REMARK VINA RESULT:      -7.5      1.105      3.249
REMARK  8 active torsions:
REMARK  status: ('A' for Active; 'I' for Inactive)
REMARK    1  A    between atoms: C2_2  and  C3_3 
REMARK       I    between atoms: C3_3  and  N1_5 
REMARK    2  A    between atoms: N1_5  and  C4_6 
REMARK    3  A    between atoms: C5_7  and  C6_8 
REMARK    4  A    between atoms: N2_9  and  C7_10 
REMARK    5  A    between atoms: N3_11  and  C8_12 
REMARK    6  A    between atoms: C8_12  and  N4_13 
REMARK    7  A    between atoms: N4_13  and  C9_14 
REMARK    8  A    between atoms: C13_18  and  C14_19 
ROOT
HETATM    1  C8  UNL     1      25.990   2.770  53.181  1.00  0.00     0.270 C 
ENDROOT
BRANCH   1   2
HETATM    2  N3  UNL     1      27.033   2.188  54.004  1.00  0.00    -0.272 NA
HETATM    3  C7  UNL     1      28.282   2.342  53.647  1.00  0.00     0.168 C 
BRANCH   3   4
HETATM    4  N2  UNL     1      28.703   1.592  54.792  1.00  0.00    -0.278 NA
HETATM    5  C6  UNL     1      29.119   0.390  54.570  1.00  0.00     0.218 C 
BRANCH   5   6
HETATM    6  C5  UNL     1      29.294  -0.480  53.387  1.00  0.00     0.030 C 
HETATM    7  C4  UNL     1      28.260  -1.260  53.067  1.00  0.00     0.092 C 
BRANCH   7   8
HETATM    8  N1  UNL     1      27.167  -1.088  53.961  1.00  0.00    -0.337 N 
HETATM    9  C3  UNL     1      25.883  -0.774  53.425  1.00  0.00     0.221 C 
HETATM   10  O1  UNL     1      25.593  -0.626  52.225  1.00  0.00    -0.273 OA
HETATM   11  H6  UNL     1      27.334  -1.196  54.974  1.00  0.00     0.168 HD
BRANCH   9  12
HETATM   12  C2  UNL     1      24.791  -0.610  54.420  1.00  0.00     0.098 C 
HETATM   13  C1  UNL     1      23.434  -0.587  53.752  1.00  0.00     0.014 C 
ENDBRANCH   9  12
ENDBRANCH   7   8
ENDBRANCH   5   6
ENDBRANCH   3   4
ENDBRANCH   1   2
BRANCH   1  14
HETATM   14  N4  UNL     1      26.262   2.394  51.811  1.00  0.00    -0.374 N 
HETATM   15  H13 UNL     1      26.781   1.506  51.542  1.00  0.00     0.161 HD
BRANCH  14  16
HETATM   16  C9  UNL     1      25.804   3.270  50.794  1.00  0.00     0.018 A 
HETATM   17  C10 UNL     1      26.791   3.682  49.992  1.00  0.00     0.025 A 
HETATM   18  C11 UNL     1      26.220   4.575  48.985  1.00  0.00    -0.001 A 
HETATM   19  C12 UNL     1      24.907   4.680  49.201  1.00  0.00    -0.011 A 
HETATM   20  C13 UNL     1      24.520   3.858  50.374  1.00  0.00     0.090 A 
BRANCH  20  21
HETATM   21  C14 UNL     1      23.492   2.848  50.022  1.00  0.00    -0.045 A 
HETATM   22  C15 UNL     1      23.050   2.685  48.724  1.00  0.00     0.008 A 
HETATM   23  C16 UNL     1      22.095   1.758  48.341  1.00  0.00     0.001 A 
HETATM   24  C17 UNL     1      21.553   0.947  49.331  1.00  0.00     0.000 A 
HETATM   25  C18 UNL     1      21.956   1.065  50.655  1.00  0.00     0.001 A 
HETATM   26  C19 UNL     1      22.902   2.003  50.942  1.00  0.00     0.008 A 
ENDBRANCH  20  21
ENDBRANCH  14  16
ENDBRANCH   1  14
TORSDOF 8
ENDMDL
MODEL 3
REMARK VINA RESULT:      -7.4      2.231      5.470
REMARK  8 active torsions:
REMARK  status: ('A' for Active; 'I' for Inactive)
REMARK    1  A    between atoms: C2_2  and  C3_3 
REMARK       I    between atoms: C3_3  and  N1_5 
REMARK    2  A    between atoms: N1_5  and  C4_6 
REMARK    3  A    between atoms: C5_7  and  C6_8 
REMARK    4  A    between atoms: N2_9  and  C7_10 
REMARK    5  A    between atoms: N3_11  and  C8_12 
REMARK    6  A    between atoms: C8_12  and  N4_13 
REMARK    7  A    between atoms: N4_13  and  C9_14 
REMARK    8  A    between atoms: C13_18  and  C14_19 
ROOT
HETATM    1  C8  UNL     1      24.843   3.053  50.262  1.00  0.00     0.270 C 
ENDROOT
BRANCH   1   2
HETATM    2  N3  UNL     1      25.988   2.893  51.137  1.00  0.00    -0.272 NA
HETATM    3  C7  UNL     1      26.502   1.701  51.297  1.00  0.00     0.168 C 
BRANCH   3   4
HETATM    4  N2  UNL     1      27.484   2.244  52.188  1.00  0.00    -0.278 NA
HETATM    5  C6  UNL     1      27.265   2.083  53.450  1.00  0.00     0.218 C 
BRANCH   5   6
HETATM    6  C5  UNL     1      26.216   1.455  54.283  1.00  0.00     0.030 C 
HETATM    7  C4  UNL     1      26.493   0.246  54.772  1.00  0.00     0.092 C 
BRANCH   7   8
HETATM    8  N1  UNL     1      27.783  -0.205  54.379  1.00  0.00    -0.337 N 
HETATM    9  C3  UNL     1      27.883  -1.334  53.513  1.00  0.00     0.221 C 
HETATM   10  O1  UNL     1      26.941  -1.997  53.042  1.00  0.00    -0.273 OA
HETATM   11  H6  UNL     1      28.612   0.299  54.732  1.00  0.00     0.168 HD
BRANCH   9  12
HETATM   12  C2  UNL     1      29.262  -1.746  53.145  1.00  0.00     0.098 C 
HETATM   13  C1  UNL     1      30.290  -0.767  53.672  1.00  0.00     0.014 C 
ENDBRANCH   9  12
ENDBRANCH   7   8
ENDBRANCH   5   6
ENDBRANCH   3   4
ENDBRANCH   1   2
BRANCH   1  14
HETATM   14  N4  UNL     1      23.664   3.099  51.100  1.00  0.00    -0.374 N 
HETATM   15  H13 UNL     1      23.583   3.721  51.959  1.00  0.00     0.161 HD
BRANCH  14  16
HETATM   16  C9  UNL     1      22.576   2.265  50.736  1.00  0.00     0.018 A 
HETATM   17  C10 UNL     1      22.625   1.893  49.453  1.00  0.00     0.025 A 
HETATM   18  C11 UNL     1      21.468   1.043  49.178  1.00  0.00    -0.001 A 
HETATM   19  C12 UNL     1      20.752   0.919  50.298  1.00  0.00    -0.011 A 
HETATM   20  C13 UNL     1      21.391   1.687  51.395  1.00  0.00     0.090 A 
BRANCH  20  21
HETATM   21  C14 UNL     1      21.720   0.822  52.553  1.00  0.00    -0.045 A 
HETATM   22  C15 UNL     1      20.856   0.684  53.623  1.00  0.00     0.008 A 
HETATM   23  C16 UNL     1      21.112  -0.111  54.728  1.00  0.00     0.001 A 
HETATM   24  C17 UNL     1      22.314  -0.808  54.753  1.00  0.00     0.000 A 
HETATM   25  C18 UNL     1      23.224  -0.709  53.708  1.00  0.00     0.001 A 
HETATM   26  C19 UNL     1      22.889   0.096  52.660  1.00  0.00     0.008 A 
ENDBRANCH  20  21
ENDBRANCH  14  16
ENDBRANCH   1  14
TORSDOF 8
ENDMDL
MODEL 4
REMARK VINA RESULT:      -7.1      1.954      3.638
REMARK  8 active torsions:
REMARK  status: ('A' for Active; 'I' for Inactive)
REMARK    1  A    between atoms: C2_2  and  C3_3 
REMARK       I    between atoms: C3_3  and  N1_5 
REMARK    2  A    between atoms: N1_5  and  C4_6 
REMARK    3  A    between atoms: C5_7  and  C6_8 
REMARK    4  A    between atoms: N2_9  and  C7_10 
REMARK    5  A    between atoms: N3_11  and  C8_12 
REMARK    6  A    between atoms: C8_12  and  N4_13 
REMARK    7  A    between atoms: N4_13  and  C9_14 
REMARK    8  A    between atoms: C13_18  and  C14_19 
ROOT
HETATM    1  C8  UNL     1      23.176   4.695  52.302  1.00  0.00     0.270 C 
ENDROOT
BRANCH   1   2
HETATM    2  N3  UNL     1      24.028   3.565  51.987  1.00  0.00    -0.272 NA
HETATM    3  C7  UNL     1      24.469   2.813  52.962  1.00  0.00     0.168 C 
BRANCH   3   4
HETATM    4  N2  UNL     1      25.163   1.992  52.016  1.00  0.00    -0.278 NA
HETATM    5  C6  UNL     1      25.277   0.741  52.316  1.00  0.00     0.218 C 
BRANCH   5   6
HETATM    6  C5  UNL     1      24.863  -0.133  53.435  1.00  0.00     0.030 C 
HETATM    7  C4  UNL     1      25.675  -0.167  54.492  1.00  0.00     0.092 C 
BRANCH   7   8
HETATM    8  N1  UNL     1      26.810   0.673  54.319  1.00  0.00    -0.337 N 
HETATM    9  C3  UNL     1      28.092   0.072  54.154  1.00  0.00     0.221 C 
HETATM   10  O1  UNL     1      28.348  -1.146  54.142  1.00  0.00    -0.273 OA
HETATM   11  H6  UNL     1      26.672   1.697  54.318  1.00  0.00     0.168 HD
BRANCH   9  12
HETATM   12  C2  UNL     1      29.228   1.013  53.978  1.00  0.00     0.098 C 
HETATM   13  C1  UNL     1      28.745   2.407  53.640  1.00  0.00     0.014 C 
ENDBRANCH   9  12
ENDBRANCH   7   8
ENDBRANCH   5   6
ENDBRANCH   3   4
ENDBRANCH   1   2
BRANCH   1  14
HETATM   14  N4  UNL     1      23.934   5.896  52.023  1.00  0.00    -0.374 N 
HETATM   15  H13 UNL     1      24.603   6.339  52.721  1.00  0.00     0.161 HD
BRANCH  14  16
HETATM   16  C9  UNL     1      23.757   6.493  50.749  1.00  0.00     0.018 A 
HETATM   17  C10 UNL     1      23.237   7.722  50.829  1.00  0.00     0.025 A 
HETATM   18  C11 UNL     1      23.094   8.248  49.472  1.00  0.00    -0.001 A 
HETATM   19  C12 UNL     1      23.532   7.329  48.608  1.00  0.00    -0.011 A 
HETATM   20  C13 UNL     1      23.995   6.125  49.342  1.00  0.00     0.090 A 
BRANCH  20  21
HETATM   21  C14 UNL     1      25.413   5.810  49.043  1.00  0.00    -0.045 A 
HETATM   22  C15 UNL     1      25.948   4.563  49.303  1.00  0.00     0.008 A 
HETATM   23  C16 UNL     1      27.264   4.216  49.042  1.00  0.00     0.001 A 
HETATM   24  C17 UNL     1      28.087   5.187  48.487  1.00  0.00     0.000 A 
HETATM   25  C18 UNL     1      27.606   6.460  48.203  1.00  0.00     0.001 A 
HETATM   26  C19 UNL     1      26.299   6.714  48.492  1.00  0.00     0.008 A 
ENDBRANCH  20  21
ENDBRANCH  14  16
ENDBRANCH   1  14
TORSDOF 8
ENDMDL
MODEL 5
REMARK VINA RESULT:      -7.1      2.126      2.582
REMARK  8 active torsions:
REMARK  status: ('A' for Active; 'I' for Inactive)
REMARK    1  A    between atoms: C2_2  and  C3_3 
REMARK       I    between atoms: C3_3  and  N1_5 
REMARK    2  A    between atoms: N1_5  and  C4_6 
REMARK    3  A    between atoms: C5_7  and  C6_8 
REMARK    4  A    between atoms: N2_9  and  C7_10 
REMARK    5  A    between atoms: N3_11  and  C8_12 
REMARK    6  A    between atoms: C8_12  and  N4_13 
REMARK    7  A    between atoms: N4_13  and  C9_14 
REMARK    8  A    between atoms: C13_18  and  C14_19 
ROOT
HETATM    1  C8  UNL     1      24.129   3.453  53.105  1.00  0.00     0.270 C 
ENDROOT
BRANCH   1   2
HETATM    2  N3  UNL     1      24.747   2.285  52.508  1.00  0.00    -0.272 NA
HETATM    3  C7  UNL     1      26.034   2.104  52.655  1.00  0.00     0.168 C 
BRANCH   3   4
HETATM    4  N2  UNL     1      25.952   0.894  51.893  1.00  0.00    -0.278 NA
HETATM    5  C6  UNL     1      26.084  -0.209  52.551  1.00  0.00     0.218 C 
BRANCH   5   6
HETATM    6  C5  UNL     1      26.310  -0.593  53.962  1.00  0.00     0.030 C 
HETATM    7  C4  UNL     1      25.222  -0.747  54.716  1.00  0.00     0.092 C 
BRANCH   7   8
HETATM    8  N1  UNL     1      24.027  -0.500  53.983  1.00  0.00    -0.337 N 
HETATM    9  C3  UNL     1      22.791  -0.992  54.497  1.00  0.00     0.221 C 
HETATM   10  O1  UNL     1      22.625  -1.635  55.550  1.00  0.00    -0.273 OA
HETATM   11  H6  UNL     1      24.089   0.028  53.099  1.00  0.00     0.168 HD
BRANCH   9  12
HETATM   12  C2  UNL     1      21.588  -0.696  53.678  1.00  0.00     0.098 C 
HETATM   13  C1  UNL     1      21.964  -0.093  52.341  1.00  0.00     0.014 C 
ENDBRANCH   9  12
ENDBRANCH   7   8
ENDBRANCH   5   6
ENDBRANCH   3   4
ENDBRANCH   1   2
BRANCH   1  14
HETATM   14  N4  UNL     1      24.338   4.561  52.197  1.00  0.00    -0.374 N 
HETATM   15  H13 UNL     1      24.812   5.468  52.483  1.00  0.00     0.161 HD
BRANCH  14  16
HETATM   16  C9  UNL     1      23.877   4.404  50.865  1.00  0.00     0.018 A 
HETATM   17  C10 UNL     1      22.590   4.737  50.727  1.00  0.00     0.025 A 
HETATM   18  C11 UNL     1      22.213   4.542  49.329  1.00  0.00    -0.001 A 
HETATM   19  C12 UNL     1      23.277   4.099  48.656  1.00  0.00    -0.011 A 
HETATM   20  C13 UNL     1      24.437   3.970  49.573  1.00  0.00     0.090 A 
BRANCH  20  21
HETATM   21  C14 UNL     1      25.589   4.787  49.121  1.00  0.00    -0.045 A 
HETATM   22  C15 UNL     1      26.867   4.267  49.061  1.00  0.00     0.008 A 
HETATM   23  C16 UNL     1      27.978   4.984  48.646  1.00  0.00     0.001 A 
HETATM   24  C17 UNL     1      27.783   6.308  48.271  1.00  0.00     0.000 A 
HETATM   25  C18 UNL     1      26.521   6.888  48.311  1.00  0.00     0.001 A 
HETATM   26  C19 UNL     1      25.486   6.107  48.731  1.00  0.00     0.008 A 
ENDBRANCH  20  21
ENDBRANCH  14  16
ENDBRANCH   1  14
TORSDOF 8
ENDMDL
MODEL 6
REMARK VINA RESULT:      -7.1      3.435      7.918
REMARK  8 active torsions:
REMARK  status: ('A' for Active; 'I' for Inactive)
REMARK    1  A    between atoms: C2_2  and  C3_3 
REMARK       I    between atoms: C3_3  and  N1_5 
REMARK    2  A    between atoms: N1_5  and  C4_6 
REMARK    3  A    between atoms: C5_7  and  C6_8 
REMARK    4  A    between atoms: N2_9  and  C7_10 
REMARK    5  A    between atoms: N3_11  and  C8_12 
REMARK    6  A    between atoms: C8_12  and  N4_13 
REMARK    7  A    between atoms: N4_13  and  C9_14 
REMARK    8  A    between atoms: C13_18  and  C14_19 
ROOT
HETATM    1  C8  UNL     1      25.750   2.825  50.452  1.00  0.00     0.270 C 
ENDROOT
BRANCH   1   2
HETATM    2  N3  UNL     1      26.813   3.480  49.714  1.00  0.00    -0.272 NA
HETATM    3  C7  UNL     1      26.587   4.656  49.188  1.00  0.00     0.168 C 
BRANCH   3   4
HETATM    4  N2  UNL     1      27.923   4.684  48.674  1.00  0.00    -0.278 NA
HETATM    5  C6  UNL     1      28.318   5.801  48.161  1.00  0.00     0.218 C 
BRANCH   5   6
HETATM    6  C5  UNL     1      27.736   7.144  47.944  1.00  0.00     0.030 C 
HETATM    7  C4  UNL     1      28.389   8.169  48.494  1.00  0.00     0.092 C 
BRANCH   7   8
HETATM    8  N1  UNL     1      29.549   7.744  49.200  1.00  0.00    -0.337 N 
HETATM    9  C3  UNL     1      30.798   8.367  48.908  1.00  0.00     0.221 C 
HETATM   10  O1  UNL     1      31.004   9.272  48.079  1.00  0.00    -0.273 OA
HETATM   11  H6  UNL     1      29.453   6.996  49.905  1.00  0.00     0.168 HD
BRANCH   9  12
HETATM   12  C2  UNL     1      31.964   7.871  49.685  1.00  0.00     0.098 C 
HETATM   13  C1  UNL     1      31.967   6.360  49.773  1.00  0.00     0.014 C 
ENDBRANCH   9  12
ENDBRANCH   7   8
ENDBRANCH   5   6
ENDBRANCH   3   4
ENDBRANCH   1   2
BRANCH   1  14
HETATM   14  N4  UNL     1      26.170   2.748  51.834  1.00  0.00    -0.374 N 
HETATM   15  H13 UNL     1      26.845   3.439  52.278  1.00  0.00     0.161 HD
BRANCH  14  16
HETATM   16  C9  UNL     1      25.642   1.688  52.615  1.00  0.00     0.018 A 
HETATM   17  C10 UNL     1      24.459   1.261  52.162  1.00  0.00     0.025 A 
HETATM   18  C11 UNL     1      24.002   0.176  53.028  1.00  0.00    -0.001 A 
HETATM   19  C12 UNL     1      24.916  -0.028  53.979  1.00  0.00    -0.011 A 
HETATM   20  C13 UNL     1      26.047   0.917  53.804  1.00  0.00     0.090 A 
BRANCH  20  21
HETATM   21  C14 UNL     1      27.338   0.206  53.639  1.00  0.00    -0.045 A 
HETATM   22  C15 UNL     1      27.393  -1.102  53.196  1.00  0.00     0.008 A 
HETATM   23  C16 UNL     1      28.570  -1.812  53.023  1.00  0.00     0.001 A 
HETATM   24  C17 UNL     1      29.762  -1.161  53.316  1.00  0.00     0.000 A 
HETATM   25  C18 UNL     1      29.771   0.154  53.765  1.00  0.00     0.001 A 
HETATM   26  C19 UNL     1      28.566   0.776  53.906  1.00  0.00     0.008 A 
ENDBRANCH  20  21
ENDBRANCH  14  16
ENDBRANCH   1  14
TORSDOF 8
ENDMDL
MODEL 7
REMARK VINA RESULT:      -7.1      2.475      6.582
REMARK  8 active torsions:
REMARK  status: ('A' for Active; 'I' for Inactive)
REMARK    1  A    between atoms: C2_2  and  C3_3 
REMARK       I    between atoms: C3_3  and  N1_5 
REMARK    2  A    between atoms: N1_5  and  C4_6 
REMARK    3  A    between atoms: C5_7  and  C6_8 
REMARK    4  A    between atoms: N2_9  and  C7_10 
REMARK    5  A    between atoms: N3_11  and  C8_12 
REMARK    6  A    between atoms: C8_12  and  N4_13 
REMARK    7  A    between atoms: N4_13  and  C9_14 
REMARK    8  A    between atoms: C13_18  and  C14_19 
ROOT
HETATM    1  C8  UNL     1      26.274   2.521  51.442  1.00  0.00     0.270 C 
ENDROOT
BRANCH   1   2
HETATM    2  N3  UNL     1      25.333   3.164  50.544  1.00  0.00    -0.272 NA
HETATM    3  C7  UNL     1      25.582   4.380  50.132  1.00  0.00     0.168 C 
BRANCH   3   4
HETATM    4  N2  UNL     1      24.370   4.370  49.368  1.00  0.00    -0.278 NA
HETATM    5  C6  UNL     1      23.334   4.899  49.929  1.00  0.00     0.218 C 
BRANCH   5   6
HETATM    6  C5  UNL     1      23.034   5.554  51.221  1.00  0.00     0.030 C 
HETATM    7  C4  UNL     1      22.474   4.788  52.158  1.00  0.00     0.092 C 
BRANCH   7   8
HETATM    8  N1  UNL     1      22.274   3.454  51.706  1.00  0.00    -0.337 N 
HETATM    9  C3  UNL     1      21.039   2.805  52.003  1.00  0.00     0.221 C 
HETATM   10  O1  UNL     1      20.079   3.283  52.633  1.00  0.00    -0.273 OA
HETATM   11  H6  UNL     1      23.029   2.993  51.174  1.00  0.00     0.168 HD
BRANCH   9  12
HETATM   12  C2  UNL     1      20.904   1.414  51.498  1.00  0.00     0.098 C 
HETATM   13  C1  UNL     1      21.716   1.202  50.238  1.00  0.00     0.014 C 
ENDBRANCH   9  12
ENDBRANCH   7   8
ENDBRANCH   5   6
ENDBRANCH   3   4
ENDBRANCH   1   2
BRANCH   1  14
HETATM   14  N4  UNL     1      25.703   2.570  52.771  1.00  0.00    -0.374 N 
HETATM   15  H13 UNL     1      25.513   3.478  53.291  1.00  0.00     0.161 HD
BRANCH  14  16
HETATM   16  C9  UNL     1      25.392   1.332  53.389  1.00  0.00     0.018 A 
HETATM   17  C10 UNL     1      24.241   0.816  52.946  1.00  0.00     0.025 A 
HETATM   18  C11 UNL     1      24.010  -0.450  53.639  1.00  0.00    -0.001 A 
HETATM   19  C12 UNL     1      25.023  -0.669  54.480  1.00  0.00    -0.011 A 
HETATM   20  C13 UNL     1      25.998   0.447  54.399  1.00  0.00     0.090 A 
BRANCH  20  21
HETATM   21  C14 UNL     1      27.353  -0.032  54.031  1.00  0.00    -0.045 A 
HETATM   22  C15 UNL     1      27.543  -1.231  53.373  1.00  0.00     0.008 A 
HETATM   23  C16 UNL     1      28.784  -1.725  53.005  1.00  0.00     0.001 A 
HETATM   24  C17 UNL     1      29.900  -0.960  53.323  1.00  0.00     0.000 A 
HETATM   25  C18 UNL     1      29.772   0.255  53.985  1.00  0.00     0.001 A 
HETATM   26  C19 UNL     1      28.512   0.664  54.308  1.00  0.00     0.008 A 
ENDBRANCH  20  21
ENDBRANCH  14  16
ENDBRANCH   1  14
TORSDOF 8
ENDMDL
MODEL 8
REMARK VINA RESULT:      -7.0      3.022      7.778
REMARK  8 active torsions:
REMARK  status: ('A' for Active; 'I' for Inactive)
REMARK    1  A    between atoms: C2_2  and  C3_3 
REMARK       I    between atoms: C3_3  and  N1_5 
REMARK    2  A    between atoms: N1_5  and  C4_6 
REMARK    3  A    between atoms: C5_7  and  C6_8 
REMARK    4  A    between atoms: N2_9  and  C7_10 
REMARK    5  A    between atoms: N3_11  and  C8_12 
REMARK    6  A    between atoms: C8_12  and  N4_13 
REMARK    7  A    between atoms: N4_13  and  C9_14 
REMARK    8  A    between atoms: C13_18  and  C14_19 
ROOT
HETATM    1  C8  UNL     1      26.864   2.254  51.753  1.00  0.00     0.270 C 
ENDROOT
BRANCH   1   2
HETATM    2  N3  UNL     1      27.018   3.165  50.635  1.00  0.00    -0.272 NA
HETATM    3  C7  UNL     1      25.991   3.394  49.858  1.00  0.00     0.168 C 
BRANCH   3   4
HETATM    4  N2  UNL     1      26.787   4.284  49.067  1.00  0.00    -0.278 NA
HETATM    5  C6  UNL     1      26.467   5.534  49.114  1.00  0.00     0.218 C 
BRANCH   5   6
HETATM    6  C5  UNL     1      25.444   6.352  49.800  1.00  0.00     0.030 C 
HETATM    7  C4  UNL     1      25.822   7.570  50.190  1.00  0.00     0.092 C 
BRANCH   7   8
HETATM    8  N1  UNL     1      27.178   7.839  49.854  1.00  0.00    -0.337 N 
HETATM    9  C3  UNL     1      27.624   9.194  49.824  1.00  0.00     0.221 C 
HETATM   10  O1  UNL     1      26.944  10.207  50.067  1.00  0.00    -0.273 OA
HETATM   11  H6  UNL     1      27.802   7.045  49.641  1.00  0.00     0.168 HD
BRANCH   9  12
HETATM   12  C2  UNL     1      29.052   9.396  49.466  1.00  0.00     0.098 C 
HETATM   13  C1  UNL     1      29.620   8.185  48.758  1.00  0.00     0.014 C 
ENDBRANCH   9  12
ENDBRANCH   7   8
ENDBRANCH   5   6
ENDBRANCH   3   4
ENDBRANCH   1   2
BRANCH   1  14
HETATM   14  N4  UNL     1      25.452   2.190  52.065  1.00  0.00    -0.374 N 
HETATM   15  H13 UNL     1      24.744   2.901  51.714  1.00  0.00     0.161 HD
BRANCH  14  16
HETATM   16  C9  UNL     1      25.016   1.114  52.880  1.00  0.00     0.018 A 
HETATM   17  C10 UNL     1      23.826   0.636  52.501  1.00  0.00     0.025 A 
HETATM   18  C11 UNL     1      23.466  -0.461  53.397  1.00  0.00    -0.001 A 
HETATM   19  C12 UNL     1      24.444  -0.621  54.292  1.00  0.00    -0.011 A 
HETATM   20  C13 UNL     1      25.523   0.368  54.045  1.00  0.00     0.090 A 
BRANCH  20  21
HETATM   21  C14 UNL     1      26.829  -0.291  53.805  1.00  0.00    -0.045 A 
HETATM   22  C15 UNL     1      26.941  -1.403  52.992  1.00  0.00     0.008 A 
HETATM   23  C16 UNL     1      28.135  -2.056  52.733  1.00  0.00     0.001 A 
HETATM   24  C17 UNL     1      29.284  -1.555  53.332  1.00  0.00     0.000 A 
HETATM   25  C18 UNL     1      29.235  -0.440  54.160  1.00  0.00     0.001 A 
HETATM   26  C19 UNL     1      28.018   0.140  54.359  1.00  0.00     0.008 A 
ENDBRANCH  20  21
ENDBRANCH  14  16
ENDBRANCH   1  14
TORSDOF 8
ENDMDL
MODEL 9
REMARK VINA RESULT:      -7.0      4.268      7.687
REMARK  8 active torsions:
REMARK  status: ('A' for Active; 'I' for Inactive)
REMARK    1  A    between atoms: C2_2  and  C3_3 
REMARK       I    between atoms: C3_3  and  N1_5 
REMARK    2  A    between atoms: N1_5  and  C4_6 
REMARK    3  A    between atoms: C5_7  and  C6_8 
REMARK    4  A    between atoms: N2_9  and  C7_10 
REMARK    5  A    between atoms: N3_11  and  C8_12 
REMARK    6  A    between atoms: C8_12  and  N4_13 
REMARK    7  A    between atoms: N4_13  and  C9_14 
REMARK    8  A    between atoms: C13_18  and  C14_19 
ROOT
HETATM    1  C8  UNL     1      26.530   4.298  49.431  1.00  0.00     0.270 C 
ENDROOT
BRANCH   1   2
HETATM    2  N3  UNL     1      27.799   4.371  48.733  1.00  0.00    -0.272 NA
HETATM    3  C7  UNL     1      28.349   5.542  48.539  1.00  0.00     0.168 C 
BRANCH   3   4
HETATM    4  N2  UNL     1      29.449   4.915  47.869  1.00  0.00    -0.278 NA
HETATM    5  C6  UNL     1      30.611   5.445  48.056  1.00  0.00     0.218 C 
BRANCH   5   6
HETATM    6  C5  UNL     1      31.156   6.590  48.818  1.00  0.00     0.030 C 
HETATM    7  C4  UNL     1      32.406   6.463  49.265  1.00  0.00     0.092 C 
BRANCH   7   8
HETATM    8  N1  UNL     1      32.976   5.210  48.906  1.00  0.00    -0.337 N 
HETATM    9  C3  UNL     1      34.278   5.188  48.324  1.00  0.00     0.221 C 
HETATM   10  O1  UNL     1      35.003   6.169  48.084  1.00  0.00    -0.273 OA
HETATM   11  H6  UNL     1      32.430   4.350  49.077  1.00  0.00     0.168 HD
BRANCH   9  12
HETATM   12  C2  UNL     1      34.806   3.843  47.976  1.00  0.00     0.098 C 
HETATM   13  C1  UNL     1      33.686   2.870  47.676  1.00  0.00     0.014 C 
ENDBRANCH   9  12
ENDBRANCH   7   8
ENDBRANCH   5   6
ENDBRANCH   3   4
ENDBRANCH   1   2
BRANCH   1  14
HETATM   14  N4  UNL     1      26.779   3.672  50.712  1.00  0.00    -0.374 N 
HETATM   15  H13 UNL     1      27.691   3.780  51.247  1.00  0.00     0.161 HD
BRANCH  14  16
HETATM   16  C9  UNL     1      25.738   2.879  51.259  1.00  0.00     0.018 A 
HETATM   17  C10 UNL     1      24.689   2.776  50.438  1.00  0.00     0.025 A 
HETATM   18  C11 UNL     1      23.677   1.946  51.089  1.00  0.00    -0.001 A 
HETATM   19  C12 UNL     1      24.137   1.567  52.283  1.00  0.00    -0.011 A 
HETATM   20  C13 UNL     1      25.494   2.126  52.503  1.00  0.00     0.090 A 
BRANCH  20  21
HETATM   21  C14 UNL     1      26.494   1.061  52.756  1.00  0.00    -0.045 A 
HETATM   22  C15 UNL     1      26.235  -0.263  52.456  1.00  0.00     0.008 A 
HETATM   23  C16 UNL     1      27.132  -1.296  52.671  1.00  0.00     0.001 A 
HETATM   24  C17 UNL     1      28.365  -0.972  53.224  1.00  0.00     0.000 A 
HETATM   25  C18 UNL     1      28.684   0.341  53.548  1.00  0.00     0.001 A 
HETATM   26  C19 UNL     1      27.741   1.294  53.301  1.00  0.00     0.008 A 
ENDBRANCH  20  21
ENDBRANCH  14  16
ENDBRANCH   1  14
TORSDOF 8
ENDMDL
