MODEL 1
REMARK VINA RESULT:      -8.9      0.000      0.000
REMARK  4 active torsions:
REMARK  status: ('A' for Active; 'I' for Inactive)
REMARK    1  A    between atoms: C2_3  and  N1_4 
REMARK    2  A    between atoms: N1_4  and  C3_5 
REMARK    3  A    between atoms: C8_12  and  N4_13 
REMARK    4  A    between atoms: N4_13  and  C9_14 
ROOT
HETATM    1  C3  UNL     1      25.818  -0.095  54.223  1.00  0.00     0.033 A 
HETATM    2  C4  UNL     1      24.665  -0.735  54.626  1.00  0.00     0.032 A 
HETATM    3  C5  UNL     1      23.504  -0.509  53.916  1.00  0.00     0.035 A 
HETATM    4  C6  UNL     1      23.526   0.340  52.835  1.00  0.00     0.072 A 
HETATM    5  N2  UNL     1      22.348   0.495  52.210  1.00  0.00    -0.241 NA
HETATM    6  C7  UNL     1      22.300   1.310  51.146  1.00  0.00     0.236 A 
HETATM    7  N3  UNL     1      23.404   1.938  50.740  1.00  0.00    -0.224 NA
HETATM    8  C8  UNL     1      24.613   1.843  51.299  1.00  0.00     0.142 A 
HETATM    9  C15 UNL     1      24.633   1.011  52.373  1.00  0.00     0.041 A 
HETATM   10  C16 UNL     1      25.767   0.742  53.129  1.00  0.00     0.047 A 
ENDROOT
BRANCH   8  11
HETATM   11  N4  UNL     1      25.790   2.494  50.890  1.00  0.00    -0.340 N 
HETATM   12  H5  UNL     1      26.707   2.068  51.006  1.00  0.00     0.167 HD
BRANCH  11  13
HETATM   13  C9  UNL     1      25.914   3.768  50.284  1.00  0.00     0.035 A 
HETATM   14  C10 UNL     1      26.853   4.052  49.318  1.00  0.00     0.029 A 
HETATM   15  C11 UNL     1      26.985   5.286  48.715  1.00  0.00     0.004 A 
HETATM   16  C12 UNL     1      26.152   6.325  49.066  1.00  0.00     0.019 A 
HETATM   17  C13 UNL     1      25.211   6.086  50.015  1.00  0.00     0.013 A 
HETATM   18 BR1  UNL     1      24.036   7.483  50.537  1.00  0.00    -0.051 Br
HETATM   19  C14 UNL     1      25.119   4.854  50.580  1.00  0.00     0.048 A 
ENDBRANCH  11  13
ENDBRANCH   8  11
BRANCH   1  20
HETATM   20  N1  UNL     1      27.022  -0.320  54.947  1.00  0.00    -0.355 N 
HETATM   21  H1  UNL     1      26.996  -0.887  55.832  1.00  0.00     0.166 HD
BRANCH  20  22
HETATM   22  C2  UNL     1      28.226   0.240  54.436  1.00  0.00     0.089 A 
HETATM   23  C1  UNL     1      29.446  -0.142  53.943  1.00  0.00     0.159 A 
HETATM   24  F1  UNL     1      30.224  -1.216  53.652  1.00  0.00    -0.205 F 
HETATM   25  C17 UNL     1      29.179   1.302  54.014  1.00  0.00     0.286 A 
HETATM   26  F2  UNL     1      29.744   2.044  55.032  1.00  0.00    -0.235 F 
ENDBRANCH  20  22
ENDBRANCH   1  20
TORSDOF 4
ENDMDL
MODEL 2
REMARK VINA RESULT:      -8.9      2.958      4.702
REMARK  4 active torsions:
REMARK  status: ('A' for Active; 'I' for Inactive)
REMARK    1  A    between atoms: C2_3  and  N1_4 
REMARK    2  A    between atoms: N1_4  and  C3_5 
REMARK    3  A    between atoms: C8_12  and  N4_13 
REMARK    4  A    between atoms: N4_13  and  C9_14 
ROOT
HETATM    1  C3  UNL     1      24.466  -0.342  53.505  1.00  0.00     0.033 A 
HETATM    2  C4  UNL     1      24.971  -0.627  54.756  1.00  0.00     0.032 A 
HETATM    3  C5  UNL     1      26.184  -0.081  55.117  1.00  0.00     0.035 A 
HETATM    4  C6  UNL     1      26.855   0.727  54.228  1.00  0.00     0.072 A 
HETATM    5  N2  UNL     1      28.025   1.210  54.671  1.00  0.00    -0.241 NA
HETATM    6  C7  UNL     1      28.730   2.006  53.852  1.00  0.00     0.236 A 
HETATM    7  N3  UNL     1      28.260   2.294  52.638  1.00  0.00    -0.224 NA
HETATM    8  C8  UNL     1      27.110   1.859  52.118  1.00  0.00     0.142 A 
HETATM    9  C15 UNL     1      26.417   1.057  52.967  1.00  0.00     0.041 A 
HETATM   10  C16 UNL     1      25.191   0.476  52.665  1.00  0.00     0.047 A 
ENDROOT
BRANCH   8  11
HETATM   11  N4  UNL     1      26.593   2.149  50.843  1.00  0.00    -0.340 N 
HETATM   12  H5  UNL     1      26.554   1.447  50.107  1.00  0.00     0.167 HD
BRANCH  11  13
HETATM   13  C9  UNL     1      26.066   3.378  50.377  1.00  0.00     0.035 A 
HETATM   14  C10 UNL     1      26.685   4.144  49.414  1.00  0.00     0.029 A 
HETATM   15  C11 UNL     1      26.186   5.341  48.947  1.00  0.00     0.004 A 
HETATM   16  C12 UNL     1      25.002   5.842  49.440  1.00  0.00     0.019 A 
HETATM   17  C13 UNL     1      24.359   5.117  50.392  1.00  0.00     0.013 A 
HETATM   18 BR1  UNL     1      22.722   5.761  51.108  1.00  0.00    -0.051 Br
HETATM   19  C14 UNL     1      24.890   3.943  50.820  1.00  0.00     0.048 A 
ENDBRANCH  11  13
ENDBRANCH   8  11
BRANCH   1  20
HETATM   20  N1  UNL     1      23.215  -0.900  53.121  1.00  0.00    -0.355 N 
HETATM   21  H1  UNL     1      23.188  -1.849  52.669  1.00  0.00     0.166 HD
BRANCH  20  22
HETATM   22  C2  UNL     1      22.037  -0.140  53.369  1.00  0.00     0.089 A 
HETATM   23  C1  UNL     1      21.441   1.037  53.004  1.00  0.00     0.159 A 
HETATM   24  F1  UNL     1      21.583   2.146  52.233  1.00  0.00    -0.205 F 
HETATM   25  C17 UNL     1      20.716   0.195  53.966  1.00  0.00     0.286 A 
HETATM   26  F2  UNL     1      20.728   0.535  55.305  1.00  0.00    -0.235 F 
ENDBRANCH  20  22
ENDBRANCH   1  20
TORSDOF 4
ENDMDL
MODEL 3
REMARK VINA RESULT:      -8.7      0.985      1.547
REMARK  4 active torsions:
REMARK  status: ('A' for Active; 'I' for Inactive)
REMARK    1  A    between atoms: C2_3  and  N1_4 
REMARK    2  A    between atoms: N1_4  and  C3_5 
REMARK    3  A    between atoms: C8_12  and  N4_13 
REMARK    4  A    between atoms: N4_13  and  C9_14 
ROOT
HETATM    1  C3  UNL     1      25.667   0.517  54.292  1.00  0.00     0.033 A 
HETATM    2  C4  UNL     1      24.887  -0.620  54.310  1.00  0.00     0.032 A 
HETATM    3  C5  UNL     1      23.758  -0.657  53.518  1.00  0.00     0.035 A 
HETATM    4  C6  UNL     1      23.443   0.431  52.737  1.00  0.00     0.072 A 
HETATM    5  N2  UNL     1      22.327   0.299  52.004  1.00  0.00    -0.241 NA
HETATM    6  C7  UNL     1      21.962   1.324  51.219  1.00  0.00     0.236 A 
HETATM    7  N3  UNL     1      22.704   2.432  51.187  1.00  0.00    -0.224 NA
HETATM    8  C8  UNL     1      23.823   2.649  51.880  1.00  0.00     0.142 A 
HETATM    9  C15 UNL     1      24.169   1.595  52.666  1.00  0.00     0.041 A 
HETATM   10  C16 UNL     1      25.291   1.570  53.484  1.00  0.00     0.047 A 
ENDROOT
BRANCH   8  11
HETATM   11  N4  UNL     1      24.621   3.807  51.863  1.00  0.00    -0.340 N 
HETATM   12  H5  UNL     1      24.741   4.389  52.689  1.00  0.00     0.167 HD
BRANCH  11  13
HETATM   13  C9  UNL     1      25.354   4.341  50.776  1.00  0.00     0.035 A 
HETATM   14  C10 UNL     1      26.380   3.663  50.155  1.00  0.00     0.029 A 
HETATM   15  C11 UNL     1      27.101   4.167  49.094  1.00  0.00     0.004 A 
HETATM   16  C12 UNL     1      26.818   5.416  48.588  1.00  0.00     0.019 A 
HETATM   17  C13 UNL     1      25.811   6.118  49.172  1.00  0.00     0.013 A 
HETATM   18 BR1  UNL     1      25.378   7.846  48.515  1.00  0.00    -0.051 Br
HETATM   19  C14 UNL     1      25.129   5.579  50.215  1.00  0.00     0.048 A 
ENDBRANCH  11  13
ENDBRANCH   8  11
BRANCH   1  20
HETATM   20  N1  UNL     1      26.834   0.567  55.104  1.00  0.00    -0.355 N 
HETATM   21  H1  UNL     1      26.736   0.563  56.151  1.00  0.00     0.166 HD
BRANCH  20  22
HETATM   22  C2  UNL     1      28.100   0.621  54.457  1.00  0.00     0.089 A 
HETATM   23  C1  UNL     1      28.910   1.499  53.788  1.00  0.00     0.159 A 
HETATM   24  F1  UNL     1      29.014   2.779  53.348  1.00  0.00    -0.205 F 
HETATM   25  C17 UNL     1      29.411   0.127  53.955  1.00  0.00     0.286 A 
HETATM   26  F2  UNL     1      29.356  -0.746  52.886  1.00  0.00    -0.235 F 
ENDBRANCH  20  22
ENDBRANCH   1  20
TORSDOF 4
ENDMDL
MODEL 4
REMARK VINA RESULT:      -8.6      2.426      3.365
REMARK  4 active torsions:
REMARK  status: ('A' for Active; 'I' for Inactive)
REMARK    1  A    between atoms: C2_3  and  N1_4 
REMARK    2  A    between atoms: N1_4  and  C3_5 
REMARK    3  A    between atoms: C8_12  and  N4_13 
REMARK    4  A    between atoms: N4_13  and  C9_14 
ROOT
HETATM    1  C3  UNL     1      23.932  -0.664  54.206  1.00  0.00     0.033 A 
HETATM    2  C4  UNL     1      23.037  -1.233  55.087  1.00  0.00     0.032 A 
HETATM    3  C5  UNL     1      21.691  -1.158  54.798  1.00  0.00     0.035 A 
HETATM    4  C6  UNL     1      21.278  -0.522  53.650  1.00  0.00     0.072 A 
HETATM    5  N2  UNL     1      19.951  -0.501  53.458  1.00  0.00    -0.241 NA
HETATM    6  C7  UNL     1      19.481   0.103  52.356  1.00  0.00     0.236 A 
HETATM    7  N3  UNL     1      20.331   0.660  51.492  1.00  0.00    -0.224 NA
HETATM    8  C8  UNL     1      21.661   0.686  51.602  1.00  0.00     0.142 A 
HETATM    9  C15 UNL     1      22.108   0.067  52.726  1.00  0.00     0.041 A 
HETATM   10  C16 UNL     1      23.449  -0.043  53.074  1.00  0.00     0.047 A 
ENDROOT
BRANCH   8  11
HETATM   11  N4  UNL     1      22.576   1.265  50.706  1.00  0.00    -0.340 N 
HETATM   12  H5  UNL     1      22.923   0.762  49.893  1.00  0.00     0.167 HD
BRANCH  11  13
HETATM   13  C9  UNL     1      23.144   2.562  50.760  1.00  0.00     0.035 A 
HETATM   14  C10 UNL     1      22.555   3.613  51.427  1.00  0.00     0.029 A 
HETATM   15  C11 UNL     1      23.095   4.879  51.493  1.00  0.00     0.004 A 
HETATM   16  C12 UNL     1      24.292   5.160  50.872  1.00  0.00     0.019 A 
HETATM   17  C13 UNL     1      24.906   4.149  50.203  1.00  0.00     0.013 A 
HETATM   18 BR1  UNL     1      26.558   4.480  49.327  1.00  0.00    -0.051 Br
HETATM   19  C14 UNL     1      24.335   2.918  50.166  1.00  0.00     0.048 A 
ENDBRANCH  11  13
ENDBRANCH   8  11
BRANCH   1  20
HETATM   20  N1  UNL     1      25.324  -0.735  54.493  1.00  0.00    -0.355 N 
HETATM   21  H1  UNL     1      25.657  -0.599  55.481  1.00  0.00     0.166 HD
BRANCH  20  22
HETATM   22  C2  UNL     1      26.218  -0.991  53.415  1.00  0.00     0.089 A 
HETATM   23  C1  UNL     1      26.764  -0.372  52.323  1.00  0.00     0.159 A 
HETATM   24  F1  UNL     1      26.797   0.792  51.624  1.00  0.00    -0.205 F 
HETATM   25  C17 UNL     1      27.161  -1.766  52.565  1.00  0.00     0.286 A 
HETATM   26  F2  UNL     1      26.598  -2.770  51.801  1.00  0.00    -0.235 F 
ENDBRANCH  20  22
ENDBRANCH   1  20
TORSDOF 4
ENDMDL
MODEL 5
REMARK VINA RESULT:      -8.3      1.578      2.222
REMARK  4 active torsions:
REMARK  status: ('A' for Active; 'I' for Inactive)
REMARK    1  A    between atoms: C2_3  and  N1_4 
REMARK    2  A    between atoms: N1_4  and  C3_5 
REMARK    3  A    between atoms: C8_12  and  N4_13 
REMARK    4  A    between atoms: N4_13  and  C9_14 
ROOT
HETATM    1  C3  UNL     1      25.713   0.217  52.451  1.00  0.00     0.033 A 
HETATM    2  C4  UNL     1      24.975  -0.419  53.426  1.00  0.00     0.032 A 
HETATM    3  C5  UNL     1      23.662  -0.039  53.611  1.00  0.00     0.035 A 
HETATM    4  C6  UNL     1      23.128   0.955  52.826  1.00  0.00     0.072 A 
HETATM    5  N2  UNL     1      21.845   1.254  53.082  1.00  0.00    -0.241 NA
HETATM    6  C7  UNL     1      21.262   2.216  52.350  1.00  0.00     0.236 A 
HETATM    7  N3  UNL     1      21.959   2.843  51.402  1.00  0.00    -0.224 NA
HETATM    8  C8  UNL     1      23.234   2.612  51.081  1.00  0.00     0.142 A 
HETATM    9  C15 UNL     1      23.798   1.633  51.836  1.00  0.00     0.041 A 
HETATM   10  C16 UNL     1      25.113   1.205  51.699  1.00  0.00     0.047 A 
ENDROOT
BRANCH   8  11
HETATM   11  N4  UNL     1      23.989   3.258  50.087  1.00  0.00    -0.340 N 
HETATM   12  H5  UNL     1      24.215   2.805  49.204  1.00  0.00     0.167 HD
BRANCH  11  13
HETATM   13  C9  UNL     1      24.536   4.564  50.122  1.00  0.00     0.035 A 
HETATM   14  C10 UNL     1      24.041   5.565  50.928  1.00  0.00     0.029 A 
HETATM   15  C11 UNL     1      24.564   6.839  50.978  1.00  0.00     0.004 A 
HETATM   16  C12 UNL     1      25.644   7.181  50.195  1.00  0.00     0.019 A 
HETATM   17  C13 UNL     1      26.163   6.222  49.386  1.00  0.00     0.013 A 
HETATM   18 BR1  UNL     1      27.654   6.638  48.285  1.00  0.00    -0.051 Br
HETATM   19  C14 UNL     1      25.614   4.980  49.372  1.00  0.00     0.048 A 
ENDBRANCH  11  13
ENDBRANCH   8  11
BRANCH   1  20
HETATM   20  N1  UNL     1      27.068  -0.166  52.250  1.00  0.00    -0.355 N 
HETATM   21  H1  UNL     1      27.318  -0.775  51.429  1.00  0.00     0.166 HD
BRANCH  20  22
HETATM   22  C2  UNL     1      28.041   0.296  53.180  1.00  0.00     0.089 A 
HETATM   23  C1  UNL     1      28.488   1.455  53.756  1.00  0.00     0.159 A 
HETATM   24  F1  UNL     1      28.303   2.800  53.801  1.00  0.00    -0.205 F 
HETATM   25  C17 UNL     1      29.161   0.211  54.157  1.00  0.00     0.286 A 
HETATM   26  F2  UNL     1      30.401  -0.087  53.627  1.00  0.00    -0.235 F 
ENDBRANCH  20  22
ENDBRANCH   1  20
TORSDOF 4
ENDMDL
MODEL 6
REMARK VINA RESULT:      -8.3      3.063      5.714
REMARK  4 active torsions:
REMARK  status: ('A' for Active; 'I' for Inactive)
REMARK    1  A    between atoms: C2_3  and  N1_4 
REMARK    2  A    between atoms: N1_4  and  C3_5 
REMARK    3  A    between atoms: C8_12  and  N4_13 
REMARK    4  A    between atoms: N4_13  and  C9_14 
ROOT
HETATM    1  C3  UNL     1      26.223   2.671  51.593  1.00  0.00     0.033 A 
HETATM    2  C4  UNL     1      26.520   3.054  50.303  1.00  0.00     0.032 A 
HETATM    3  C5  UNL     1      25.482   3.241  49.415  1.00  0.00     0.035 A 
HETATM    4  C6  UNL     1      24.187   3.043  49.836  1.00  0.00     0.072 A 
HETATM    5  N2  UNL     1      23.248   3.250  48.900  1.00  0.00    -0.241 NA
HETATM    6  C7  UNL     1      21.963   3.074  49.245  1.00  0.00     0.236 A 
HETATM    7  N3  UNL     1      21.655   2.703  50.488  1.00  0.00    -0.224 NA
HETATM    8  C8  UNL     1      22.520   2.476  51.479  1.00  0.00     0.142 A 
HETATM    9  C15 UNL     1      23.812   2.662  51.102  1.00  0.00     0.041 A 
HETATM   10  C16 UNL     1      24.902   2.491  51.947  1.00  0.00     0.047 A 
ENDROOT
BRANCH   8  11
HETATM   11  N4  UNL     1      22.220   2.086  52.796  1.00  0.00    -0.340 N 
HETATM   12  H5  UNL     1      22.357   2.712  53.586  1.00  0.00     0.167 HD
BRANCH  11  13
HETATM   13  C9  UNL     1      21.707   0.842  53.238  1.00  0.00     0.035 A 
HETATM   14  C10 UNL     1      22.469  -0.090  53.906  1.00  0.00     0.029 A 
HETATM   15  C11 UNL     1      21.985  -1.304  54.346  1.00  0.00     0.004 A 
HETATM   16  C12 UNL     1      20.670  -1.651  54.129  1.00  0.00     0.019 A 
HETATM   17  C13 UNL     1      19.884  -0.758  53.473  1.00  0.00     0.013 A 
HETATM   18 BR1  UNL     1      18.062  -1.184  53.147  1.00  0.00    -0.051 Br
HETATM   19  C14 UNL     1      20.406   0.425  53.059  1.00  0.00     0.048 A 
ENDBRANCH  11  13
ENDBRANCH   8  11
BRANCH   1  20
HETATM   20  N1  UNL     1      27.286   2.475  52.518  1.00  0.00    -0.355 N 
HETATM   21  H1  UNL     1      27.786   3.309  52.917  1.00  0.00     0.166 HD
BRANCH  20  22
HETATM   22  C2  UNL     1      27.631   1.139  52.869  1.00  0.00     0.089 A 
HETATM   23  C1  UNL     1      27.238  -0.152  52.637  1.00  0.00     0.159 A 
HETATM   24  F1  UNL     1      26.336  -0.922  51.976  1.00  0.00    -0.205 F 
HETATM   25  C17 UNL     1      28.390   0.043  53.529  1.00  0.00     0.286 A 
HETATM   26  F2  UNL     1      28.216  -0.075  54.894  1.00  0.00    -0.235 F 
ENDBRANCH  20  22
ENDBRANCH   1  20
TORSDOF 4
ENDMDL
MODEL 7
REMARK VINA RESULT:      -8.2      3.906      5.751
REMARK  4 active torsions:
REMARK  status: ('A' for Active; 'I' for Inactive)
REMARK    1  A    between atoms: C2_3  and  N1_4 
REMARK    2  A    between atoms: N1_4  and  C3_5 
REMARK    3  A    between atoms: C8_12  and  N4_13 
REMARK    4  A    between atoms: N4_13  and  C9_14 
ROOT
HETATM    1  C3  UNL     1      21.651  -0.357  54.225  1.00  0.00     0.033 A 
HETATM    2  C4  UNL     1      22.197  -1.147  55.215  1.00  0.00     0.032 A 
HETATM    3  C5  UNL     1      23.566  -1.303  55.253  1.00  0.00     0.035 A 
HETATM    4  C6  UNL     1      24.347  -0.674  54.312  1.00  0.00     0.072 A 
HETATM    5  N2  UNL     1      25.666  -0.887  54.433  1.00  0.00    -0.241 NA
HETATM    6  C7  UNL     1      26.484  -0.301  53.545  1.00  0.00     0.236 A 
HETATM    7  N3  UNL     1      25.977   0.466  52.580  1.00  0.00    -0.224 NA
HETATM    8  C8  UNL     1      24.683   0.733  52.386  1.00  0.00     0.142 A 
HETATM    9  C15 UNL     1      23.878   0.127  53.298  1.00  0.00     0.041 A 
HETATM   10  C16 UNL     1      22.494   0.245  53.314  1.00  0.00     0.047 A 
ENDROOT
BRANCH   8  11
HETATM   11  N4  UNL     1      24.125   1.537  51.377  1.00  0.00    -0.340 N 
HETATM   12  H5  UNL     1      23.643   1.137  50.576  1.00  0.00     0.167 HD
BRANCH  11  13
HETATM   13  C9  UNL     1      24.126   2.951  51.293  1.00  0.00     0.035 A 
HETATM   14  C10 UNL     1      23.335   3.752  52.087  1.00  0.00     0.029 A 
HETATM   15  C11 UNL     1      23.326   5.129  52.021  1.00  0.00     0.004 A 
HETATM   16  C12 UNL     1      24.138   5.789  51.125  1.00  0.00     0.019 A 
HETATM   17  C13 UNL     1      24.935   5.035  50.324  1.00  0.00     0.013 A 
HETATM   18 BR1  UNL     1      26.075   5.893  49.070  1.00  0.00    -0.051 Br
HETATM   19  C14 UNL     1      24.909   3.681  50.426  1.00  0.00     0.048 A 
ENDBRANCH  11  13
ENDBRANCH   8  11
BRANCH   1  20
HETATM   20  N1  UNL     1      20.240  -0.188  54.175  1.00  0.00    -0.355 N 
HETATM   21  H1  UNL     1      19.682  -0.224  55.066  1.00  0.00     0.166 HD
BRANCH  20  22
HETATM   22  C2  UNL     1      19.635   0.026  52.905  1.00  0.00     0.089 A 
HETATM   23  C1  UNL     1      18.595  -0.427  52.138  1.00  0.00     0.159 A 
HETATM   24  F1  UNL     1      17.559  -1.304  52.103  1.00  0.00    -0.205 F 
HETATM   25  C17 UNL     1      19.434   0.633  51.561  1.00  0.00     0.286 A 
HETATM   26  F2  UNL     1      20.374   0.305  50.605  1.00  0.00    -0.235 F 
ENDBRANCH  20  22
ENDBRANCH   1  20
TORSDOF 4
ENDMDL
MODEL 8
REMARK VINA RESULT:      -8.1      1.987      2.646
REMARK  4 active torsions:
REMARK  status: ('A' for Active; 'I' for Inactive)
REMARK    1  A    between atoms: C2_3  and  N1_4 
REMARK    2  A    between atoms: N1_4  and  C3_5 
REMARK    3  A    between atoms: C8_12  and  N4_13 
REMARK    4  A    between atoms: N4_13  and  C9_14 
ROOT
HETATM    1  C3  UNL     1      25.932   0.846  52.166  1.00  0.00     0.033 A 
HETATM    2  C4  UNL     1      24.971   0.892  53.154  1.00  0.00     0.032 A 
HETATM    3  C5  UNL     1      24.160   2.004  53.232  1.00  0.00     0.035 A 
HETATM    4  C6  UNL     1      24.328   3.031  52.332  1.00  0.00     0.072 A 
HETATM    5  N2  UNL     1      23.492   4.068  52.490  1.00  0.00    -0.241 NA
HETATM    6  C7  UNL     1      23.603   5.103  51.644  1.00  0.00     0.236 A 
HETATM    7  N3  UNL     1      24.526   5.078  50.682  1.00  0.00    -0.224 NA
HETATM    8  C8  UNL     1      25.396   4.092  50.453  1.00  0.00     0.142 A 
HETATM    9  C15 UNL     1      25.261   3.058  51.323  1.00  0.00     0.041 A 
HETATM   10  C16 UNL     1      26.045   1.911  51.297  1.00  0.00     0.047 A 
ENDROOT
BRANCH   8  11
HETATM   11  N4  UNL     1      26.377   4.043  49.446  1.00  0.00    -0.340 N 
HETATM   12  H5  UNL     1      26.703   3.161  49.058  1.00  0.00     0.167 HD
BRANCH  11  13
HETATM   13  C9  UNL     1      27.045   5.129  48.830  1.00  0.00     0.035 A 
HETATM   14  C10 UNL     1      28.386   5.105  48.516  1.00  0.00     0.029 A 
HETATM   15  C11 UNL     1      29.051   6.152  47.913  1.00  0.00     0.004 A 
HETATM   16  C12 UNL     1      28.380   7.309  47.586  1.00  0.00     0.019 A 
HETATM   17  C13 UNL     1      27.054   7.372  47.879  1.00  0.00     0.013 A 
HETATM   18 BR1  UNL     1      26.079   8.944  47.450  1.00  0.00    -0.051 Br
HETATM   19  C14 UNL     1      26.443   6.315  48.473  1.00  0.00     0.048 A 
ENDBRANCH  11  13
ENDBRANCH   8  11
BRANCH   1  20
HETATM   20  N1  UNL     1      26.775  -0.296  52.075  1.00  0.00    -0.355 N 
HETATM   21  H1  UNL     1      26.553  -1.049  51.375  1.00  0.00     0.166 HD
BRANCH  20  22
HETATM   22  C2  UNL     1      27.897  -0.373  52.947  1.00  0.00     0.089 A 
HETATM   23  C1  UNL     1      28.902  -1.231  53.307  1.00  0.00     0.159 A 
HETATM   24  F1  UNL     1      29.426  -2.463  53.080  1.00  0.00    -0.205 F 
HETATM   25  C17 UNL     1      28.873   0.077  53.977  1.00  0.00     0.286 A 
HETATM   26  F2  UNL     1      28.389   0.164  55.268  1.00  0.00    -0.235 F 
ENDBRANCH  20  22
ENDBRANCH   1  20
TORSDOF 4
ENDMDL
MODEL 9
REMARK VINA RESULT:      -8.0      2.628      3.501
REMARK  4 active torsions:
REMARK  status: ('A' for Active; 'I' for Inactive)
REMARK    1  A    between atoms: C2_3  and  N1_4 
REMARK    2  A    between atoms: N1_4  and  C3_5 
REMARK    3  A    between atoms: C8_12  and  N4_13 
REMARK    4  A    between atoms: N4_13  and  C9_14 
ROOT
HETATM    1  C3  UNL     1      25.433   0.447  52.844  1.00  0.00     0.033 A 
HETATM    2  C4  UNL     1      25.389  -0.605  53.733  1.00  0.00     0.032 A 
HETATM    3  C5  UNL     1      24.177  -0.938  54.300  1.00  0.00     0.035 A 
HETATM    4  C6  UNL     1      23.052  -0.220  53.966  1.00  0.00     0.072 A 
HETATM    5  N2  UNL     1      21.923  -0.620  54.568  1.00  0.00    -0.241 NA
HETATM    6  C7  UNL     1      20.788   0.039  54.286  1.00  0.00     0.236 A 
HETATM    7  N3  UNL     1      20.810   1.059  53.428  1.00  0.00    -0.224 NA
HETATM    8  C8  UNL     1      21.884   1.524  52.785  1.00  0.00     0.142 A 
HETATM    9  C15 UNL     1      23.017   0.838  53.089  1.00  0.00     0.041 A 
HETATM   10  C16 UNL     1      24.267   1.123  52.554  1.00  0.00     0.047 A 
ENDROOT
BRANCH   8  11
HETATM   11  N4  UNL     1      21.931   2.596  51.877  1.00  0.00    -0.340 N 
HETATM   12  H5  UNL     1      21.958   3.564  52.190  1.00  0.00     0.167 HD
BRANCH  11  13
HETATM   13  C9  UNL     1      21.949   2.536  50.462  1.00  0.00     0.035 A 
HETATM   14  C10 UNL     1      21.754   1.370  49.757  1.00  0.00     0.029 A 
HETATM   15  C11 UNL     1      21.765   1.295  48.380  1.00  0.00     0.004 A 
HETATM   16  C12 UNL     1      21.978   2.424  47.622  1.00  0.00     0.019 A 
HETATM   17  C13 UNL     1      22.174   3.597  48.280  1.00  0.00     0.013 A 
HETATM   18 BR1  UNL     1      22.473   5.186  47.284  1.00  0.00    -0.051 Br
HETATM   19  C14 UNL     1      22.154   3.620  49.637  1.00  0.00     0.048 A 
ENDBRANCH  11  13
ENDBRANCH   8  11
BRANCH   1  20
HETATM   20  N1  UNL     1      26.678   0.801  52.253  1.00  0.00    -0.355 N 
HETATM   21  H1  UNL     1      26.708   1.086  51.241  1.00  0.00     0.166 HD
BRANCH  20  22
HETATM   22  C2  UNL     1      27.844   0.754  53.067  1.00  0.00     0.089 A 
HETATM   23  C1  UNL     1      28.755   1.587  53.661  1.00  0.00     0.159 A 
HETATM   24  F1  UNL     1      29.101   2.888  53.836  1.00  0.00    -0.205 F 
HETATM   25  C17 UNL     1      28.943   0.143  53.864  1.00  0.00     0.286 A 
HETATM   26  F2  UNL     1      29.914  -0.520  53.140  1.00  0.00    -0.235 F 
ENDBRANCH  20  22
ENDBRANCH   1  20
TORSDOF 4
ENDMDL
