MODEL 1
REMARK VINA RESULT:      -9.4      0.000      0.000
REMARK  5 active torsions:
REMARK  status: ('A' for Active; 'I' for Inactive)
REMARK    1  A    between atoms: O1_2  and  C2_3 
REMARK    2  A    between atoms: C6_9  and  N3_10 
REMARK    3  A    between atoms: N3_10  and  C7_11 
REMARK    4  A    between atoms: C15_21  and  O2_22 
REMARK    5  A    between atoms: O2_22  and  C16_23 
ROOT
HETATM    1  C2  UNL     1      22.126   2.586  50.550  1.00  0.00     0.103 A 
HETATM    2  C3  UNL     1      22.997   3.119  49.627  1.00  0.00     0.072 A 
HETATM    3  C4  UNL     1      24.317   3.175  50.012  1.00  0.00     0.075 A 
HETATM    4  N1  UNL     1      25.145   3.709  49.065  1.00  0.00    -0.241 NA
HETATM    5  C5  UNL     1      26.451   3.804  49.359  1.00  0.00     0.236 A 
HETATM    6  N2  UNL     1      26.865   3.373  50.549  1.00  0.00    -0.224 NA
HETATM    7  C6  UNL     1      26.124   2.841  51.523  1.00  0.00     0.142 A 
HETATM    8  C13 UNL     1      24.787   2.735  51.248  1.00  0.00     0.042 A 
HETATM    9  C14 UNL     1      23.836   2.220  52.099  1.00  0.00     0.057 A 
HETATM   10  C15 UNL     1      22.471   2.119  51.802  1.00  0.00     0.106 A 
ENDROOT
BRANCH   7  11
HETATM   11  N3  UNL     1      26.609   2.398  52.772  1.00  0.00    -0.340 N 
HETATM   12  H6  UNL     1      26.338   2.865  53.657  1.00  0.00     0.167 HD
BRANCH  11  13
HETATM   13  C7  UNL     1      27.489   1.322  53.043  1.00  0.00     0.035 A 
HETATM   14  C8  UNL     1      28.736   1.482  53.589  1.00  0.00     0.032 A 
HETATM   15  C9  UNL     1      29.623   0.465  53.867  1.00  0.00     0.046 A 
HETATM   16  C10 UNL     1      29.261  -0.834  53.584  1.00  0.00     0.138 A 
HETATM   17  F1  UNL     1      30.056  -1.892  53.819  1.00  0.00    -0.204 F 
HETATM   18  C11 UNL     1      28.021  -1.059  53.035  1.00  0.00     0.074 A 
HETATM   19 CL1  UNL     1      27.514  -2.686  52.659  1.00  0.00    -0.081 Cl
HETATM   20  C12 UNL     1      27.189   0.006  52.785  1.00  0.00     0.056 A 
ENDBRANCH  11  13
ENDBRANCH   7  11
BRANCH  10  21
HETATM   21  O2  UNL     1      21.697   1.589  52.761  1.00  0.00    -0.312 OA
BRANCH  21  22
HETATM   22  C16 UNL     1      21.802   0.598  53.684  1.00  0.00     0.370 C 
HETATM   23  N4  UNL     1      22.801  -0.424  53.358  1.00  0.00     0.136 N 
HETATM   24  C17 UNL     1      23.102  -1.105  54.604  1.00  0.00     0.441 C 
HETATM   25  H12 UNL     1      22.405  -1.136  52.707  1.00  0.00     0.322 HD
HETATM   26  O3  UNL     1      21.972  -1.728  55.133  1.00  0.00    -0.362 OA
HETATM   27  C18 UNL     1      20.863  -1.588  54.337  1.00  0.00     0.178 C 
HETATM   28  C19 UNL     1      20.528  -0.160  53.971  1.00  0.00     0.065 C 
HETATM   29  C20 UNL     1      19.586  -0.206  52.803  1.00  0.00     0.016 C 
ENDBRANCH  21  22
ENDBRANCH  10  21
BRANCH   1  30
HETATM   30  O1  UNL     1      20.786   2.512  50.199  1.00  0.00    -0.353 OA
HETATM   31  C1  UNL     1      20.322   1.438  49.444  1.00  0.00     0.210 C 
ENDBRANCH   1  30
TORSDOF 5
ENDMDL
MODEL 2
REMARK VINA RESULT:      -8.8      3.443      5.726
REMARK  5 active torsions:
REMARK  status: ('A' for Active; 'I' for Inactive)
REMARK    1  A    between atoms: O1_2  and  C2_3 
REMARK    2  A    between atoms: C6_9  and  N3_10 
REMARK    3  A    between atoms: N3_10  and  C7_11 
REMARK    4  A    between atoms: C15_21  and  O2_22 
REMARK    5  A    between atoms: O2_22  and  C16_23 
ROOT
HETATM    1  C2  UNL     1      25.338  -0.488  54.730  1.00  0.00     0.103 A 
HETATM    2  C3  UNL     1      26.531   0.095  55.095  1.00  0.00     0.072 A 
HETATM    3  C4  UNL     1      27.095   0.938  54.165  1.00  0.00     0.075 A 
HETATM    4  N1  UNL     1      28.276   1.494  54.569  1.00  0.00    -0.241 NA
HETATM    5  C5  UNL     1      28.897   2.328  53.722  1.00  0.00     0.236 A 
HETATM    6  N2  UNL     1      28.330   2.568  52.540  1.00  0.00    -0.224 NA
HETATM    7  C6  UNL     1      27.185   2.068  52.073  1.00  0.00     0.142 A 
HETATM    8  C13 UNL     1      26.532   1.212  52.920  1.00  0.00     0.042 A 
HETATM    9  C14 UNL     1      25.340   0.579  52.652  1.00  0.00     0.057 A 
HETATM   10  C15 UNL     1      24.686  -0.295  53.530  1.00  0.00     0.106 A 
ENDROOT
BRANCH   7  11
HETATM   11  N3  UNL     1      26.622   2.351  50.810  1.00  0.00    -0.340 N 
HETATM   12  H6  UNL     1      26.391   1.597  50.137  1.00  0.00     0.167 HD
BRANCH  11  13
HETATM   13  C7  UNL     1      26.293   3.612  50.257  1.00  0.00     0.035 A 
HETATM   14  C8  UNL     1      27.003   4.205  49.245  1.00  0.00     0.032 A 
HETATM   15  C9  UNL     1      26.719   5.428  48.680  1.00  0.00     0.046 A 
HETATM   16  C10 UNL     1      25.638   6.146  49.146  1.00  0.00     0.138 A 
HETATM   17  F1  UNL     1      25.282   7.347  48.659  1.00  0.00    -0.204 F 
HETATM   18  C11 UNL     1      24.886   5.603  50.160  1.00  0.00     0.074 A 
HETATM   19 CL1  UNL     1      23.507   6.471  50.786  1.00  0.00    -0.081 Cl
HETATM   20  C12 UNL     1      25.230   4.376  50.675  1.00  0.00     0.056 A 
ENDBRANCH  11  13
ENDBRANCH   7  11
BRANCH  10  21
HETATM   21  O2  UNL     1      23.531  -0.816  53.090  1.00  0.00    -0.312 OA
BRANCH  21  22
HETATM   22  C16 UNL     1      22.283  -0.361  52.802  1.00  0.00     0.370 C 
HETATM   23  N4  UNL     1      22.046   1.031  53.196  1.00  0.00     0.136 N 
HETATM   24  C17 UNL     1      20.897   1.477  52.430  1.00  0.00     0.441 C 
HETATM   25  H12 UNL     1      21.785   1.091  54.204  1.00  0.00     0.322 HD
HETATM   26  O3  UNL     1      19.761   0.721  52.723  1.00  0.00    -0.362 OA
HETATM   27  C18 UNL     1      19.986  -0.228  53.689  1.00  0.00     0.178 C 
HETATM   28  C19 UNL     1      21.148  -1.152  53.406  1.00  0.00     0.065 C 
HETATM   29  C20 UNL     1      21.511  -1.824  54.697  1.00  0.00     0.016 C 
ENDBRANCH  21  22
ENDBRANCH  10  21
BRANCH   1  30
HETATM   30  O1  UNL     1      24.738  -1.344  55.641  1.00  0.00    -0.353 OA
HETATM   31  C1  UNL     1      24.933  -1.155  57.007  1.00  0.00     0.210 C 
ENDBRANCH   1  30
TORSDOF 5
ENDMDL
MODEL 3
REMARK VINA RESULT:      -8.8      3.696      6.510
REMARK  5 active torsions:
REMARK  status: ('A' for Active; 'I' for Inactive)
REMARK    1  A    between atoms: O1_2  and  C2_3 
REMARK    2  A    between atoms: C6_9  and  N3_10 
REMARK    3  A    between atoms: N3_10  and  C7_11 
REMARK    4  A    between atoms: C15_21  and  O2_22 
REMARK    5  A    between atoms: O2_22  and  C16_23 
ROOT
HETATM    1  C2  UNL     1      23.153   0.194  53.422  1.00  0.00     0.103 A 
HETATM    2  C3  UNL     1      21.830   0.575  53.467  1.00  0.00     0.072 A 
HETATM    3  C4  UNL     1      21.451   1.530  52.551  1.00  0.00     0.075 A 
HETATM    4  N1  UNL     1      20.132   1.877  52.631  1.00  0.00    -0.241 NA
HETATM    5  C5  UNL     1      19.677   2.804  51.775  1.00  0.00     0.236 A 
HETATM    6  N2  UNL     1      20.531   3.331  50.898  1.00  0.00    -0.224 NA
HETATM    7  C6  UNL     1      21.827   3.047  50.757  1.00  0.00     0.142 A 
HETATM    8  C13 UNL     1      22.316   2.103  51.620  1.00  0.00     0.042 A 
HETATM    9  C14 UNL     1      23.616   1.654  51.659  1.00  0.00     0.057 A 
HETATM   10  C15 UNL     1      24.100   0.688  52.550  1.00  0.00     0.106 A 
ENDROOT
BRANCH   7  11
HETATM   11  N3  UNL     1      22.695   3.633  49.811  1.00  0.00    -0.340 N 
HETATM   12  H6  UNL     1      22.731   3.303  48.829  1.00  0.00     0.167 HD
BRANCH  11  13
HETATM   13  C7  UNL     1      23.612   4.695  49.999  1.00  0.00     0.035 A 
HETATM   14  C8  UNL     1      23.416   5.716  50.894  1.00  0.00     0.032 A 
HETATM   15  C9  UNL     1      24.278   6.768  51.108  1.00  0.00     0.046 A 
HETATM   16  C10 UNL     1      25.446   6.834  50.379  1.00  0.00     0.138 A 
HETATM   17  F1  UNL     1      26.349   7.820  50.516  1.00  0.00    -0.204 F 
HETATM   18  C11 UNL     1      25.700   5.839  49.466  1.00  0.00     0.074 A 
HETATM   19 CL1  UNL     1      27.164   5.876  48.517  1.00  0.00    -0.081 Cl
HETATM   20  C12 UNL     1      24.791   4.819  49.306  1.00  0.00     0.056 A 
ENDBRANCH  11  13
ENDBRANCH   7  11
BRANCH  10  21
HETATM   21  O2  UNL     1      25.401   0.380  52.435  1.00  0.00    -0.312 OA
BRANCH  21  22
HETATM   22  C16 UNL     1      26.546   0.638  53.120  1.00  0.00     0.370 C 
HETATM   23  N4  UNL     1      27.495   1.494  52.403  1.00  0.00     0.136 N 
HETATM   24  C17 UNL     1      28.395   2.028  53.409  1.00  0.00     0.441 C 
HETATM   25  H12 UNL     1      28.073   0.933  51.741  1.00  0.00     0.322 HD
HETATM   26  O3  UNL     1      29.098   1.014  54.057  1.00  0.00    -0.362 OA
HETATM   27  C18 UNL     1      28.809  -0.235  53.567  1.00  0.00     0.178 C 
HETATM   28  C19 UNL     1      27.336  -0.576  53.544  1.00  0.00     0.065 C 
HETATM   29  C20 UNL     1      27.163  -1.751  52.627  1.00  0.00     0.016 C 
ENDBRANCH  21  22
ENDBRANCH  10  21
BRANCH   1  30
HETATM   30  O1  UNL     1      23.573  -0.767  54.330  1.00  0.00    -0.353 OA
HETATM   31  C1  UNL     1      22.677  -1.285  55.261  1.00  0.00     0.210 C 
ENDBRANCH   1  30
TORSDOF 5
ENDMDL
MODEL 4
REMARK VINA RESULT:      -8.8      2.489      5.183
REMARK  5 active torsions:
REMARK  status: ('A' for Active; 'I' for Inactive)
REMARK    1  A    between atoms: O1_2  and  C2_3 
REMARK    2  A    between atoms: C6_9  and  N3_10 
REMARK    3  A    between atoms: N3_10  and  C7_11 
REMARK    4  A    between atoms: C15_21  and  O2_22 
REMARK    5  A    between atoms: O2_22  and  C16_23 
ROOT
HETATM    1  C2  UNL     1      19.988   0.605  52.272  1.00  0.00     0.103 A 
HETATM    2  C3  UNL     1      20.169  -0.153  53.408  1.00  0.00     0.072 A 
HETATM    3  C4  UNL     1      21.475  -0.387  53.771  1.00  0.00     0.075 A 
HETATM    4  N1  UNL     1      21.607  -1.142  54.902  1.00  0.00    -0.241 NA
HETATM    5  C5  UNL     1      22.848  -1.420  55.327  1.00  0.00     0.236 A 
HETATM    6  N2  UNL     1      23.878  -0.946  54.627  1.00  0.00    -0.224 NA
HETATM    7  C6  UNL     1      23.834  -0.206  53.518  1.00  0.00     0.142 A 
HETATM    8  C13 UNL     1      22.577   0.091  53.064  1.00  0.00     0.042 A 
HETATM    9  C14 UNL     1      22.289   0.837  51.944  1.00  0.00     0.057 A 
HETATM   10  C15 UNL     1      20.996   1.131  51.492  1.00  0.00     0.106 A 
ENDROOT
BRANCH   7  11
HETATM   11  N3  UNL     1      24.956   0.274  52.809  1.00  0.00    -0.340 N 
HETATM   12  H6  UNL     1      24.853   0.893  51.983  1.00  0.00     0.167 HD
BRANCH  11  13
HETATM   13  C7  UNL     1      26.327   0.025  53.060  1.00  0.00     0.035 A 
HETATM   14  C8  UNL     1      26.939  -1.174  52.802  1.00  0.00     0.032 A 
HETATM   15  C9  UNL     1      28.267  -1.459  53.031  1.00  0.00     0.046 A 
HETATM   16  C10 UNL     1      29.078  -0.481  53.565  1.00  0.00     0.138 A 
HETATM   17  F1  UNL     1      30.384  -0.663  53.825  1.00  0.00    -0.204 F 
HETATM   18  C11 UNL     1      28.522   0.744  53.845  1.00  0.00     0.074 A 
HETATM   19 CL1  UNL     1      29.506   2.016  54.523  1.00  0.00    -0.081 Cl
HETATM   20  C12 UNL     1      27.188   0.955  53.590  1.00  0.00     0.056 A 
ENDBRANCH  11  13
ENDBRANCH   7  11
BRANCH  10  21
HETATM   21  O2  UNL     1      20.917   1.874  50.378  1.00  0.00    -0.312 OA
BRANCH  21  22
HETATM   22  C16 UNL     1      21.421   3.056  49.936  1.00  0.00     0.370 C 
HETATM   23  N4  UNL     1      20.409   3.998  49.451  1.00  0.00     0.136 N 
HETATM   24  C17 UNL     1      21.035   5.307  49.464  1.00  0.00     0.441 C 
HETATM   25  H12 UNL     1      20.154   3.790  48.461  1.00  0.00     0.322 HD
HETATM   26  O3  UNL     1      22.143   5.353  48.617  1.00  0.00    -0.362 OA
HETATM   27  C18 UNL     1      22.350   4.176  47.944  1.00  0.00     0.178 C 
HETATM   28  C19 UNL     1      22.442   2.953  48.829  1.00  0.00     0.065 C 
HETATM   29  C20 UNL     1      22.251   1.750  47.952  1.00  0.00     0.016 C 
ENDBRANCH  21  22
ENDBRANCH  10  21
BRANCH   1  30
HETATM   30  O1  UNL     1      18.685   0.863  51.875  1.00  0.00    -0.353 OA
HETATM   31  C1  UNL     1      17.916  -0.152  51.309  1.00  0.00     0.210 C 
ENDBRANCH   1  30
TORSDOF 5
ENDMDL
MODEL 5
REMARK VINA RESULT:      -8.7      4.209      6.837
REMARK  5 active torsions:
REMARK  status: ('A' for Active; 'I' for Inactive)
REMARK    1  A    between atoms: O1_2  and  C2_3 
REMARK    2  A    between atoms: C6_9  and  N3_10 
REMARK    3  A    between atoms: N3_10  and  C7_11 
REMARK    4  A    between atoms: C15_21  and  O2_22 
REMARK    5  A    between atoms: O2_22  and  C16_23 
ROOT
HETATM    1  C2  UNL     1      24.171   0.432  53.413  1.00  0.00     0.103 A 
HETATM    2  C3  UNL     1      22.864   0.681  53.057  1.00  0.00     0.072 A 
HETATM    3  C4  UNL     1      22.590   1.963  52.639  1.00  0.00     0.075 A 
HETATM    4  N1  UNL     1      21.283   2.163  52.296  1.00  0.00    -0.241 NA
HETATM    5  C5  UNL     1      20.928   3.387  51.877  1.00  0.00     0.236 A 
HETATM    6  N2  UNL     1      21.864   4.333  51.819  1.00  0.00    -0.224 NA
HETATM    7  C6  UNL     1      23.155   4.218  52.134  1.00  0.00     0.142 A 
HETATM    8  C13 UNL     1      23.543   2.977  52.565  1.00  0.00     0.042 A 
HETATM    9  C14 UNL     1      24.819   2.627  52.943  1.00  0.00     0.057 A 
HETATM   10  C15 UNL     1      25.198   1.352  53.382  1.00  0.00     0.106 A 
ENDROOT
BRANCH   7  11
HETATM   11  N3  UNL     1      24.112   5.252  52.056  1.00  0.00    -0.340 N 
HETATM   12  H6  UNL     1      24.382   5.806  52.890  1.00  0.00     0.167 HD
BRANCH  11  13
HETATM   13  C7  UNL     1      24.831   5.702  50.922  1.00  0.00     0.035 A 
HETATM   14  C8  UNL     1      25.430   4.859  50.022  1.00  0.00     0.032 A 
HETATM   15  C9  UNL     1      26.139   5.252  48.909  1.00  0.00     0.046 A 
HETATM   16  C10 UNL     1      26.279   6.597  48.646  1.00  0.00     0.138 A 
HETATM   17  F1  UNL     1      26.952   7.078  47.586  1.00  0.00    -0.204 F 
HETATM   18  C11 UNL     1      25.700   7.493  49.512  1.00  0.00     0.074 A 
HETATM   19 CL1  UNL     1      25.848   9.208  49.225  1.00  0.00    -0.081 Cl
HETATM   20  C12 UNL     1      25.007   7.026  50.604  1.00  0.00     0.056 A 
ENDBRANCH  11  13
ENDBRANCH   7  11
BRANCH  10  21
HETATM   21  O2  UNL     1      26.491   1.203  53.708  1.00  0.00    -0.312 OA
BRANCH  21  22
HETATM   22  C16 UNL     1      27.525   0.408  53.324  1.00  0.00     0.370 C 
HETATM   23  N4  UNL     1      27.720  -0.774  54.169  1.00  0.00     0.136 N 
HETATM   24  C17 UNL     1      28.510  -1.704  53.384  1.00  0.00     0.441 C 
HETATM   25  H12 UNL     1      28.279  -0.535  55.017  1.00  0.00     0.322 HD
HETATM   26  O3  UNL     1      29.756  -1.168  53.057  1.00  0.00    -0.362 OA
HETATM   27  C18 UNL     1      29.956   0.082  53.586  1.00  0.00     0.178 C 
HETATM   28  C19 UNL     1      28.873   1.085  53.257  1.00  0.00     0.065 C 
HETATM   29  C20 UNL     1      29.015   2.228  54.218  1.00  0.00     0.016 C 
ENDBRANCH  21  22
ENDBRANCH  10  21
BRANCH   1  30
HETATM   30  O1  UNL     1      24.487  -0.849  53.840  1.00  0.00    -0.353 OA
HETATM   31  C1  UNL     1      24.342  -1.191  55.182  1.00  0.00     0.210 C 
ENDBRANCH   1  30
TORSDOF 5
ENDMDL
MODEL 6
REMARK VINA RESULT:      -8.6      2.391      5.139
REMARK  5 active torsions:
REMARK  status: ('A' for Active; 'I' for Inactive)
REMARK    1  A    between atoms: O1_2  and  C2_3 
REMARK    2  A    between atoms: C6_9  and  N3_10 
REMARK    3  A    between atoms: N3_10  and  C7_11 
REMARK    4  A    between atoms: C15_21  and  O2_22 
REMARK    5  A    between atoms: O2_22  and  C16_23 
ROOT
HETATM    1  C2  UNL     1      19.803   0.194  52.277  1.00  0.00     0.103 A 
HETATM    2  C3  UNL     1      20.082  -0.436  53.470  1.00  0.00     0.072 A 
HETATM    3  C4  UNL     1      21.416  -0.557  53.785  1.00  0.00     0.075 A 
HETATM    4  N1  UNL     1      21.646  -1.187  54.975  1.00  0.00    -0.241 NA
HETATM    5  C5  UNL     1      22.920  -1.349  55.361  1.00  0.00     0.236 A 
HETATM    6  N2  UNL     1      23.886  -0.889  54.567  1.00  0.00    -0.224 NA
HETATM    7  C6  UNL     1      23.745  -0.265  53.395  1.00  0.00     0.142 A 
HETATM    8  C13 UNL     1      22.452  -0.088  52.980  1.00  0.00     0.042 A 
HETATM    9  C14 UNL     1      22.068   0.525  51.810  1.00  0.00     0.057 A 
HETATM   10  C15 UNL     1      20.740   0.697  51.399  1.00  0.00     0.106 A 
ENDROOT
BRANCH   7  11
HETATM   11  N3  UNL     1      24.801   0.206  52.586  1.00  0.00    -0.340 N 
HETATM   12  H6  UNL     1      24.627   0.618  51.651  1.00  0.00     0.167 HD
BRANCH  11  13
HETATM   13  C7  UNL     1      26.189   0.209  52.866  1.00  0.00     0.035 A 
HETATM   14  C8  UNL     1      26.911   1.350  53.101  1.00  0.00     0.032 A 
HETATM   15  C9  UNL     1      28.260   1.400  53.375  1.00  0.00     0.046 A 
HETATM   16  C10 UNL     1      28.976   0.223  53.424  1.00  0.00     0.138 A 
HETATM   17  F1  UNL     1      30.294   0.169  53.683  1.00  0.00    -0.204 F 
HETATM   18  C11 UNL     1      28.307  -0.955  53.197  1.00  0.00     0.074 A 
HETATM   19 CL1  UNL     1      29.167  -2.473  53.248  1.00  0.00    -0.081 Cl
HETATM   20  C12 UNL     1      26.959  -0.927  52.929  1.00  0.00     0.056 A 
ENDBRANCH  11  13
ENDBRANCH   7  11
BRANCH  10  21
HETATM   21  O2  UNL     1      20.563   1.321  50.224  1.00  0.00    -0.312 OA
BRANCH  21  22
HETATM   22  C16 UNL     1      20.516   2.604  49.780  1.00  0.00     0.370 C 
HETATM   23  N4  UNL     1      19.279   2.951  49.073  1.00  0.00     0.136 N 
HETATM   24  C17 UNL     1      19.199   4.399  49.087  1.00  0.00     0.441 C 
HETATM   25  H12 UNL     1      19.329   2.655  48.073  1.00  0.00     0.322 HD
HETATM   26  O3  UNL     1      20.280   4.979  48.422  1.00  0.00    -0.362 OA
HETATM   27  C18 UNL     1      21.133   4.051  47.880  1.00  0.00     0.178 C 
HETATM   28  C19 UNL     1      21.638   3.013  48.856  1.00  0.00     0.065 C 
HETATM   29  C20 UNL     1      22.193   1.874  48.052  1.00  0.00     0.016 C 
ENDBRANCH  21  22
ENDBRANCH  10  21
BRANCH   1  30
HETATM   30  O1  UNL     1      18.469   0.335  51.924  1.00  0.00    -0.353 OA
HETATM   31  C1  UNL     1      17.623  -0.772  51.941  1.00  0.00     0.210 C 
ENDBRANCH   1  30
TORSDOF 5
ENDMDL
MODEL 7
REMARK VINA RESULT:      -8.5      3.634      5.718
REMARK  5 active torsions:
REMARK  status: ('A' for Active; 'I' for Inactive)
REMARK    1  A    between atoms: O1_2  and  C2_3 
REMARK    2  A    between atoms: C6_9  and  N3_10 
REMARK    3  A    between atoms: N3_10  and  C7_11 
REMARK    4  A    between atoms: C15_21  and  O2_22 
REMARK    5  A    between atoms: O2_22  and  C16_23 
ROOT
HETATM    1  C2  UNL     1      23.278  -0.012  53.142  1.00  0.00     0.103 A 
HETATM    2  C3  UNL     1      24.579   0.039  53.592  1.00  0.00     0.072 A 
HETATM    3  C4  UNL     1      25.423   0.871  52.892  1.00  0.00     0.075 A 
HETATM    4  N1  UNL     1      26.701   0.890  53.373  1.00  0.00    -0.241 NA
HETATM    5  C5  UNL     1      27.592   1.674  52.748  1.00  0.00     0.236 A 
HETATM    6  N2  UNL     1      27.183   2.387  51.699  1.00  0.00    -0.224 NA
HETATM    7  C6  UNL     1      25.959   2.423  51.170  1.00  0.00     0.142 A 
HETATM    8  C13 UNL     1      25.031   1.630  51.791  1.00  0.00     0.042 A 
HETATM    9  C14 UNL     1      23.711   1.508  51.421  1.00  0.00     0.057 A 
HETATM   10  C15 UNL     1      22.774   0.691  52.067  1.00  0.00     0.106 A 
ENDROOT
BRANCH   7  11
HETATM   11  N3  UNL     1      25.571   3.195  50.054  1.00  0.00    -0.340 N 
HETATM   12  H6  UNL     1      24.838   2.870  49.397  1.00  0.00     0.167 HD
BRANCH  11  13
HETATM   13  C7  UNL     1      26.064   4.457  49.645  1.00  0.00     0.035 A 
HETATM   14  C8  UNL     1      27.170   4.617  48.850  1.00  0.00     0.032 A 
HETATM   15  C9  UNL     1      27.684   5.824  48.430  1.00  0.00     0.046 A 
HETATM   16  C10 UNL     1      27.062   6.989  48.822  1.00  0.00     0.138 A 
HETATM   17  F1  UNL     1      27.488   8.213  48.465  1.00  0.00    -0.204 F 
HETATM   18  C11 UNL     1      25.947   6.894  49.620  1.00  0.00     0.074 A 
HETATM   19 CL1  UNL     1      25.122   8.340  50.145  1.00  0.00    -0.081 Cl
HETATM   20  C12 UNL     1      25.491   5.654  50.001  1.00  0.00     0.056 A 
ENDBRANCH  11  13
ENDBRANCH   7  11
BRANCH  10  21
HETATM   21  O2  UNL     1      21.533   0.703  51.559  1.00  0.00    -0.312 OA
BRANCH  21  22
HETATM   22  C16 UNL     1      20.586   1.637  51.277  1.00  0.00     0.370 C 
HETATM   23  N4  UNL     1      20.476   2.703  52.277  1.00  0.00     0.136 N 
HETATM   24  C17 UNL     1      19.796   3.803  51.620  1.00  0.00     0.441 C 
HETATM   25  H12 UNL     1      19.874   2.402  53.074  1.00  0.00     0.322 HD
HETATM   26  O3  UNL     1      18.516   3.438  51.201  1.00  0.00    -0.362 OA
HETATM   27  C18 UNL     1      18.189   2.150  51.545  1.00  0.00     0.178 C 
HETATM   28  C19 UNL     1      19.185   1.106  51.094  1.00  0.00     0.065 C 
HETATM   29  C20 UNL     1      18.913  -0.142  51.881  1.00  0.00     0.016 C 
ENDBRANCH  21  22
ENDBRANCH  10  21
BRANCH   1  30
HETATM   30  O1  UNL     1      22.397  -0.839  53.822  1.00  0.00    -0.353 OA
HETATM   31  C1  UNL     1      21.499  -0.296  54.739  1.00  0.00     0.210 C 
ENDBRANCH   1  30
TORSDOF 5
ENDMDL
MODEL 8
REMARK VINA RESULT:      -8.5      3.727      6.623
REMARK  5 active torsions:
REMARK  status: ('A' for Active; 'I' for Inactive)
REMARK    1  A    between atoms: O1_2  and  C2_3 
REMARK    2  A    between atoms: C6_9  and  N3_10 
REMARK    3  A    between atoms: N3_10  and  C7_11 
REMARK    4  A    between atoms: C15_21  and  O2_22 
REMARK    5  A    between atoms: O2_22  and  C16_23 
ROOT
HETATM    1  C2  UNL     1      25.276   3.511  50.431  1.00  0.00     0.103 A 
HETATM    2  C3  UNL     1      24.521   4.407  49.707  1.00  0.00     0.072 A 
HETATM    3  C4  UNL     1      23.212   4.548  50.107  1.00  0.00     0.075 A 
HETATM    4  N1  UNL     1      22.502   5.446  49.363  1.00  0.00    -0.241 NA
HETATM    5  C5  UNL     1      21.215   5.645  49.684  1.00  0.00     0.236 A 
HETATM    6  N2  UNL     1      20.704   4.960  50.706  1.00  0.00    -0.224 NA
HETATM    7  C6  UNL     1      21.328   4.069  51.479  1.00  0.00     0.142 A 
HETATM    8  C13 UNL     1      22.644   3.849  51.171  1.00  0.00     0.042 A 
HETATM    9  C14 UNL     1      23.482   2.978  51.828  1.00  0.00     0.057 A 
HETATM   10  C15 UNL     1      24.826   2.763  51.499  1.00  0.00     0.106 A 
ENDROOT
BRANCH   7  11
HETATM   11  N3  UNL     1      20.743   3.366  52.554  1.00  0.00    -0.340 N 
HETATM   12  H6  UNL     1      20.753   3.743  53.520  1.00  0.00     0.167 HD
BRANCH  11  13
HETATM   13  C7  UNL     1      20.085   2.113  52.530  1.00  0.00     0.035 A 
HETATM   14  C8  UNL     1      18.953   1.865  51.796  1.00  0.00     0.032 A 
HETATM   15  C9  UNL     1      18.281   0.665  51.744  1.00  0.00     0.046 A 
HETATM   16  C10 UNL     1      18.755  -0.400  52.480  1.00  0.00     0.138 A 
HETATM   17  F1  UNL     1      18.169  -1.609  52.495  1.00  0.00    -0.204 F 
HETATM   18  C11 UNL     1      19.887  -0.214  53.236  1.00  0.00     0.074 A 
HETATM   19 CL1  UNL     1      20.530  -1.530  54.186  1.00  0.00    -0.081 Cl
HETATM   20  C12 UNL     1      20.506   1.014  53.238  1.00  0.00     0.056 A 
ENDBRANCH  11  13
ENDBRANCH   7  11
BRANCH  10  21
HETATM   21  O2  UNL     1      25.483   1.872  52.257  1.00  0.00    -0.312 OA
BRANCH  21  22
HETATM   22  C16 UNL     1      26.474   1.901  53.187  1.00  0.00     0.370 C 
HETATM   23  N4  UNL     1      27.824   1.990  52.623  1.00  0.00     0.136 N 
HETATM   24  C17 UNL     1      28.679   2.465  53.696  1.00  0.00     0.441 C 
HETATM   25  H12 UNL     1      28.174   1.046  52.348  1.00  0.00     0.322 HD
HETATM   26  O3  UNL     1      28.692   1.577  54.771  1.00  0.00    -0.362 OA
HETATM   27  C18 UNL     1      27.937   0.453  54.546  1.00  0.00     0.178 C 
HETATM   28  C19 UNL     1      26.508   0.728  54.136  1.00  0.00     0.065 C 
HETATM   29  C20 UNL     1      25.963  -0.537  53.540  1.00  0.00     0.016 C 
ENDBRANCH  21  22
ENDBRANCH  10  21
BRANCH   1  30
HETATM   30  O1  UNL     1      26.601   3.341  50.057  1.00  0.00    -0.353 OA
HETATM   31  C1  UNL     1      27.168   4.180  49.101  1.00  0.00     0.210 C 
ENDBRANCH   1  30
TORSDOF 5
ENDMDL
MODEL 9
REMARK VINA RESULT:      -8.5      3.250      6.327
REMARK  5 active torsions:
REMARK  status: ('A' for Active; 'I' for Inactive)
REMARK    1  A    between atoms: O1_2  and  C2_3 
REMARK    2  A    between atoms: C6_9  and  N3_10 
REMARK    3  A    between atoms: N3_10  and  C7_11 
REMARK    4  A    between atoms: C15_21  and  O2_22 
REMARK    5  A    between atoms: O2_22  and  C16_23 
ROOT
HETATM    1  C2  UNL     1      23.910   4.864  48.835  1.00  0.00     0.103 A 
HETATM    2  C3  UNL     1      23.040   3.831  49.102  1.00  0.00     0.072 A 
HETATM    3  C4  UNL     1      23.396   3.001  50.140  1.00  0.00     0.075 A 
HETATM    4  N1  UNL     1      22.504   1.991  50.370  1.00  0.00    -0.241 NA
HETATM    5  C5  UNL     1      22.774   1.133  51.365  1.00  0.00     0.236 A 
HETATM    6  N2  UNL     1      23.889   1.312  52.071  1.00  0.00    -0.224 NA
HETATM    7  C6  UNL     1      24.806   2.268  51.911  1.00  0.00     0.142 A 
HETATM    8  C13 UNL     1      24.553   3.157  50.900  1.00  0.00     0.042 A 
HETATM    9  C14 UNL     1      25.356   4.220  50.553  1.00  0.00     0.057 A 
HETATM   10  C15 UNL     1      25.083   5.120  49.515  1.00  0.00     0.106 A 
ENDROOT
BRANCH   7  11
HETATM   11  N3  UNL     1      25.977   2.418  52.686  1.00  0.00    -0.340 N 
HETATM   12  H6  UNL     1      26.209   3.315  53.151  1.00  0.00     0.167 HD
BRANCH  11  13
HETATM   13  C7  UNL     1      26.980   1.457  52.957  1.00  0.00     0.035 A 
HETATM   14  C8  UNL     1      28.211   1.773  53.473  1.00  0.00     0.032 A 
HETATM   15  C9  UNL     1      29.215   0.872  53.750  1.00  0.00     0.046 A 
HETATM   16  C10 UNL     1      29.002  -0.466  53.501  1.00  0.00     0.138 A 
HETATM   17  F1  UNL     1      29.919  -1.419  53.737  1.00  0.00    -0.204 F 
HETATM   18  C11 UNL     1      27.786  -0.845  52.983  1.00  0.00     0.074 A 
HETATM   19 CL1  UNL     1      27.465  -2.527  52.649  1.00  0.00    -0.081 Cl
HETATM   20  C12 UNL     1      26.831   0.111  52.731  1.00  0.00     0.056 A 
ENDBRANCH  11  13
ENDBRANCH   7  11
BRANCH  10  21
HETATM   21  O2  UNL     1      25.986   6.093  49.327  1.00  0.00    -0.312 OA
BRANCH  21  22
HETATM   22  C16 UNL     1      27.112   6.273  48.586  1.00  0.00     0.370 C 
HETATM   23  N4  UNL     1      28.281   5.543  49.084  1.00  0.00     0.136 N 
HETATM   24  C17 UNL     1      29.213   5.468  47.974  1.00  0.00     0.441 C 
HETATM   25  H12 UNL     1      28.754   6.076  49.846  1.00  0.00     0.322 HD
HETATM   26  O3  UNL     1      29.613   6.737  47.555  1.00  0.00    -0.362 OA
HETATM   27  C18 UNL     1      29.071   7.745  48.312  1.00  0.00     0.178 C 
HETATM   28  C19 UNL     1      27.564   7.704  48.429  1.00  0.00     0.065 C 
HETATM   29  C20 UNL     1      27.181   8.581  49.585  1.00  0.00     0.016 C 
ENDBRANCH  21  22
ENDBRANCH  10  21
BRANCH   1  30
HETATM   30  O1  UNL     1      23.586   5.723  47.795  1.00  0.00    -0.353 OA
HETATM   31  C1  UNL     1      22.306   5.701  47.248  1.00  0.00     0.210 C 
ENDBRANCH   1  30
TORSDOF 5
ENDMDL
