MODEL 1
REMARK VINA RESULT:      -9.5      0.000      0.000
REMARK  7 active torsions:
REMARK  status: ('A' for Active; 'I' for Inactive)
REMARK    1  A    between atoms: O1_2  and  C2_3 
REMARK    2  A    between atoms: C6_9  and  N3_10 
REMARK    3  A    between atoms: N3_10  and  C7_11 
REMARK    4  A    between atoms: C11_16  and  O2_17 
REMARK    5  A    between atoms: C15_21  and  C16_22 
REMARK    6  A    between atoms: C16_22  and  C17_23 
REMARK    7  A    between atoms: N4_26  and  O3_27 
ROOT
HETATM    1  C2  UNL     1      20.693   2.480  52.548  1.00  0.00     0.076 A 
HETATM    2  C3  UNL     1      20.610   1.421  53.404  1.00  0.00     0.070 A 
HETATM    3  C4  UNL     1      21.717   0.658  53.616  1.00  0.00     0.074 A 
HETATM    4  N1  UNL     1      21.570  -0.369  54.469  1.00  0.00    -0.241 NA
HETATM    5  C5  UNL     1      22.608  -1.178  54.739  1.00  0.00     0.236 A 
HETATM    6  N2  UNL     1      23.765  -0.911  54.128  1.00  0.00    -0.224 NA
HETATM    7  C6  UNL     1      23.984   0.085  53.277  1.00  0.00     0.142 A 
HETATM    8  C13 UNL     1      22.926   0.916  52.995  1.00  0.00     0.039 A 
HETATM    9  C14 UNL     1      22.939   2.000  52.144  1.00  0.00     0.027 A 
HETATM   10  C15 UNL     1      21.838   2.825  51.881  1.00  0.00    -0.023 A 
ENDROOT
BRANCH   7  11
HETATM   11  N3  UNL     1      25.223   0.346  52.639  1.00  0.00    -0.340 N 
HETATM   12  H6  UNL     1      25.302   0.954  51.822  1.00  0.00     0.167 HD
BRANCH  11  13
HETATM   13  C7  UNL     1      26.527  -0.124  52.949  1.00  0.00     0.036 A 
HETATM   14  C8  UNL     1      27.578   0.652  53.436  1.00  0.00     0.032 A 
HETATM   15  C9  UNL     1      28.823   0.148  53.714  1.00  0.00     0.047 A 
HETATM   16  C10 UNL     1      29.100  -1.179  53.521  1.00  0.00     0.149 A 
HETATM   17  F1  UNL     1      30.361  -1.564  53.829  1.00  0.00    -0.203 F 
HETATM   18  C11 UNL     1      28.106  -2.007  53.040  1.00  0.00     0.106 A 
HETATM   19  C12 UNL     1      26.872  -1.448  52.777  1.00  0.00     0.069 A 
BRANCH  18  20
HETATM   20  O2  UNL     1      28.459  -3.318  52.872  1.00  0.00    -0.358 OA
HETATM   21  H9  UNL     1      28.051  -3.939  52.177  1.00  0.00     0.217 HD
ENDBRANCH  18  20
ENDBRANCH  11  13
ENDBRANCH   7  11
BRANCH  10  22
HETATM   22  C16 UNL     1      22.095   3.919  50.912  1.00  0.00     0.047 C 
BRANCH  22  23
HETATM   23  C17 UNL     1      22.853   5.082  51.431  1.00  0.00     0.006 C 
HETATM   24  C18 UNL     1      22.113   6.365  51.123  1.00  0.00     0.023 C 
HETATM   25  C19 UNL     1      23.138   7.274  50.523  1.00  0.00     0.121 C 
HETATM   26  N4  UNL     1      24.410   6.755  50.985  1.00  0.00    -0.199 NA
HETATM   27  C20 UNL     1      24.192   5.299  50.718  1.00  0.00     0.125 C 
BRANCH  26  28
HETATM   28  O3  UNL     1      24.397   6.821  52.345  1.00  0.00    -0.313 OA
HETATM   29  H19 UNL     1      24.497   5.960  52.790  1.00  0.00     0.237 HD
ENDBRANCH  26  28
ENDBRANCH  22  23
ENDBRANCH  10  22
BRANCH   1  30
HETATM   30  O1  UNL     1      19.592   3.267  52.320  1.00  0.00    -0.355 OA
HETATM   31  C1  UNL     1      18.512   2.797  51.570  1.00  0.00     0.210 C 
ENDBRANCH   1  30
TORSDOF 7
ENDMDL
MODEL 2
REMARK VINA RESULT:      -9.3      2.267      4.960
REMARK  7 active torsions:
REMARK  status: ('A' for Active; 'I' for Inactive)
REMARK    1  A    between atoms: O1_2  and  C2_3 
REMARK    2  A    between atoms: C6_9  and  N3_10 
REMARK    3  A    between atoms: N3_10  and  C7_11 
REMARK    4  A    between atoms: C11_16  and  O2_17 
REMARK    5  A    between atoms: C15_21  and  C16_22 
REMARK    6  A    between atoms: C16_22  and  C17_23 
REMARK    7  A    between atoms: N4_26  and  O3_27 
ROOT
HETATM    1  C2  UNL     1      22.112   2.413  50.633  1.00  0.00     0.076 A 
HETATM    2  C3  UNL     1      23.020   2.980  49.788  1.00  0.00     0.070 A 
HETATM    3  C4  UNL     1      24.334   2.991  50.144  1.00  0.00     0.074 A 
HETATM    4  N1  UNL     1      25.177   3.564  49.270  1.00  0.00    -0.241 NA
HETATM    5  C5  UNL     1      26.492   3.622  49.537  1.00  0.00     0.236 A 
HETATM    6  N2  UNL     1      26.904   3.093  50.692  1.00  0.00    -0.224 NA
HETATM    7  C6  UNL     1      26.130   2.512  51.602  1.00  0.00     0.142 A 
HETATM    8  C13 UNL     1      24.783   2.449  51.335  1.00  0.00     0.039 A 
HETATM    9  C14 UNL     1      23.813   1.894  52.141  1.00  0.00     0.027 A 
HETATM   10  C15 UNL     1      22.447   1.849  51.835  1.00  0.00    -0.023 A 
ENDROOT
BRANCH   7  11
HETATM   11  N3  UNL     1      26.593   1.959  52.823  1.00  0.00    -0.340 N 
HETATM   12  H6  UNL     1      26.298   2.315  53.734  1.00  0.00     0.167 HD
BRANCH  11  13
HETATM   13  C7  UNL     1      27.490   0.882  53.056  1.00  0.00     0.036 A 
HETATM   14  C8  UNL     1      28.809   1.000  53.492  1.00  0.00     0.032 A 
HETATM   15  C9  UNL     1      29.636  -0.074  53.696  1.00  0.00     0.047 A 
HETATM   16  C10 UNL     1      29.191  -1.350  53.476  1.00  0.00     0.149 A 
HETATM   17  F1  UNL     1      30.094  -2.332  53.711  1.00  0.00    -0.203 F 
HETATM   18  C11 UNL     1      27.896  -1.543  53.043  1.00  0.00     0.106 A 
HETATM   19  C12 UNL     1      27.107  -0.427  52.853  1.00  0.00     0.069 A 
BRANCH  18  20
HETATM   20  O2  UNL     1      27.526  -2.845  52.845  1.00  0.00    -0.358 OA
HETATM   21  H9  UNL     1      27.951  -3.465  52.160  1.00  0.00     0.217 HD
ENDBRANCH  18  20
ENDBRANCH  11  13
ENDBRANCH   7  11
BRANCH  10  22
HETATM   22  C16 UNL     1      21.596   1.215  52.871  1.00  0.00     0.047 C 
BRANCH  22  23
HETATM   23  C17 UNL     1      22.256   0.198  53.723  1.00  0.00     0.006 C 
HETATM   24  C18 UNL     1      22.276  -1.140  53.015  1.00  0.00     0.023 C 
HETATM   25  C19 UNL     1      21.770  -2.123  54.022  1.00  0.00     0.121 C 
HETATM   26  N4  UNL     1      21.999  -1.491  55.306  1.00  0.00    -0.199 NA
HETATM   27  C20 UNL     1      21.475  -0.122  55.001  1.00  0.00     0.125 C 
BRANCH  26  28
HETATM   28  O3  UNL     1      23.341  -1.286  55.416  1.00  0.00    -0.313 OA
HETATM   29  H19 UNL     1      23.826  -1.335  54.572  1.00  0.00     0.237 HD
ENDBRANCH  26  28
ENDBRANCH  22  23
ENDBRANCH  10  22
BRANCH   1  30
HETATM   30  O1  UNL     1      20.782   2.386  50.295  1.00  0.00    -0.355 OA
HETATM   31  C1  UNL     1      20.297   1.488  49.343  1.00  0.00     0.210 C 
ENDBRANCH   1  30
TORSDOF 7
ENDMDL
MODEL 3
REMARK VINA RESULT:      -9.1      3.069      6.645
REMARK  7 active torsions:
REMARK  status: ('A' for Active; 'I' for Inactive)
REMARK    1  A    between atoms: O1_2  and  C2_3 
REMARK    2  A    between atoms: C6_9  and  N3_10 
REMARK    3  A    between atoms: N3_10  and  C7_11 
REMARK    4  A    between atoms: C11_16  and  O2_17 
REMARK    5  A    between atoms: C15_21  and  C16_22 
REMARK    6  A    between atoms: C16_22  and  C17_23 
REMARK    7  A    between atoms: N4_26  and  O3_27 
ROOT
HETATM    1  C2  UNL     1      24.540  -0.371  53.736  1.00  0.00     0.076 A 
HETATM    2  C3  UNL     1      23.234  -0.021  53.908  1.00  0.00     0.070 A 
HETATM    3  C4  UNL     1      22.671   0.869  53.045  1.00  0.00     0.074 A 
HETATM    4  N1  UNL     1      21.382   1.173  53.269  1.00  0.00    -0.241 NA
HETATM    5  C5  UNL     1      20.743   2.043  52.469  1.00  0.00     0.236 A 
HETATM    6  N2  UNL     1      21.443   2.575  51.465  1.00  0.00    -0.224 NA
HETATM    7  C6  UNL     1      22.716   2.322  51.183  1.00  0.00     0.142 A 
HETATM    8  C13 UNL     1      23.377   1.433  51.998  1.00  0.00     0.039 A 
HETATM    9  C14 UNL     1      24.691   1.035  51.882  1.00  0.00     0.027 A 
HETATM   10  C15 UNL     1      25.330   0.126  52.733  1.00  0.00    -0.023 A 
ENDROOT
BRANCH   7  11
HETATM   11  N3  UNL     1      23.438   2.903  50.109  1.00  0.00    -0.340 N 
HETATM   12  H6  UNL     1      23.480   2.477  49.181  1.00  0.00     0.167 HD
BRANCH  11  13
HETATM   13  C7  UNL     1      24.203   4.100  50.064  1.00  0.00     0.036 A 
HETATM   14  C8  UNL     1      25.355   4.301  49.306  1.00  0.00     0.032 A 
HETATM   15  C9  UNL     1      26.062   5.477  49.304  1.00  0.00     0.047 A 
HETATM   16  C10 UNL     1      25.655   6.538  50.068  1.00  0.00     0.149 A 
HETATM   17  F1  UNL     1      26.429   7.647  49.986  1.00  0.00    -0.203 F 
HETATM   18  C11 UNL     1      24.522   6.409  50.845  1.00  0.00     0.106 A 
HETATM   19  C12 UNL     1      23.851   5.205  50.810  1.00  0.00     0.069 A 
BRANCH  18  20
HETATM   20  O2  UNL     1      24.181   7.511  51.580  1.00  0.00    -0.358 OA
HETATM   21  H9  UNL     1      23.498   7.511  52.333  1.00  0.00     0.217 HD
ENDBRANCH  18  20
ENDBRANCH  11  13
ENDBRANCH   7  11
BRANCH  10  22
HETATM   22  C16 UNL     1      26.757  -0.129  52.417  1.00  0.00     0.047 C 
BRANCH  22  23
HETATM   23  C17 UNL     1      27.690   0.993  52.671  1.00  0.00     0.006 C 
HETATM   24  C18 UNL     1      28.969   0.476  53.294  1.00  0.00     0.023 C 
HETATM   25  C19 UNL     1      29.215   1.360  54.473  1.00  0.00     0.121 C 
HETATM   26  N4  UNL     1      28.477   2.574  54.188  1.00  0.00    -0.199 NA
HETATM   27  C20 UNL     1      27.184   1.974  53.733  1.00  0.00     0.125 C 
BRANCH  26  28
HETATM   28  O3  UNL     1      28.993   3.094  53.039  1.00  0.00    -0.313 OA
HETATM   29  H19 UNL     1      29.516   3.906  53.164  1.00  0.00     0.237 HD
ENDBRANCH  26  28
ENDBRANCH  22  23
ENDBRANCH  10  22
BRANCH   1  30
HETATM   30  O1  UNL     1      25.130  -1.268  54.590  1.00  0.00    -0.355 OA
HETATM   31  C1  UNL     1      24.911  -1.205  55.968  1.00  0.00     0.210 C 
ENDBRANCH   1  30
TORSDOF 7
ENDMDL
MODEL 4
REMARK VINA RESULT:      -9.0      3.073      6.195
REMARK  7 active torsions:
REMARK  status: ('A' for Active; 'I' for Inactive)
REMARK    1  A    between atoms: O1_2  and  C2_3 
REMARK    2  A    between atoms: C6_9  and  N3_10 
REMARK    3  A    between atoms: N3_10  and  C7_11 
REMARK    4  A    between atoms: C11_16  and  O2_17 
REMARK    5  A    between atoms: C15_21  and  C16_22 
REMARK    6  A    between atoms: C16_22  and  C17_23 
REMARK    7  A    between atoms: N4_26  and  O3_27 
ROOT
HETATM    1  C2  UNL     1      22.253   0.014  52.961  1.00  0.00     0.076 A 
HETATM    2  C3  UNL     1      21.153   0.724  52.579  1.00  0.00     0.070 A 
HETATM    3  C4  UNL     1      21.302   2.032  52.230  1.00  0.00     0.074 A 
HETATM    4  N1  UNL     1      20.182   2.676  51.864  1.00  0.00    -0.241 NA
HETATM    5  C5  UNL     1      20.232   3.969  51.504  1.00  0.00     0.236 A 
HETATM    6  N2  UNL     1      21.427   4.563  51.530  1.00  0.00    -0.224 NA
HETATM    7  C6  UNL     1      22.574   3.991  51.878  1.00  0.00     0.142 A 
HETATM    8  C13 UNL     1      22.530   2.668  52.248  1.00  0.00     0.039 A 
HETATM    9  C14 UNL     1      23.598   1.891  52.644  1.00  0.00     0.027 A 
HETATM   10  C15 UNL     1      23.514   0.544  53.015  1.00  0.00    -0.023 A 
ENDROOT
BRANCH   7  11
HETATM   11  N3  UNL     1      23.832   4.646  51.898  1.00  0.00    -0.340 N 
HETATM   12  H6  UNL     1      24.142   5.214  52.689  1.00  0.00     0.167 HD
BRANCH  11  13
HETATM   13  C7  UNL     1      24.865   4.671  50.924  1.00  0.00     0.036 A 
HETATM   14  C8  UNL     1      25.711   3.609  50.607  1.00  0.00     0.032 A 
HETATM   15  C9  UNL     1      26.700   3.687  49.660  1.00  0.00     0.047 A 
HETATM   16  C10 UNL     1      26.907   4.846  48.960  1.00  0.00     0.149 A 
HETATM   17  F1  UNL     1      27.910   4.807  48.050  1.00  0.00    -0.203 F 
HETATM   18  C11 UNL     1      26.107   5.939  49.221  1.00  0.00     0.106 A 
HETATM   19  C12 UNL     1      25.128   5.805  50.185  1.00  0.00     0.069 A 
BRANCH  18  20
HETATM   20  O2  UNL     1      26.375   7.059  48.483  1.00  0.00    -0.358 OA
HETATM   21  H9  UNL     1      26.038   7.991  48.710  1.00  0.00     0.217 HD
ENDBRANCH  18  20
ENDBRANCH  11  13
ENDBRANCH   7  11
BRANCH  10  22
HETATM   22  C16 UNL     1      24.800  -0.073  53.420  1.00  0.00     0.047 C 
BRANCH  22  23
HETATM   23  C17 UNL     1      25.955   0.848  53.540  1.00  0.00     0.006 C 
HETATM   24  C18 UNL     1      27.013   0.492  52.518  1.00  0.00     0.023 C 
HETATM   25  C19 UNL     1      28.295   0.439  53.284  1.00  0.00     0.121 C 
HETATM   26  N4  UNL     1      28.054   1.239  54.468  1.00  0.00    -0.199 NA
HETATM   27  C20 UNL     1      26.716   0.698  54.861  1.00  0.00     0.125 C 
BRANCH  26  28
HETATM   28  O3  UNL     1      27.761   2.500  54.043  1.00  0.00    -0.313 OA
HETATM   29  H19 UNL     1      28.225   2.769  53.230  1.00  0.00     0.237 HD
ENDBRANCH  26  28
ENDBRANCH  22  23
ENDBRANCH  10  22
BRANCH   1  30
HETATM   30  O1  UNL     1      22.129  -1.306  53.314  1.00  0.00    -0.355 OA
HETATM   31  C1  UNL     1      21.555  -1.678  54.532  1.00  0.00     0.210 C 
ENDBRANCH   1  30
TORSDOF 7
ENDMDL
MODEL 5
REMARK VINA RESULT:      -8.9      1.987      2.180
REMARK  7 active torsions:
REMARK  status: ('A' for Active; 'I' for Inactive)
REMARK    1  A    between atoms: O1_2  and  C2_3 
REMARK    2  A    between atoms: C6_9  and  N3_10 
REMARK    3  A    between atoms: N3_10  and  C7_11 
REMARK    4  A    between atoms: C11_16  and  O2_17 
REMARK    5  A    between atoms: C15_21  and  C16_22 
REMARK    6  A    between atoms: C16_22  and  C17_23 
REMARK    7  A    between atoms: N4_26  and  O3_27 
ROOT
HETATM    1  C2  UNL     1      20.737   2.676  52.412  1.00  0.00     0.076 A 
HETATM    2  C3  UNL     1      20.434   1.690  53.305  1.00  0.00     0.070 A 
HETATM    3  C4  UNL     1      21.378   0.753  53.596  1.00  0.00     0.074 A 
HETATM    4  N1  UNL     1      21.018  -0.191  54.482  1.00  0.00    -0.241 NA
HETATM    5  C5  UNL     1      21.883  -1.158  54.829  1.00  0.00     0.236 A 
HETATM    6  N2  UNL     1      23.091  -1.129  54.260  1.00  0.00    -0.224 NA
HETATM    7  C6  UNL     1      23.515  -0.229  53.380  1.00  0.00     0.142 A 
HETATM    8  C13 UNL     1      22.635   0.763  53.019  1.00  0.00     0.039 A 
HETATM    9  C14 UNL     1      22.873   1.786  52.126  1.00  0.00     0.027 A 
HETATM   10  C15 UNL     1      21.949   2.780  51.783  1.00  0.00    -0.023 A 
ENDROOT
BRANCH   7  11
HETATM   11  N3  UNL     1      24.804  -0.223  52.788  1.00  0.00    -0.340 N 
HETATM   12  H6  UNL     1      24.983  -0.607  51.858  1.00  0.00     0.167 HD
BRANCH  11  13
HETATM   13  C7  UNL     1      26.038   0.271  53.290  1.00  0.00     0.036 A 
HETATM   14  C8  UNL     1      26.743  -0.250  54.373  1.00  0.00     0.032 A 
HETATM   15  C9  UNL     1      27.930   0.269  54.823  1.00  0.00     0.047 A 
HETATM   16  C10 UNL     1      28.494   1.356  54.209  1.00  0.00     0.149 A 
HETATM   17  F1  UNL     1      29.666   1.782  54.738  1.00  0.00    -0.203 F 
HETATM   18  C11 UNL     1      27.851   1.925  53.129  1.00  0.00     0.106 A 
HETATM   19  C12 UNL     1      26.659   1.362  52.720  1.00  0.00     0.069 A 
BRANCH  18  20
HETATM   20  O2  UNL     1      28.475   3.006  52.571  1.00  0.00    -0.358 OA
HETATM   21  H9  UNL     1      28.023   3.675  51.953  1.00  0.00     0.217 HD
ENDBRANCH  18  20
ENDBRANCH  11  13
ENDBRANCH   7  11
BRANCH  10  22
HETATM   22  C16 UNL     1      22.433   3.764  50.784  1.00  0.00     0.047 C 
BRANCH  22  23
HETATM   23  C17 UNL     1      23.894   4.011  50.769  1.00  0.00     0.006 C 
HETATM   24  C18 UNL     1      24.174   5.484  50.971  1.00  0.00     0.023 C 
HETATM   25  C19 UNL     1      25.144   5.850  49.893  1.00  0.00     0.121 C 
HETATM   26  N4  UNL     1      25.764   4.596  49.512  1.00  0.00    -0.199 NA
HETATM   27  C20 UNL     1      24.541   3.740  49.408  1.00  0.00     0.125 C 
BRANCH  26  28
HETATM   28  O3  UNL     1      26.386   4.106  50.620  1.00  0.00    -0.313 OA
HETATM   29  H19 UNL     1      26.425   3.133  50.661  1.00  0.00     0.237 HD
ENDBRANCH  26  28
ENDBRANCH  22  23
ENDBRANCH  10  22
BRANCH   1  30
HETATM   30  O1  UNL     1      19.804   3.634  52.104  1.00  0.00    -0.355 OA
HETATM   31  C1  UNL     1      18.580   3.291  51.526  1.00  0.00     0.210 C 
ENDBRANCH   1  30
TORSDOF 7
ENDMDL
MODEL 6
REMARK VINA RESULT:      -8.8      2.106      2.740
REMARK  7 active torsions:
REMARK  status: ('A' for Active; 'I' for Inactive)
REMARK    1  A    between atoms: O1_2  and  C2_3 
REMARK    2  A    between atoms: C6_9  and  N3_10 
REMARK    3  A    between atoms: N3_10  and  C7_11 
REMARK    4  A    between atoms: C11_16  and  O2_17 
REMARK    5  A    between atoms: C15_21  and  C16_22 
REMARK    6  A    between atoms: C16_22  and  C17_23 
REMARK    7  A    between atoms: N4_26  and  O3_27 
ROOT
HETATM    1  C2  UNL     1      20.268  -0.044  52.680  1.00  0.00     0.076 A 
HETATM    2  C3  UNL     1      20.601  -0.688  53.835  1.00  0.00     0.070 A 
HETATM    3  C4  UNL     1      21.915  -0.787  54.178  1.00  0.00     0.074 A 
HETATM    4  N1  UNL     1      22.178  -1.433  55.326  1.00  0.00    -0.241 NA
HETATM    5  C5  UNL     1      23.446  -1.580  55.745  1.00  0.00     0.236 A 
HETATM    6  N2  UNL     1      24.406  -1.062  54.975  1.00  0.00    -0.224 NA
HETATM    7  C6  UNL     1      24.222  -0.412  53.832  1.00  0.00     0.142 A 
HETATM    8  C13 UNL     1      22.927  -0.258  53.397  1.00  0.00     0.039 A 
HETATM    9  C14 UNL     1      22.519   0.379  52.245  1.00  0.00     0.027 A 
HETATM   10  C15 UNL     1      21.187   0.516  51.834  1.00  0.00    -0.023 A 
ENDROOT
BRANCH   7  11
HETATM   11  N3  UNL     1      25.261   0.128  53.032  1.00  0.00    -0.340 N 
HETATM   12  H6  UNL     1      25.078   0.628  52.159  1.00  0.00     0.167 HD
BRANCH  11  13
HETATM   13  C7  UNL     1      26.668   0.109  53.226  1.00  0.00     0.036 A 
HETATM   14  C8  UNL     1      27.506  -0.983  53.008  1.00  0.00     0.032 A 
HETATM   15  C9  UNL     1      28.861  -0.950  53.218  1.00  0.00     0.047 A 
HETATM   16  C10 UNL     1      29.471   0.191  53.665  1.00  0.00     0.149 A 
HETATM   17  F1  UNL     1      30.812   0.108  53.836  1.00  0.00    -0.203 F 
HETATM   18  C11 UNL     1      28.703   1.312  53.903  1.00  0.00     0.106 A 
HETATM   19  C12 UNL     1      27.345   1.223  53.675  1.00  0.00     0.069 A 
BRANCH  18  20
HETATM   20  O2  UNL     1      29.384   2.412  54.348  1.00  0.00    -0.358 OA
HETATM   21  H9  UNL     1      28.981   3.140  54.933  1.00  0.00     0.217 HD
ENDBRANCH  18  20
ENDBRANCH  11  13
ENDBRANCH   7  11
BRANCH  10  22
HETATM   22  C16 UNL     1      21.001   1.226  50.545  1.00  0.00     0.047 C 
BRANCH  22  23
HETATM   23  C17 UNL     1      21.020   2.707  50.610  1.00  0.00     0.006 C 
HETATM   24  C18 UNL     1      22.399   3.226  50.263  1.00  0.00     0.023 C 
HETATM   25  C19 UNL     1      22.733   4.202  51.344  1.00  0.00     0.121 C 
HETATM   26  N4  UNL     1      21.453   4.601  51.894  1.00  0.00    -0.199 NA
HETATM   27  C20 UNL     1      20.814   3.254  52.026  1.00  0.00     0.125 C 
BRANCH  26  28
HETATM   28  O3  UNL     1      20.746   5.176  50.882  1.00  0.00    -0.313 OA
HETATM   29  H19 UNL     1      20.407   4.546  50.220  1.00  0.00     0.237 HD
ENDBRANCH  26  28
ENDBRANCH  22  23
ENDBRANCH  10  22
BRANCH   1  30
HETATM   30  O1  UNL     1      18.950   0.071  52.314  1.00  0.00    -0.355 OA
HETATM   31  C1  UNL     1      18.017  -0.910  52.654  1.00  0.00     0.210 C 
ENDBRANCH   1  30
TORSDOF 7
ENDMDL
MODEL 7
REMARK VINA RESULT:      -8.7      4.440      6.638
REMARK  7 active torsions:
REMARK  status: ('A' for Active; 'I' for Inactive)
REMARK    1  A    between atoms: O1_2  and  C2_3 
REMARK    2  A    between atoms: C6_9  and  N3_10 
REMARK    3  A    between atoms: N3_10  and  C7_11 
REMARK    4  A    between atoms: C11_16  and  O2_17 
REMARK    5  A    between atoms: C15_21  and  C16_22 
REMARK    6  A    between atoms: C16_22  and  C17_23 
REMARK    7  A    between atoms: N4_26  and  O3_27 
ROOT
HETATM    1  C2  UNL     1      26.525   6.910  48.581  1.00  0.00     0.076 A 
HETATM    2  C3  UNL     1      25.363   6.857  49.292  1.00  0.00     0.070 A 
HETATM    3  C4  UNL     1      25.060   5.719  49.975  1.00  0.00     0.074 A 
HETATM    4  N1  UNL     1      23.902   5.730  50.655  1.00  0.00    -0.241 NA
HETATM    5  C5  UNL     1      23.519   4.650  51.357  1.00  0.00     0.236 A 
HETATM    6  N2  UNL     1      24.333   3.592  51.341  1.00  0.00    -0.224 NA
HETATM    7  C6  UNL     1      25.490   3.510  50.694  1.00  0.00     0.142 A 
HETATM    8  C13 UNL     1      25.888   4.611  49.973  1.00  0.00     0.039 A 
HETATM    9  C14 UNL     1      27.045   4.732  49.234  1.00  0.00     0.027 A 
HETATM   10  C15 UNL     1      27.416   5.872  48.511  1.00  0.00    -0.023 A 
ENDROOT
BRANCH   7  11
HETATM   11  N3  UNL     1      26.336   2.372  50.691  1.00  0.00    -0.340 N 
HETATM   12  H6  UNL     1      26.602   1.887  49.832  1.00  0.00     0.167 HD
BRANCH  11  13
HETATM   13  C7  UNL     1      26.962   1.696  51.773  1.00  0.00     0.036 A 
HETATM   14  C8  UNL     1      26.768   0.359  52.119  1.00  0.00     0.032 A 
HETATM   15  C9  UNL     1      27.394  -0.244  53.180  1.00  0.00     0.047 A 
HETATM   16  C10 UNL     1      28.263   0.458  53.972  1.00  0.00     0.149 A 
HETATM   17  F1  UNL     1      28.821  -0.240  54.989  1.00  0.00    -0.203 F 
HETATM   18  C11 UNL     1      28.502   1.787  53.688  1.00  0.00     0.106 A 
HETATM   19  C12 UNL     1      27.846   2.344  52.609  1.00  0.00     0.069 A 
BRANCH  18  20
HETATM   20  O2  UNL     1      29.381   2.421  54.523  1.00  0.00    -0.358 OA
HETATM   21  H9  UNL     1      29.411   3.427  54.669  1.00  0.00     0.217 HD
ENDBRANCH  18  20
ENDBRANCH  11  13
ENDBRANCH   7  11
BRANCH  10  22
HETATM   22  C16 UNL     1      28.701   5.756  47.778  1.00  0.00     0.047 C 
BRANCH  22  23
HETATM   23  C17 UNL     1      29.927   5.748  48.610  1.00  0.00     0.006 C 
HETATM   24  C18 UNL     1      30.436   7.161  48.800  1.00  0.00     0.023 C 
HETATM   25  C19 UNL     1      31.895   7.098  48.480  1.00  0.00     0.121 C 
HETATM   26  N4  UNL     1      32.254   5.705  48.661  1.00  0.00    -0.199 NA
HETATM   27  C20 UNL     1      31.117   5.062  47.932  1.00  0.00     0.125 C 
BRANCH  26  28
HETATM   28  O3  UNL     1      31.998   5.393  49.962  1.00  0.00    -0.313 OA
HETATM   29  H19 UNL     1      31.532   4.547  50.088  1.00  0.00     0.237 HD
ENDBRANCH  26  28
ENDBRANCH  22  23
ENDBRANCH  10  22
BRANCH   1  30
HETATM   30  O1  UNL     1      26.855   8.047  47.887  1.00  0.00    -0.355 OA
HETATM   31  C1  UNL     1      27.206   9.223  48.553  1.00  0.00     0.210 C 
ENDBRANCH   1  30
TORSDOF 7
ENDMDL
MODEL 8
REMARK VINA RESULT:      -8.6      2.411      5.281
REMARK  7 active torsions:
REMARK  status: ('A' for Active; 'I' for Inactive)
REMARK    1  A    between atoms: O1_2  and  C2_3 
REMARK    2  A    between atoms: C6_9  and  N3_10 
REMARK    3  A    between atoms: N3_10  and  C7_11 
REMARK    4  A    between atoms: C11_16  and  O2_17 
REMARK    5  A    between atoms: C15_21  and  C16_22 
REMARK    6  A    between atoms: C16_22  and  C17_23 
REMARK    7  A    between atoms: N4_26  and  O3_27 
ROOT
HETATM    1  C2  UNL     1      21.595   3.013  50.603  1.00  0.00     0.076 A 
HETATM    2  C3  UNL     1      22.206   4.190  50.286  1.00  0.00     0.070 A 
HETATM    3  C4  UNL     1      23.565   4.227  50.212  1.00  0.00     0.074 A 
HETATM    4  N1  UNL     1      24.106   5.415  49.895  1.00  0.00    -0.241 NA
HETATM    5  C5  UNL     1      25.439   5.548  49.801  1.00  0.00     0.236 A 
HETATM    6  N2  UNL     1      26.178   4.461  50.034  1.00  0.00    -0.224 NA
HETATM    7  C6  UNL     1      25.715   3.257  50.349  1.00  0.00     0.142 A 
HETATM    8  C13 UNL     1      24.351   3.114  50.449  1.00  0.00     0.039 A 
HETATM    9  C14 UNL     1      23.669   1.958  50.764  1.00  0.00     0.027 A 
HETATM   10  C15 UNL     1      22.276   1.852  50.856  1.00  0.00    -0.023 A 
ENDROOT
BRANCH   7  11
HETATM   11  N3  UNL     1      26.523   2.118  50.593  1.00  0.00    -0.340 N 
HETATM   12  H6  UNL     1      26.872   1.521  49.841  1.00  0.00     0.167 HD
BRANCH  11  13
HETATM   13  C7  UNL     1      26.999   1.580  51.820  1.00  0.00     0.036 A 
HETATM   14  C8  UNL     1      26.595   0.375  52.391  1.00  0.00     0.032 A 
HETATM   15  C9  UNL     1      27.082  -0.096  53.584  1.00  0.00     0.047 A 
HETATM   16  C10 UNL     1      28.016   0.617  54.288  1.00  0.00     0.149 A 
HETATM   17  F1  UNL     1      28.425   0.054  55.450  1.00  0.00    -0.203 F 
HETATM   18  C11 UNL     1      28.461   1.820  53.782  1.00  0.00     0.106 A 
HETATM   19  C12 UNL     1      27.937   2.247  52.578  1.00  0.00     0.069 A 
BRANCH  18  20
HETATM   20  O2  UNL     1      29.392   2.473  54.542  1.00  0.00    -0.358 OA
HETATM   21  H9  UNL     1      30.346   2.662  54.246  1.00  0.00     0.217 HD
ENDBRANCH  18  20
ENDBRANCH  11  13
ENDBRANCH   7  11
BRANCH  10  22
HETATM   22  C16 UNL     1      21.777   0.505  51.230  1.00  0.00     0.047 C 
BRANCH  22  23
HETATM   23  C17 UNL     1      21.543   0.277  52.675  1.00  0.00     0.006 C 
HETATM   24  C18 UNL     1      22.537  -0.731  53.210  1.00  0.00     0.023 C 
HETATM   25  C19 UNL     1      21.718  -1.721  53.975  1.00  0.00     0.121 C 
HETATM   26  N4  UNL     1      20.496  -1.016  54.305  1.00  0.00    -0.199 NA
HETATM   27  C20 UNL     1      20.201  -0.400  52.973  1.00  0.00     0.125 C 
BRANCH  26  28
HETATM   28  O3  UNL     1      20.847   0.058  55.066  1.00  0.00    -0.313 OA
HETATM   29  H19 UNL     1      20.310   0.855  54.908  1.00  0.00     0.237 HD
ENDBRANCH  26  28
ENDBRANCH  22  23
ENDBRANCH  10  22
BRANCH   1  30
HETATM   30  O1  UNL     1      20.227   2.948  50.681  1.00  0.00    -0.355 OA
HETATM   31  C1  UNL     1      19.527   3.626  51.680  1.00  0.00     0.210 C 
ENDBRANCH   1  30
TORSDOF 7
ENDMDL
MODEL 9
REMARK VINA RESULT:      -8.5      3.481      7.133
REMARK  7 active torsions:
REMARK  status: ('A' for Active; 'I' for Inactive)
REMARK    1  A    between atoms: O1_2  and  C2_3 
REMARK    2  A    between atoms: C6_9  and  N3_10 
REMARK    3  A    between atoms: N3_10  and  C7_11 
REMARK    4  A    between atoms: C11_16  and  O2_17 
REMARK    5  A    between atoms: C15_21  and  C16_22 
REMARK    6  A    between atoms: C16_22  and  C17_23 
REMARK    7  A    between atoms: N4_26  and  O3_27 
ROOT
HETATM    1  C2  UNL     1      26.008   3.587  49.997  1.00  0.00     0.076 A 
HETATM    2  C3  UNL     1      24.983   4.424  49.665  1.00  0.00     0.070 A 
HETATM    3  C4  UNL     1      23.803   4.316  50.335  1.00  0.00     0.074 A 
HETATM    4  N1  UNL     1      22.833   5.167  49.961  1.00  0.00    -0.241 NA
HETATM    5  C5  UNL     1      21.634   5.133  50.564  1.00  0.00     0.236 A 
HETATM    6  N2  UNL     1      21.463   4.229  51.532  1.00  0.00    -0.224 NA
HETATM    7  C6  UNL     1      22.373   3.359  51.954  1.00  0.00     0.142 A 
HETATM    8  C13 UNL     1      23.603   3.387  51.340  1.00  0.00     0.039 A 
HETATM    9  C14 UNL     1      24.680   2.574  51.624  1.00  0.00     0.027 A 
HETATM   10  C15 UNL     1      25.919   2.633  50.975  1.00  0.00    -0.023 A 
ENDROOT
BRANCH   7  11
HETATM   11  N3  UNL     1      22.165   2.406  52.983  1.00  0.00    -0.340 N 
HETATM   12  H6  UNL     1      22.702   2.412  53.853  1.00  0.00     0.167 HD
BRANCH  11  13
HETATM   13  C7  UNL     1      21.252   1.320  53.053  1.00  0.00     0.036 A 
HETATM   14  C8  UNL     1      20.099   1.175  52.283  1.00  0.00     0.032 A 
HETATM   15  C9  UNL     1      19.246   0.107  52.394  1.00  0.00     0.047 A 
HETATM   16  C10 UNL     1      19.495  -0.897  53.292  1.00  0.00     0.149 A 
HETATM   17  F1  UNL     1      18.586  -1.900  53.314  1.00  0.00    -0.203 F 
HETATM   18  C11 UNL     1      20.620  -0.819  54.088  1.00  0.00     0.106 A 
HETATM   19  C12 UNL     1      21.443   0.278  53.935  1.00  0.00     0.069 A 
BRANCH  18  20
HETATM   20  O2  UNL     1      20.800  -1.858  54.960  1.00  0.00    -0.358 OA
HETATM   21  H9  UNL     1      21.621  -2.457  54.979  1.00  0.00     0.217 HD
ENDBRANCH  18  20
ENDBRANCH  11  13
ENDBRANCH   7  11
BRANCH  10  22
HETATM   22  C16 UNL     1      26.917   1.640  51.445  1.00  0.00     0.047 C 
BRANCH  22  23
HETATM   23  C17 UNL     1      26.939   1.381  52.904  1.00  0.00     0.006 C 
HETATM   24  C18 UNL     1      28.265   1.816  53.489  1.00  0.00     0.023 C 
HETATM   25  C19 UNL     1      28.724   0.662  54.321  1.00  0.00     0.121 C 
HETATM   26  N4  UNL     1      27.518  -0.083  54.619  1.00  0.00    -0.199 NA
HETATM   27  C20 UNL     1      26.902  -0.110  53.255  1.00  0.00     0.125 C 
BRANCH  26  28
HETATM   28  O3  UNL     1      26.693   0.753  55.310  1.00  0.00    -0.313 OA
HETATM   29  H19 UNL     1      27.055   1.645  55.453  1.00  0.00     0.237 HD
ENDBRANCH  26  28
ENDBRANCH  22  23
ENDBRANCH  10  22
BRANCH   1  30
HETATM   30  O1  UNL     1      27.209   3.678  49.340  1.00  0.00    -0.355 OA
HETATM   31  C1  UNL     1      27.549   4.819  48.610  1.00  0.00     0.210 C 
ENDBRANCH   1  30
TORSDOF 7
ENDMDL
