MODEL 1
REMARK VINA RESULT:      -9.0      0.000      0.000
REMARK  0 active torsions:
REMARK  status: ('A' for Active; 'I' for Inactive)
ROOT
HETATM    1  C1  UNL     1      19.653   6.518  49.701  1.00  0.00     0.085 C 
HETATM    2  C2  UNL     1      20.899   5.704  49.924  1.00  0.00     0.090 C 
HETATM    3  N1  UNL     1      20.727   4.549  49.846  1.00  0.00    -0.422 NA
HETATM    4  C3  UNL     1      20.611   3.218  49.774  1.00  0.00     0.486 C 
HETATM    5  N2  UNL     1      21.640   2.541  48.959  1.00  0.00     0.116 NA
HETATM    6  C4  UNL     1      21.371   1.100  48.995  1.00  0.00     0.300 C 
HETATM    7  C5  UNL     1      21.646   0.693  50.399  1.00  0.00     0.003 C 
HETATM    8  C6  UNL     1      21.378   0.202  51.592  1.00  0.00    -0.002 C 
HETATM    9  C7  UNL     1      21.823  -0.123  52.901  1.00  0.00     0.000 C 
HETATM   10  C8  UNL     1      23.022   0.048  53.404  1.00  0.00     0.010 C 
HETATM   11  C9  UNL     1      24.297   0.578  52.935  1.00  0.00    -0.024 A 
HETATM   12  C10 UNL     1      24.531   1.842  52.631  1.00  0.00     0.082 A 
HETATM   13  C11 UNL     1      25.853   2.246  52.173  1.00  0.00     0.034 A 
HETATM   14  C12 UNL     1      26.690   1.228  52.122  1.00  0.00    -0.024 A 
HETATM   15  C13 UNL     1      26.622  -0.215  52.412  1.00  0.00     0.032 A 
HETATM   16  C14 UNL     1      25.243  -0.562  52.866  1.00  0.00     0.045 A 
HETATM   17  O1  UNL     1      23.488   2.733  52.766  1.00  0.00    -0.304 OA
HETATM   18  C15 UNL     1      23.701   4.040  52.331  1.00  0.00     0.259 C 
HETATM   19  N3  UNL     1      22.978   4.439  51.348  1.00  0.00    -0.236 NA
HETATM   20  C16 UNL     1      23.198   5.791  50.897  1.00  0.00     0.074 A 
HETATM   21  C17 UNL     1      24.338   6.517  51.104  1.00  0.00     0.052 A 
HETATM   22  C18 UNL     1      24.444   7.818  50.623  1.00  0.00     0.118 A 
HETATM   23  N4  UNL     1      23.402   8.362  49.945  1.00  0.00    -0.272 NA
HETATM   24  C19 UNL     1      22.268   7.655  49.733  1.00  0.00     0.133 A 
HETATM   25  C20 UNL     1      22.166   6.366  50.211  1.00  0.00     0.046 A 
HETATM   26  H6  UNL     1      21.652   2.907  47.998  1.00  0.00     0.319 HD
ENDROOT
TORSDOF 0
ENDMDL
MODEL 2
REMARK VINA RESULT:      -8.9      1.678      1.709
REMARK  0 active torsions:
REMARK  status: ('A' for Active; 'I' for Inactive)
ROOT
HETATM    1  C1  UNL     1      21.459   6.630  47.870  1.00  0.00     0.085 C 
HETATM    2  C2  UNL     1      22.425   5.586  48.362  1.00  0.00     0.090 C 
HETATM    3  N1  UNL     1      21.924   4.555  48.600  1.00  0.00    -0.422 NA
HETATM    4  C3  UNL     1      21.425   3.349  48.893  1.00  0.00     0.486 C 
HETATM    5  N2  UNL     1      22.181   2.206  48.342  1.00  0.00     0.116 NA
HETATM    6  C4  UNL     1      21.510   0.972  48.763  1.00  0.00     0.300 C 
HETATM    7  C5  UNL     1      21.712   0.909  50.236  1.00  0.00     0.003 C 
HETATM    8  C6  UNL     1      21.363   0.866  51.505  1.00  0.00    -0.002 C 
HETATM    9  C7  UNL     1      21.748   0.801  52.870  1.00  0.00     0.000 C 
HETATM   10  C8  UNL     1      22.966   0.752  53.356  1.00  0.00     0.010 C 
HETATM   11  C9  UNL     1      24.318   0.740  52.814  1.00  0.00    -0.024 A 
HETATM   12  C10 UNL     1      24.895   1.747  52.183  1.00  0.00     0.082 A 
HETATM   13  C11 UNL     1      26.257   1.609  51.687  1.00  0.00     0.034 A 
HETATM   14  C12 UNL     1      26.762   0.421  51.955  1.00  0.00    -0.024 A 
HETATM   15  C13 UNL     1      26.292  -0.802  52.630  1.00  0.00     0.032 A 
HETATM   16  C14 UNL     1      24.892  -0.597  53.103  1.00  0.00     0.045 A 
HETATM   17  O1  UNL     1      24.160   2.903  52.022  1.00  0.00    -0.304 OA
HETATM   18  C15 UNL     1      24.724   3.919  51.252  1.00  0.00     0.259 C 
HETATM   19  N3  UNL     1      24.107   4.221  50.167  1.00  0.00    -0.236 NA
HETATM   20  C16 UNL     1      24.689   5.272  49.370  1.00  0.00     0.074 A 
HETATM   21  C17 UNL     1      25.997   5.666  49.417  1.00  0.00     0.052 A 
HETATM   22  C18 UNL     1      26.455   6.695  48.600  1.00  0.00     0.118 A 
HETATM   23  N4  UNL     1      25.587   7.307  47.754  1.00  0.00    -0.272 NA
HETATM   24  C19 UNL     1      24.290   6.927  47.698  1.00  0.00     0.133 A 
HETATM   25  C20 UNL     1      23.840   5.907  48.509  1.00  0.00     0.046 A 
HETATM   26  H6  UNL     1      22.259   2.272  47.318  1.00  0.00     0.319 HD
ENDROOT
TORSDOF 0
ENDMDL
MODEL 3
REMARK VINA RESULT:      -8.5      2.852      6.323
REMARK  0 active torsions:
REMARK  status: ('A' for Active; 'I' for Inactive)
ROOT
HETATM    1  C1  UNL     1      18.532  -1.343  53.298  1.00  0.00     0.085 C 
HETATM    2  C2  UNL     1      19.566  -0.298  52.976  1.00  0.00     0.090 C 
HETATM    3  N1  UNL     1      19.154   0.591  52.336  1.00  0.00    -0.422 NA
HETATM    4  C3  UNL     1      18.758   1.640  51.606  1.00  0.00     0.486 C 
HETATM    5  N2  UNL     1      19.184   2.958  52.118  1.00  0.00     0.116 NA
HETATM    6  C4  UNL     1      18.678   3.986  51.202  1.00  0.00     0.300 C 
HETATM    7  C5  UNL     1      19.443   3.785  49.941  1.00  0.00     0.003 C 
HETATM    8  C6  UNL     1      19.621   3.531  48.661  1.00  0.00    -0.002 C 
HETATM    9  C7  UNL     1      20.511   3.376  47.565  1.00  0.00     0.000 C 
HETATM   10  C8  UNL     1      21.818   3.489  47.573  1.00  0.00     0.010 C 
HETATM   11  C9  UNL     1      22.845   3.786  48.564  1.00  0.00    -0.024 A 
HETATM   12  C10 UNL     1      23.170   3.006  49.581  1.00  0.00     0.082 A 
HETATM   13  C11 UNL     1      24.218   3.417  50.504  1.00  0.00     0.034 A 
HETATM   14  C12 UNL     1      24.734   4.585  50.177  1.00  0.00    -0.024 A 
HETATM   15  C13 UNL     1      24.515   5.580  49.111  1.00  0.00     0.032 A 
HETATM   16  C14 UNL     1      23.425   5.103  48.209  1.00  0.00     0.045 A 
HETATM   17  O1  UNL     1      22.483   1.819  49.718  1.00  0.00    -0.304 OA
HETATM   18  C15 UNL     1      22.742   1.057  50.857  1.00  0.00     0.259 C 
HETATM   19  N3  UNL     1      21.761   0.895  51.669  1.00  0.00    -0.236 NA
HETATM   20  C16 UNL     1      22.027   0.107  52.847  1.00  0.00     0.074 A 
HETATM   21  C17 UNL     1      23.264  -0.112  53.387  1.00  0.00     0.052 A 
HETATM   22  C18 UNL     1      23.408  -0.891  54.531  1.00  0.00     0.118 A 
HETATM   23  N4  UNL     1      22.305  -1.434  55.107  1.00  0.00    -0.272 NA
HETATM   24  C19 UNL     1      21.075  -1.225  54.582  1.00  0.00     0.133 A 
HETATM   25  C20 UNL     1      20.937  -0.452  53.449  1.00  0.00     0.046 A 
HETATM   26  H6  UNL     1      18.854   3.105  53.081  1.00  0.00     0.319 HD
ENDROOT
TORSDOF 0
ENDMDL
MODEL 4
REMARK VINA RESULT:      -8.3      2.622      6.229
REMARK  0 active torsions:
REMARK  status: ('A' for Active; 'I' for Inactive)
ROOT
HETATM    1  C1  UNL     1      21.753  -1.829  54.003  1.00  0.00     0.085 C 
HETATM    2  C2  UNL     1      22.332  -0.518  53.545  1.00  0.00     0.090 C 
HETATM    3  N1  UNL     1      21.564   0.171  52.993  1.00  0.00    -0.422 NA
HETATM    4  C3  UNL     1      20.745   1.013  52.352  1.00  0.00     0.486 C 
HETATM    5  N2  UNL     1      20.795   2.413  52.819  1.00  0.00     0.116 NA
HETATM    6  C4  UNL     1      19.852   3.194  52.010  1.00  0.00     0.300 C 
HETATM    7  C5  UNL     1      20.440   3.210  50.643  1.00  0.00     0.003 C 
HETATM    8  C6  UNL     1      20.495   2.986  49.347  1.00  0.00    -0.002 C 
HETATM    9  C7  UNL     1      21.210   3.091  48.124  1.00  0.00     0.000 C 
HETATM   10  C8  UNL     1      22.396   3.619  47.934  1.00  0.00     0.010 C 
HETATM   11  C9  UNL     1      23.410   4.261  48.761  1.00  0.00    -0.024 A 
HETATM   12  C10 UNL     1      24.119   3.661  49.700  1.00  0.00     0.082 A 
HETATM   13  C11 UNL     1      25.106   4.416  50.459  1.00  0.00     0.034 A 
HETATM   14  C12 UNL     1      25.161   5.677  50.078  1.00  0.00    -0.024 A 
HETATM   15  C13 UNL     1      24.474   6.514  49.078  1.00  0.00     0.032 A 
HETATM   16  C14 UNL     1      23.473   5.683  48.346  1.00  0.00     0.045 A 
HETATM   17  O1  UNL     1      23.881   2.320  49.919  1.00  0.00    -0.304 OA
HETATM   18  C15 UNL     1      24.541   1.719  50.989  1.00  0.00     0.259 C 
HETATM   19  N3  UNL     1      23.801   1.276  51.940  1.00  0.00    -0.236 NA
HETATM   20  C16 UNL     1      24.482   0.653  53.047  1.00  0.00     0.074 A 
HETATM   21  C17 UNL     1      25.790   0.861  53.386  1.00  0.00     0.052 A 
HETATM   22  C18 UNL     1      26.349   0.206  54.480  1.00  0.00     0.118 A 
HETATM   23  N4  UNL     1      25.581  -0.644  55.208  1.00  0.00    -0.272 NA
HETATM   24  C19 UNL     1      24.285  -0.858  54.883  1.00  0.00     0.133 A 
HETATM   25  C20 UNL     1      23.735  -0.207  53.799  1.00  0.00     0.046 A 
HETATM   26  H6  UNL     1      20.585   2.477  53.823  1.00  0.00     0.319 HD
ENDROOT
TORSDOF 0
ENDMDL
MODEL 5
REMARK VINA RESULT:      -8.3      1.789      4.425
REMARK  0 active torsions:
REMARK  status: ('A' for Active; 'I' for Inactive)
ROOT
HETATM    1  C1  UNL     1      23.396   6.153  47.794  1.00  0.00     0.085 C 
HETATM    2  C2  UNL     1      22.743   5.180  48.739  1.00  0.00     0.090 C 
HETATM    3  N1  UNL     1      23.282   5.095  49.775  1.00  0.00    -0.422 NA
HETATM    4  C3  UNL     1      23.842   4.943  50.980  1.00  0.00     0.486 C 
HETATM    5  N2  UNL     1      22.901   4.981  52.118  1.00  0.00     0.116 NA
HETATM    6  C4  UNL     1      23.673   4.790  53.351  1.00  0.00     0.300 C 
HETATM    7  C5  UNL     1      24.160   3.385  53.285  1.00  0.00     0.003 C 
HETATM    8  C6  UNL     1      25.046   2.413  53.247  1.00  0.00    -0.002 C 
HETATM    9  C7  UNL     1      25.322   1.021  53.180  1.00  0.00     0.000 C 
HETATM   10  C8  UNL     1      24.457   0.036  53.121  1.00  0.00     0.010 C 
HETATM   11  C9  UNL     1      23.006  -0.093  53.099  1.00  0.00    -0.024 A 
HETATM   12  C10 UNL     1      22.220   0.304  52.114  1.00  0.00     0.082 A 
HETATM   13  C11 UNL     1      20.779   0.117  52.213  1.00  0.00     0.034 A 
HETATM   14  C12 UNL     1      20.434  -0.463  53.345  1.00  0.00    -0.024 A 
HETATM   15  C13 UNL     1      21.141  -0.969  54.536  1.00  0.00     0.032 A 
HETATM   16  C14 UNL     1      22.607  -0.738  54.374  1.00  0.00     0.045 A 
HETATM   17  O1  UNL     1      22.819   0.891  51.019  1.00  0.00    -0.304 OA
HETATM   18  C15 UNL     1      21.982   1.419  50.037  1.00  0.00     0.259 C 
HETATM   19  N3  UNL     1      22.044   2.688  49.858  1.00  0.00    -0.236 NA
HETATM   20  C16 UNL     1      21.179   3.235  48.842  1.00  0.00     0.074 A 
HETATM   21  C17 UNL     1      20.040   2.642  48.372  1.00  0.00     0.052 A 
HETATM   22  C18 UNL     1      19.277   3.261  47.387  1.00  0.00     0.118 A 
HETATM   23  N4  UNL     1      19.675   4.462  46.895  1.00  0.00    -0.272 NA
HETATM   24  C19 UNL     1      20.800   5.059  47.351  1.00  0.00     0.133 A 
HETATM   25  C20 UNL     1      21.554   4.443  48.328  1.00  0.00     0.046 A 
HETATM   26  H6  UNL     1      22.368   5.860  52.130  1.00  0.00     0.319 HD
ENDROOT
TORSDOF 0
ENDMDL
MODEL 6
REMARK VINA RESULT:      -8.2      2.096      4.891
REMARK  0 active torsions:
REMARK  status: ('A' for Active; 'I' for Inactive)
ROOT
HETATM    1  C1  UNL     1      20.222   4.686  48.273  1.00  0.00     0.085 C 
HETATM    2  C2  UNL     1      20.380   3.797  49.476  1.00  0.00     0.090 C 
HETATM    3  N1  UNL     1      21.338   4.024  50.108  1.00  0.00    -0.422 NA
HETATM    4  C3  UNL     1      22.412   4.223  50.881  1.00  0.00     0.486 C 
HETATM    5  N2  UNL     1      22.140   4.280  52.332  1.00  0.00     0.116 NA
HETATM    6  C4  UNL     1      23.415   4.492  53.025  1.00  0.00     0.300 C 
HETATM    7  C5  UNL     1      24.180   3.233  52.814  1.00  0.00     0.003 C 
HETATM    8  C6  UNL     1      25.174   2.476  52.400  1.00  0.00    -0.002 C 
HETATM    9  C7  UNL     1      25.757   1.185  52.293  1.00  0.00     0.000 C 
HETATM   10  C8  UNL     1      25.272   0.049  52.736  1.00  0.00     0.010 C 
HETATM   11  C9  UNL     1      24.076  -0.380  53.449  1.00  0.00    -0.024 A 
HETATM   12  C10 UNL     1      22.847  -0.349  52.964  1.00  0.00     0.082 A 
HETATM   13  C11 UNL     1      21.732  -0.809  53.780  1.00  0.00     0.034 A 
HETATM   14  C12 UNL     1      22.127  -1.222  54.967  1.00  0.00    -0.024 A 
HETATM   15  C13 UNL     1      23.415  -1.335  55.676  1.00  0.00     0.032 A 
HETATM   16  C14 UNL     1      24.510  -0.839  54.791  1.00  0.00     0.045 A 
HETATM   17  O1  UNL     1      22.681   0.130  51.681  1.00  0.00    -0.304 OA
HETATM   18  C15 UNL     1      21.375   0.276  51.217  1.00  0.00     0.259 C 
HETATM   19  N3  UNL     1      20.995   1.473  50.950  1.00  0.00    -0.236 NA
HETATM   20  C16 UNL     1      19.645   1.625  50.469  1.00  0.00     0.074 A 
HETATM   21  C17 UNL     1      18.630   0.731  50.668  1.00  0.00     0.052 A 
HETATM   22  C18 UNL     1      17.359   0.978  50.157  1.00  0.00     0.118 A 
HETATM   23  N4  UNL     1      17.136   2.120  49.458  1.00  0.00    -0.272 NA
HETATM   24  C19 UNL     1      18.132   3.013  49.253  1.00  0.00     0.133 A 
HETATM   25  C20 UNL     1      19.389   2.764  49.761  1.00  0.00     0.046 A 
HETATM   26  H6  UNL     1      21.455   5.016  52.552  1.00  0.00     0.319 HD
ENDROOT
TORSDOF 0
ENDMDL
MODEL 7
REMARK VINA RESULT:      -8.1      1.962      4.654
REMARK  0 active torsions:
REMARK  status: ('A' for Active; 'I' for Inactive)
ROOT
HETATM    1  C1  UNL     1      18.953   6.043  48.870  1.00  0.00     0.085 C 
HETATM    2  C2  UNL     1      19.908   5.346  49.801  1.00  0.00     0.090 C 
HETATM    3  N1  UNL     1      20.974   5.828  49.831  1.00  0.00    -0.422 NA
HETATM    4  C3  UNL     1      22.214   6.323  49.919  1.00  0.00     0.486 C 
HETATM    5  N2  UNL     1      22.727   6.491  51.294  1.00  0.00     0.116 NA
HETATM    6  C4  UNL     1      24.089   7.028  51.207  1.00  0.00     0.300 C 
HETATM    7  C5  UNL     1      24.898   5.929  50.614  1.00  0.00     0.003 C 
HETATM    8  C6  UNL     1      25.677   5.341  49.731  1.00  0.00    -0.002 C 
HETATM    9  C7  UNL     1      26.397   4.187  49.322  1.00  0.00     0.000 C 
HETATM   10  C8  UNL     1      26.484   3.036  49.946  1.00  0.00     0.010 C 
HETATM   11  C9  UNL     1      25.964   2.463  51.181  1.00  0.00    -0.024 A 
HETATM   12  C10 UNL     1      24.692   2.196  51.421  1.00  0.00     0.082 A 
HETATM   13  C11 UNL     1      24.299   1.622  52.700  1.00  0.00     0.034 A 
HETATM   14  C12 UNL     1      25.334   1.433  53.495  1.00  0.00    -0.024 A 
HETATM   15  C13 UNL     1      26.789   1.659  53.413  1.00  0.00     0.032 A 
HETATM   16  C14 UNL     1      27.121   2.256  52.086  1.00  0.00     0.045 A 
HETATM   17  O1  UNL     1      23.783   2.482  50.425  1.00  0.00    -0.304 OA
HETATM   18  C15 UNL     1      22.432   2.314  50.723  1.00  0.00     0.259 C 
HETATM   19  N3  UNL     1      21.708   3.374  50.707  1.00  0.00    -0.236 NA
HETATM   20  C16 UNL     1      20.310   3.201  51.016  1.00  0.00     0.074 A 
HETATM   21  C17 UNL     1      19.780   2.152  51.715  1.00  0.00     0.052 A 
HETATM   22  C18 UNL     1      18.411   2.084  51.957  1.00  0.00     0.118 A 
HETATM   23  N4  UNL     1      17.605   3.072  51.490  1.00  0.00    -0.272 NA
HETATM   24  C19 UNL     1      18.117   4.115  50.797  1.00  0.00     0.133 A 
HETATM   25  C20 UNL     1      19.474   4.178  50.559  1.00  0.00     0.046 A 
HETATM   26  H6  UNL     1      22.108   7.098  51.848  1.00  0.00     0.319 HD
ENDROOT
TORSDOF 0
ENDMDL
MODEL 8
REMARK VINA RESULT:      -7.9      2.673      6.214
REMARK  0 active torsions:
REMARK  status: ('A' for Active; 'I' for Inactive)
ROOT
HETATM    1  C1  UNL     1      26.418   3.237  50.833  1.00  0.00     0.085 C 
HETATM    2  C2  UNL     1      25.139   2.451  50.939  1.00  0.00     0.090 C 
HETATM    3  N1  UNL     1      24.299   2.817  50.210  1.00  0.00    -0.422 NA
HETATM    4  C3  UNL     1      23.291   3.176  49.408  1.00  0.00     0.486 C 
HETATM    5  N2  UNL     1      22.624   2.063  48.701  1.00  0.00     0.116 NA
HETATM    6  C4  UNL     1      21.547   2.628  47.881  1.00  0.00     0.300 C 
HETATM    7  C5  UNL     1      20.545   3.134  48.858  1.00  0.00     0.003 C 
HETATM    8  C6  UNL     1      19.789   4.026  49.463  1.00  0.00    -0.002 C 
HETATM    9  C7  UNL     1      18.819   4.323  50.458  1.00  0.00     0.000 C 
HETATM   10  C8  UNL     1      18.255   3.490  51.299  1.00  0.00     0.010 C 
HETATM   11  C9  UNL     1      18.333   2.062  51.583  1.00  0.00    -0.024 A 
HETATM   12  C10 UNL     1      19.386   1.442  52.086  1.00  0.00     0.082 A 
HETATM   13  C11 UNL     1      19.337   0.006  52.324  1.00  0.00     0.034 A 
HETATM   14  C12 UNL     1      18.173  -0.511  51.985  1.00  0.00    -0.024 A 
HETATM   15  C13 UNL     1      16.909  -0.001  51.424  1.00  0.00     0.032 A 
HETATM   16  C14 UNL     1      17.030   1.469  51.196  1.00  0.00     0.045 A 
HETATM   17  O1  UNL     1      20.501   2.203  52.364  1.00  0.00    -0.304 OA
HETATM   18  C15 UNL     1      21.649   1.530  52.779  1.00  0.00     0.259 C 
HETATM   19  N3  UNL     1      22.667   1.607  52.001  1.00  0.00    -0.236 NA
HETATM   20  C16 UNL     1      23.855   0.912  52.429  1.00  0.00     0.074 A 
HETATM   21  C17 UNL     1      23.884  -0.130  53.315  1.00  0.00     0.052 A 
HETATM   22  C18 UNL     1      25.091  -0.731  53.659  1.00  0.00     0.118 A 
HETATM   23  N4  UNL     1      26.243  -0.271  53.107  1.00  0.00    -0.272 NA
HETATM   24  C19 UNL     1      26.228   0.759  52.230  1.00  0.00     0.133 A 
HETATM   25  C20 UNL     1      25.030   1.352  51.891  1.00  0.00     0.046 A 
HETATM   26  H6  UNL     1      23.296   1.526  48.137  1.00  0.00     0.319 HD
ENDROOT
TORSDOF 0
ENDMDL
MODEL 9
REMARK VINA RESULT:      -7.8      2.173      7.043
REMARK  0 active torsions:
REMARK  status: ('A' for Active; 'I' for Inactive)
ROOT
HETATM    1  C1  UNL     1      26.011   0.568  53.908  1.00  0.00     0.085 C 
HETATM    2  C2  UNL     1      25.008   1.203  52.983  1.00  0.00     0.090 C 
HETATM    3  N1  UNL     1      25.461   2.035  52.296  1.00  0.00    -0.422 NA
HETATM    4  C3  UNL     1      25.904   2.996  51.478  1.00  0.00     0.486 C 
HETATM    5  N2  UNL     1      25.475   2.870  50.070  1.00  0.00     0.116 NA
HETATM    6  C4  UNL     1      26.036   4.000  49.322  1.00  0.00     0.300 C 
HETATM    7  C5  UNL     1      25.326   5.198  49.847  1.00  0.00     0.003 C 
HETATM    8  C6  UNL     1      25.201   6.372  50.430  1.00  0.00    -0.002 C 
HETATM    9  C7  UNL     1      24.358   7.429  50.867  1.00  0.00     0.000 C 
HETATM   10  C8  UNL     1      23.054   7.512  50.753  1.00  0.00     0.010 C 
HETATM   11  C9  UNL     1      21.988   6.684  50.202  1.00  0.00    -0.024 A 
HETATM   12  C10 UNL     1      21.607   5.514  50.685  1.00  0.00     0.082 A 
HETATM   13  C11 UNL     1      20.525   4.781  50.042  1.00  0.00     0.034 A 
HETATM   14  C12 UNL     1      20.041   5.430  49.001  1.00  0.00    -0.024 A 
HETATM   15  C13 UNL     1      20.322   6.708  48.324  1.00  0.00     0.032 A 
HETATM   16  C14 UNL     1      21.443   7.400  49.024  1.00  0.00     0.045 A 
HETATM   17  O1  UNL     1      22.270   5.036  51.795  1.00  0.00    -0.304 OA
HETATM   18  C15 UNL     1      21.950   3.750  52.228  1.00  0.00     0.259 C 
HETATM   19  N3  UNL     1      22.891   2.879  52.172  1.00  0.00    -0.236 NA
HETATM   20  C16 UNL     1      22.561   1.549  52.621  1.00  0.00     0.074 A 
HETATM   21  C17 UNL     1      21.298   1.029  52.687  1.00  0.00     0.052 A 
HETATM   22  C18 UNL     1      21.092  -0.272  53.136  1.00  0.00     0.118 A 
HETATM   23  N4  UNL     1      22.161  -1.022  53.509  1.00  0.00    -0.272 NA
HETATM   24  C19 UNL     1      23.416  -0.519  53.449  1.00  0.00     0.133 A 
HETATM   25  C20 UNL     1      23.615   0.770  53.003  1.00  0.00     0.046 A 
HETATM   26  H6  UNL     1      25.764   1.966  49.674  1.00  0.00     0.319 HD
ENDROOT
TORSDOF 0
ENDMDL
