MODEL 1
REMARK VINA RESULT:      -8.2      0.000      0.000
REMARK  3 active torsions:
REMARK  status: ('A' for Active; 'I' for Inactive)
REMARK    1  A    between atoms: O1_2  and  C2_3 
REMARK    2  A    between atoms: C5_6  and  C6_7 
REMARK    3  A    between atoms: C9_13  and  O2_14 
ROOT
HETATM    1  C6  UNL     1      21.201   0.464  52.705  1.00  0.00     0.067 C 
HETATM    2  N1  UNL     1      21.667   1.653  52.695  1.00  0.00    -0.180 NA
HETATM    3  N2  UNL     1      23.013   1.664  53.046  1.00  0.00    -0.287 N 
HETATM    4  C7  UNL     1      24.279   2.414  52.958  1.00  0.00     0.223 C 
HETATM    5  S1  UNL     1      25.445   1.618  51.860  1.00  0.00    -0.116 SA
HETATM    6  C8  UNL     1      27.098   2.253  52.181  1.00  0.00     0.102 C 
HETATM    7  C9  UNL     1      28.001   2.061  53.165  1.00  0.00     0.142 C 
HETATM    8  N3  UNL     1      27.897   1.224  54.339  1.00  0.00    -0.367 N 
HETATM    9  C10 UNL     1      27.207  -0.090  54.397  1.00  0.00     0.148 C 
HETATM   10  C11 UNL     1      25.772   0.103  54.209  1.00  0.00    -0.009 C 
HETATM   11  C12 UNL     1      24.621  -0.057  53.618  1.00  0.00    -0.002 C 
HETATM   12  C13 UNL     1      23.229   0.407  53.808  1.00  0.00     0.133 C 
HETATM   13  C14 UNL     1      22.259  -0.498  53.091  1.00  0.00     0.093 C 
HETATM   14  H10 UNL     1      28.339   1.570  55.218  1.00  0.00     0.161 HD
ENDROOT
BRANCH   1  15
HETATM   15  C5  UNL     1      19.855  -0.005  52.405  1.00  0.00    -0.010 A 
HETATM   16  C4  UNL     1      19.138   0.298  51.270  1.00  0.00     0.016 A 
HETATM   17  C3  UNL     1      17.862  -0.176  51.042  1.00  0.00     0.037 A 
HETATM   18  C2  UNL     1      17.257  -0.996  51.985  1.00  0.00     0.068 A 
HETATM   19  C16 UNL     1      17.970  -1.303  53.123  1.00  0.00     0.037 A 
HETATM   20  C15 UNL     1      19.246  -0.821  53.339  1.00  0.00     0.016 A 
BRANCH  18  21
HETATM   21  O1  UNL     1      15.987  -1.399  51.632  1.00  0.00    -0.356 OA
HETATM   22  C1  UNL     1      15.253  -2.423  52.243  1.00  0.00     0.210 C 
ENDBRANCH  18  21
ENDBRANCH   1  15
BRANCH   7  23
HETATM   23  O2  UNL     1      29.241   2.734  53.114  1.00  0.00    -0.346 OA
HETATM   24  H9  UNL     1      29.229   3.746  53.236  1.00  0.00     0.219 HD
ENDBRANCH   7  23
TORSDOF 3
ENDMDL
MODEL 2
REMARK VINA RESULT:      -7.9      3.593      8.546
REMARK  3 active torsions:
REMARK  status: ('A' for Active; 'I' for Inactive)
REMARK    1  A    between atoms: O1_2  and  C2_3 
REMARK    2  A    between atoms: C5_6  and  C6_7 
REMARK    3  A    between atoms: C9_13  and  O2_14 
ROOT
HETATM    1  C6  UNL     1      24.174   2.884  50.248  1.00  0.00     0.067 C 
HETATM    2  N1  UNL     1      23.286   2.182  49.657  1.00  0.00    -0.180 NA
HETATM    3  N2  UNL     1      22.607   1.373  50.563  1.00  0.00    -0.287 N 
HETATM    4  C7  UNL     1      21.365   0.619  50.816  1.00  0.00     0.223 C 
HETATM    5  S1  UNL     1      20.354   1.409  52.062  1.00  0.00    -0.116 SA
HETATM    6  C8  UNL     1      19.154   0.227  52.696  1.00  0.00     0.102 C 
HETATM    7  C9  UNL     1      19.231  -0.831  53.530  1.00  0.00     0.142 C 
HETATM    8  N3  UNL     1      20.389  -1.365  54.210  1.00  0.00    -0.367 N 
HETATM    9  C10 UNL     1      21.512  -0.559  54.753  1.00  0.00     0.148 C 
HETATM   10  C11 UNL     1      22.244   0.062  53.653  1.00  0.00    -0.009 C 
HETATM   11  C12 UNL     1      22.729   1.055  52.963  1.00  0.00    -0.002 C 
HETATM   12  C13 UNL     1      23.521   1.234  51.726  1.00  0.00     0.133 C 
HETATM   13  C14 UNL     1      24.177   2.592  51.700  1.00  0.00     0.093 C 
HETATM   14  H10 UNL     1      20.444  -2.400  54.329  1.00  0.00     0.161 HD
ENDROOT
BRANCH   1  15
HETATM   15  C5  UNL     1      25.105   3.856  49.692  1.00  0.00    -0.010 A 
HETATM   16  C4  UNL     1      26.448   3.643  49.474  1.00  0.00     0.016 A 
HETATM   17  C3  UNL     1      27.282   4.605  48.944  1.00  0.00     0.037 A 
HETATM   18  C2  UNL     1      26.766   5.850  48.609  1.00  0.00     0.068 A 
HETATM   19  C16 UNL     1      25.423   6.069  48.825  1.00  0.00     0.037 A 
HETATM   20  C15 UNL     1      24.599   5.098  49.356  1.00  0.00     0.016 A 
BRANCH  18  21
HETATM   21  O1  UNL     1      27.705   6.715  48.090  1.00  0.00    -0.356 OA
HETATM   22  C1  UNL     1      29.072   6.448  47.943  1.00  0.00     0.210 C 
ENDBRANCH  18  21
ENDBRANCH   1  15
BRANCH   7  23
HETATM   23  O2  UNL     1      18.066  -1.569  53.828  1.00  0.00    -0.346 OA
HETATM   24  H9  UNL     1      17.249  -1.413  53.237  1.00  0.00     0.219 HD
ENDBRANCH   7  23
TORSDOF 3
ENDMDL
MODEL 3
REMARK VINA RESULT:      -7.4      2.520      8.419
REMARK  3 active torsions:
REMARK  status: ('A' for Active; 'I' for Inactive)
REMARK    1  A    between atoms: O1_2  and  C2_3 
REMARK    2  A    between atoms: C5_6  and  C6_7 
REMARK    3  A    between atoms: C9_13  and  O2_14 
ROOT
HETATM    1  C6  UNL     1      23.953   0.638  52.419  1.00  0.00     0.067 C 
HETATM    2  N1  UNL     1      23.594   1.445  51.496  1.00  0.00    -0.180 NA
HETATM    3  N2  UNL     1      22.216   1.407  51.310  1.00  0.00    -0.287 N 
HETATM    4  C7  UNL     1      21.043   2.144  50.804  1.00  0.00     0.223 C 
HETATM    5  S1  UNL     1      19.994   2.714  52.137  1.00  0.00    -0.116 SA
HETATM    6  C8  UNL     1      18.370   3.128  51.483  1.00  0.00     0.102 C 
HETATM    7  C9  UNL     1      17.316   2.400  51.059  1.00  0.00     0.142 C 
HETATM    8  N3  UNL     1      17.173   0.963  51.003  1.00  0.00    -0.367 N 
HETATM    9  C10 UNL     1      17.736   0.005  51.989  1.00  0.00     0.148 C 
HETATM   10  C11 UNL     1      19.194   0.025  51.911  1.00  0.00    -0.009 C 
HETATM   11  C12 UNL     1      20.403   0.193  52.368  1.00  0.00    -0.002 C 
HETATM   12  C13 UNL     1      21.784   0.090  51.846  1.00  0.00     0.133 C 
HETATM   13  C14 UNL     1      22.774  -0.065  52.975  1.00  0.00     0.093 C 
HETATM   14  H10 UNL     1      16.634   0.563  50.205  1.00  0.00     0.161 HD
ENDROOT
BRANCH   1  15
HETATM   15  C5  UNL     1      25.286   0.359  52.937  1.00  0.00    -0.010 A 
HETATM   16  C4  UNL     1      26.366  -0.044  52.186  1.00  0.00     0.016 A 
HETATM   17  C3  UNL     1      27.607  -0.295  52.734  1.00  0.00     0.037 A 
HETATM   18  C2  UNL     1      27.796  -0.140  54.101  1.00  0.00     0.068 A 
HETATM   19  C16 UNL     1      26.718   0.263  54.858  1.00  0.00     0.037 A 
HETATM   20  C15 UNL     1      25.481   0.510  54.297  1.00  0.00     0.016 A 
BRANCH  18  21
HETATM   21  O1  UNL     1      29.080  -0.422  54.516  1.00  0.00    -0.356 OA
HETATM   22  C1  UNL     1      30.112  -0.915  53.708  1.00  0.00     0.210 C 
ENDBRANCH  18  21
ENDBRANCH   1  15
BRANCH   7  23
HETATM   23  O2  UNL     1      16.158   3.057  50.591  1.00  0.00    -0.346 OA
HETATM   24  H9  UNL     1      16.158   3.372  49.621  1.00  0.00     0.219 HD
ENDBRANCH   7  23
TORSDOF 3
ENDMDL
MODEL 4
REMARK VINA RESULT:      -7.1      4.770      8.116
REMARK  3 active torsions:
REMARK  status: ('A' for Active; 'I' for Inactive)
REMARK    1  A    between atoms: O1_2  and  C2_3 
REMARK    2  A    between atoms: C5_6  and  C6_7 
REMARK    3  A    between atoms: C9_13  and  O2_14 
ROOT
HETATM    1  C6  UNL     1      24.053   2.372  52.149  1.00  0.00     0.067 C 
HETATM    2  N1  UNL     1      22.805   2.467  52.405  1.00  0.00    -0.180 NA
HETATM    3  N2  UNL     1      22.295   3.681  51.956  1.00  0.00    -0.287 N 
HETATM    4  C7  UNL     1      21.078   4.402  51.544  1.00  0.00     0.223 C 
HETATM    5  S1  UNL     1      21.056   4.711  49.782  1.00  0.00    -0.116 SA
HETATM    6  C8  UNL     1      19.860   6.004  49.417  1.00  0.00     0.102 C 
HETATM    7  C9  UNL     1      19.848   7.344  49.580  1.00  0.00     0.142 C 
HETATM    8  N3  UNL     1      20.873   8.196  50.138  1.00  0.00    -0.367 N 
HETATM    9  C10 UNL     1      22.336   7.993  49.984  1.00  0.00     0.148 C 
HETATM   10  C11 UNL     1      22.737   6.778  50.686  1.00  0.00    -0.009 C 
HETATM   11  C12 UNL     1      23.246   5.583  50.791  1.00  0.00    -0.002 C 
HETATM   12  C13 UNL     1      23.469   4.588  51.864  1.00  0.00     0.133 C 
HETATM   13  C14 UNL     1      24.530   3.594  51.463  1.00  0.00     0.093 C 
HETATM   14  H10 UNL     1      20.563   9.020  50.698  1.00  0.00     0.161 HD
ENDROOT
BRANCH   1  15
HETATM   15  C5  UNL     1      24.977   1.284  52.439  1.00  0.00    -0.010 A 
HETATM   16  C4  UNL     1      26.225   1.125  51.881  1.00  0.00     0.016 A 
HETATM   17  C3  UNL     1      27.056   0.070  52.195  1.00  0.00     0.037 A 
HETATM   18  C2  UNL     1      26.635  -0.885  53.112  1.00  0.00     0.068 A 
HETATM   19  C16 UNL     1      25.387  -0.731  53.673  1.00  0.00     0.037 A 
HETATM   20  C15 UNL     1      24.565   0.329  53.350  1.00  0.00     0.016 A 
BRANCH  18  21
HETATM   21  O1  UNL     1      27.561  -1.882  53.334  1.00  0.00    -0.356 OA
HETATM   22  C1  UNL     1      28.952  -1.742  53.248  1.00  0.00     0.210 C 
ENDBRANCH  18  21
ENDBRANCH   1  15
BRANCH   7  23
HETATM   23  O2  UNL     1      18.717   8.086  49.175  1.00  0.00    -0.346 OA
HETATM   24  H9  UNL     1      18.885   8.991  48.736  1.00  0.00     0.219 HD
ENDBRANCH   7  23
TORSDOF 3
ENDMDL
MODEL 5
REMARK VINA RESULT:      -7.1      7.780     10.507
REMARK  3 active torsions:
REMARK  status: ('A' for Active; 'I' for Inactive)
REMARK    1  A    between atoms: O1_2  and  C2_3 
REMARK    2  A    between atoms: C5_6  and  C6_7 
REMARK    3  A    between atoms: C9_13  and  O2_14 
ROOT
HETATM    1  C6  UNL     1      28.320   5.722  48.357  1.00  0.00     0.067 C 
HETATM    2  N1  UNL     1      29.380   5.037  48.155  1.00  0.00    -0.180 NA
HETATM    3  N2  UNL     1      30.442   5.859  47.793  1.00  0.00    -0.287 N 
HETATM    4  C7  UNL     1      31.910   5.983  47.736  1.00  0.00     0.223 C 
HETATM    5  S1  UNL     1      32.524   7.152  48.943  1.00  0.00    -0.116 SA
HETATM    6  C8  UNL     1      34.195   7.648  48.498  1.00  0.00     0.102 C 
HETATM    7  C9  UNL     1      34.712   8.460  47.553  1.00  0.00     0.142 C 
HETATM    8  N3  UNL     1      34.020   9.229  46.544  1.00  0.00    -0.367 N 
HETATM    9  C10 UNL     1      32.702   9.889  46.721  1.00  0.00     0.148 C 
HETATM   10  C11 UNL     1      31.666   8.874  46.889  1.00  0.00    -0.009 C 
HETATM   11  C12 UNL     1      30.704   8.253  47.511  1.00  0.00    -0.002 C 
HETATM   12  C13 UNL     1      29.816   7.096  47.258  1.00  0.00     0.133 C 
HETATM   13  C14 UNL     1      28.588   7.161  48.133  1.00  0.00     0.093 C 
HETATM   14  H10 UNL     1      34.481   9.328  45.613  1.00  0.00     0.161 HD
ENDROOT
BRANCH   1  15
HETATM   15  C5  UNL     1      26.991   5.274  48.748  1.00  0.00    -0.010 A 
HETATM   16  C4  UNL     1      25.841   6.029  48.683  1.00  0.00     0.016 A 
HETATM   17  C3  UNL     1      24.607   5.549  49.070  1.00  0.00     0.037 A 
HETATM   18  C2  UNL     1      24.497   4.251  49.550  1.00  0.00     0.068 A 
HETATM   19  C16 UNL     1      25.644   3.491  49.618  1.00  0.00     0.037 A 
HETATM   20  C15 UNL     1      26.873   3.983  49.228  1.00  0.00     0.016 A 
BRANCH  18  21
HETATM   21  O1  UNL     1      23.211   3.900  49.900  1.00  0.00    -0.356 OA
HETATM   22  C1  UNL     1      22.779   3.547  51.185  1.00  0.00     0.210 C 
ENDBRANCH  18  21
ENDBRANCH   1  15
BRANCH   7  23
HETATM   23  O2  UNL     1      36.111   8.636  47.473  1.00  0.00    -0.346 OA
HETATM   24  H9  UNL     1      36.458   9.331  46.812  1.00  0.00     0.219 HD
ENDBRANCH   7  23
TORSDOF 3
ENDMDL
MODEL 6
REMARK VINA RESULT:      -7.0      3.602      8.364
REMARK  3 active torsions:
REMARK  status: ('A' for Active; 'I' for Inactive)
REMARK    1  A    between atoms: O1_2  and  C2_3 
REMARK    2  A    between atoms: C5_6  and  C6_7 
REMARK    3  A    between atoms: C9_13  and  O2_14 
ROOT
HETATM    1  C6  UNL     1      23.494   1.538  52.304  1.00  0.00     0.067 C 
HETATM    2  N1  UNL     1      22.410   1.600  52.976  1.00  0.00    -0.180 NA
HETATM    3  N2  UNL     1      21.487   2.436  52.356  1.00  0.00    -0.287 N 
HETATM    4  C7  UNL     1      20.057   2.772  52.225  1.00  0.00     0.223 C 
HETATM    5  S1  UNL     1      19.405   2.279  50.634  1.00  0.00    -0.116 SA
HETATM    6  C8  UNL     1      17.861   3.149  50.326  1.00  0.00     0.102 C 
HETATM    7  C9  UNL     1      17.551   4.417  49.981  1.00  0.00     0.142 C 
HETATM    8  N3  UNL     1      18.438   5.531  49.740  1.00  0.00    -0.367 N 
HETATM    9  C10 UNL     1      19.779   5.440  49.108  1.00  0.00     0.148 C 
HETATM   10  C11 UNL     1      20.683   4.701  49.985  1.00  0.00    -0.009 C 
HETATM   11  C12 UNL     1      21.493   3.732  50.308  1.00  0.00    -0.002 C 
HETATM   12  C13 UNL     1      22.292   3.333  51.488  1.00  0.00     0.133 C 
HETATM   13  C14 UNL     1      23.396   2.384  51.092  1.00  0.00     0.093 C 
HETATM   14  H10 UNL     1      18.115   6.478  50.036  1.00  0.00     0.161 HD
ENDROOT
BRANCH   1  15
HETATM   15  C5  UNL     1      24.713   0.790  52.581  1.00  0.00    -0.010 A 
HETATM   16  C4  UNL     1      25.914   0.948  51.926  1.00  0.00     0.016 A 
HETATM   17  C3  UNL     1      27.036   0.207  52.233  1.00  0.00     0.037 A 
HETATM   18  C2  UNL     1      26.974  -0.744  53.243  1.00  0.00     0.068 A 
HETATM   19  C16 UNL     1      25.775  -0.906  53.901  1.00  0.00     0.037 A 
HETATM   20  C15 UNL     1      24.659  -0.159  53.584  1.00  0.00     0.016 A 
BRANCH  18  21
HETATM   21  O1  UNL     1      28.163  -1.411  53.446  1.00  0.00    -0.356 OA
HETATM   22  C1  UNL     1      29.394  -0.816  53.752  1.00  0.00     0.210 C 
ENDBRANCH  18  21
ENDBRANCH   1  15
BRANCH   7  23
HETATM   23  O2  UNL     1      16.198   4.783  49.814  1.00  0.00    -0.346 OA
HETATM   24  H9  UNL     1      15.757   4.553  48.923  1.00  0.00     0.219 HD
ENDBRANCH   7  23
TORSDOF 3
ENDMDL
MODEL 7
REMARK VINA RESULT:      -7.0      3.092      8.420
REMARK  3 active torsions:
REMARK  status: ('A' for Active; 'I' for Inactive)
REMARK    1  A    between atoms: O1_2  and  C2_3 
REMARK    2  A    between atoms: C5_6  and  C6_7 
REMARK    3  A    between atoms: C9_13  and  O2_14 
ROOT
HETATM    1  C6  UNL     1      23.187   0.993  51.768  1.00  0.00     0.067 C 
HETATM    2  N1  UNL     1      23.104   1.748  50.741  1.00  0.00    -0.180 NA
HETATM    3  N2  UNL     1      21.806   1.765  50.240  1.00  0.00    -0.287 N 
HETATM    4  C7  UNL     1      20.832   2.521  49.431  1.00  0.00     0.223 C 
HETATM    5  S1  UNL     1      19.544   3.237  50.445  1.00  0.00    -0.116 SA
HETATM    6  C8  UNL     1      18.144   3.683  49.406  1.00  0.00     0.102 C 
HETATM    7  C9  UNL     1      17.171   2.979  48.790  1.00  0.00     0.142 C 
HETATM    8  N3  UNL     1      16.952   1.551  48.786  1.00  0.00    -0.367 N 
HETATM    9  C10 UNL     1      17.210   0.640  49.930  1.00  0.00     0.148 C 
HETATM   10  C11 UNL     1      18.644   0.582  50.196  1.00  0.00    -0.009 C 
HETATM   11  C12 UNL     1      19.724   0.721  50.912  1.00  0.00    -0.002 C 
HETATM   12  C13 UNL     1      21.178   0.513  50.736  1.00  0.00     0.133 C 
HETATM   13  C14 UNL     1      21.869   0.391  52.071  1.00  0.00     0.093 C 
HETATM   14  H10 UNL     1      16.586   1.122  47.908  1.00  0.00     0.161 HD
ENDROOT
BRANCH   1  15
HETATM   15  C5  UNL     1      24.344   0.687  52.598  1.00  0.00    -0.010 A 
HETATM   16  C4  UNL     1      25.584   1.275  52.490  1.00  0.00     0.016 A 
HETATM   17  C3  UNL     1      26.645   0.941  53.307  1.00  0.00     0.037 A 
HETATM   18  C2  UNL     1      26.475  -0.028  54.287  1.00  0.00     0.068 A 
HETATM   19  C16 UNL     1      25.237  -0.619  54.400  1.00  0.00     0.037 A 
HETATM   20  C15 UNL     1      24.184  -0.277  53.576  1.00  0.00     0.016 A 
BRANCH  18  21
HETATM   21  O1  UNL     1      27.611  -0.263  55.031  1.00  0.00    -0.356 OA
HETATM   22  C1  UNL     1      28.921   0.059  54.652  1.00  0.00     0.210 C 
ENDBRANCH  18  21
ENDBRANCH   1  15
BRANCH   7  23
HETATM   23  O2  UNL     1      16.197   3.658  48.027  1.00  0.00    -0.346 OA
HETATM   24  H9  UNL     1      15.277   3.787  48.450  1.00  0.00     0.219 HD
ENDBRANCH   7  23
TORSDOF 3
ENDMDL
MODEL 8
REMARK VINA RESULT:      -7.0      3.898      9.193
REMARK  3 active torsions:
REMARK  status: ('A' for Active; 'I' for Inactive)
REMARK    1  A    between atoms: O1_2  and  C2_3 
REMARK    2  A    between atoms: C5_6  and  C6_7 
REMARK    3  A    between atoms: C9_13  and  O2_14 
ROOT
HETATM    1  C6  UNL     1      24.564   3.998  50.162  1.00  0.00     0.067 C 
HETATM    2  N1  UNL     1      24.270   3.960  51.405  1.00  0.00    -0.180 NA
HETATM    3  N2  UNL     1      23.125   3.201  51.622  1.00  0.00    -0.287 N 
HETATM    4  C7  UNL     1      22.366   2.414  52.612  1.00  0.00     0.223 C 
HETATM    5  S1  UNL     1      22.433   0.662  52.257  1.00  0.00    -0.116 SA
HETATM    6  C8  UNL     1      21.112  -0.178  53.143  1.00  0.00     0.102 C 
HETATM    7  C9  UNL     1      19.777  -0.266  52.972  1.00  0.00     0.142 C 
HETATM    8  N3  UNL     1      18.954   0.334  51.946  1.00  0.00    -0.367 N 
HETATM    9  C10 UNL     1      19.358   0.535  50.531  1.00  0.00     0.148 C 
HETATM   10  C11 UNL     1      20.438   1.515  50.465  1.00  0.00    -0.009 C 
HETATM   11  C12 UNL     1      21.637   1.941  50.182  1.00  0.00    -0.002 C 
HETATM   12  C13 UNL     1      22.404   3.198  50.323  1.00  0.00     0.133 C 
HETATM   13  C14 UNL     1      23.579   3.220  49.377  1.00  0.00     0.093 C 
HETATM   14  H10 UNL     1      18.001   0.656  52.220  1.00  0.00     0.161 HD
ENDROOT
BRANCH   1  15
HETATM   15  C5  UNL     1      25.670   4.671  49.493  1.00  0.00    -0.010 A 
HETATM   16  C4  UNL     1      26.904   4.118  49.237  1.00  0.00     0.016 A 
HETATM   17  C3  UNL     1      27.915   4.807  48.600  1.00  0.00     0.037 A 
HETATM   18  C2  UNL     1      27.699   6.116  48.190  1.00  0.00     0.068 A 
HETATM   19  C16 UNL     1      26.466   6.675  48.444  1.00  0.00     0.037 A 
HETATM   20  C15 UNL     1      25.463   5.975  49.084  1.00  0.00     0.016 A 
BRANCH  18  21
HETATM   21  O1  UNL     1      28.789   6.686  47.567  1.00  0.00    -0.356 OA
HETATM   22  C1  UNL     1      29.962   7.117  48.199  1.00  0.00     0.210 C 
ENDBRANCH  18  21
ENDBRANCH   1  15
BRANCH   7  23
HETATM   23  O2  UNL     1      19.007  -1.031  53.875  1.00  0.00    -0.346 OA
HETATM   24  H9  UNL     1      19.313  -1.054  54.848  1.00  0.00     0.219 HD
ENDBRANCH   7  23
TORSDOF 3
ENDMDL
MODEL 9
REMARK VINA RESULT:      -6.9      4.422      8.336
REMARK  3 active torsions:
REMARK  status: ('A' for Active; 'I' for Inactive)
REMARK    1  A    between atoms: O1_2  and  C2_3 
REMARK    2  A    between atoms: C5_6  and  C6_7 
REMARK    3  A    between atoms: C9_13  and  O2_14 
ROOT
HETATM    1  C6  UNL     1      24.264   2.197  51.433  1.00  0.00     0.067 C 
HETATM    2  N1  UNL     1      24.389   3.009  50.454  1.00  0.00    -0.180 NA
HETATM    3  N2  UNL     1      23.172   3.606  50.144  1.00  0.00    -0.287 N 
HETATM    4  C7  UNL     1      22.523   4.767  49.507  1.00  0.00     0.223 C 
HETATM    5  S1  UNL     1      21.783   5.857  50.718  1.00  0.00    -0.116 SA
HETATM    6  C8  UNL     1      20.593   6.934  49.904  1.00  0.00     0.102 C 
HETATM    7  C9  UNL     1      19.351   6.755  49.409  1.00  0.00     0.142 C 
HETATM    8  N3  UNL     1      18.551   5.552  49.388  1.00  0.00    -0.367 N 
HETATM    9  C10 UNL     1      18.528   4.516  50.452  1.00  0.00     0.148 C 
HETATM   10  C11 UNL     1      19.824   3.846  50.509  1.00  0.00    -0.009 C 
HETATM   11  C12 UNL     1      20.936   3.462  51.069  1.00  0.00    -0.002 C 
HETATM   12  C13 UNL     1      22.136   2.687  50.681  1.00  0.00     0.133 C 
HETATM   13  C14 UNL     1      22.859   2.170  51.900  1.00  0.00     0.093 C 
HETATM   14  H10 UNL     1      17.940   5.394  48.557  1.00  0.00     0.161 HD
ENDROOT
BRANCH   1  15
HETATM   15  C5  UNL     1      25.270   1.366  52.080  1.00  0.00    -0.010 A 
HETATM   16  C4  UNL     1      26.633   1.521  51.959  1.00  0.00     0.016 A 
HETATM   17  C3  UNL     1      27.538   0.699  52.597  1.00  0.00     0.037 A 
HETATM   18  C2  UNL     1      27.077  -0.335  53.401  1.00  0.00     0.068 A 
HETATM   19  C16 UNL     1      25.715  -0.494  53.526  1.00  0.00     0.037 A 
HETATM   20  C15 UNL     1      24.819   0.335  52.882  1.00  0.00     0.016 A 
BRANCH  18  21
HETATM   21  O1  UNL     1      28.086  -1.076  53.978  1.00  0.00    -0.356 OA
HETATM   22  C1  UNL     1      29.434  -1.063  53.597  1.00  0.00     0.210 C 
ENDBRANCH  18  21
ENDBRANCH   1  15
BRANCH   7  23
HETATM   23  O2  UNL     1      18.673   7.841  48.815  1.00  0.00    -0.346 OA
HETATM   24  H9  UNL     1      17.949   8.300  49.369  1.00  0.00     0.219 HD
ENDBRANCH   7  23
TORSDOF 3
ENDMDL
