MODEL 1
REMARK VINA RESULT:      -7.8      0.000      0.000
REMARK  8 active torsions:
REMARK  status: ('A' for Active; 'I' for Inactive)
REMARK    1  A    between atoms: C11_11  and  O1_12 
REMARK    2  A    between atoms: O1_12  and  C12_13 
REMARK    3  A    between atoms: C12_13  and  C13_14 
REMARK    4  A    between atoms: C13_14  and  O2_15 
REMARK    5  A    between atoms: C15_17  and  O3_18 
REMARK    6  A    between atoms: O3_18  and  C16_19 
REMARK    7  A    between atoms: C16_19  and  C17_20 
REMARK    8  A    between atoms: C17_20  and  O4_21 
ROOT
HETATM    1  C1  UNL     1      23.234  -1.436  55.347  1.00  0.00     0.018 C 
HETATM    2  C2  UNL     1      22.440  -0.994  54.525  1.00  0.00    -0.077 C 
HETATM    3  C3  UNL     1      21.487  -0.490  53.560  1.00  0.00     0.029 A 
HETATM    4  C4  UNL     1      20.182  -0.852  53.814  1.00  0.00     0.021 A 
HETATM    5  C5  UNL     1      19.206  -0.417  52.952  1.00  0.00     0.004 A 
HETATM    6  C6  UNL     1      19.655   0.359  51.893  1.00  0.00     0.030 A 
HETATM    7  C7  UNL     1      20.979   0.738  51.617  1.00  0.00     0.043 A 
HETATM    8  C8  UNL     1      21.961   0.288  52.503  1.00  0.00     0.006 A 
HETATM    9  C9  UNL     1      23.405   0.587  52.376  1.00  0.00     0.001 C 
HETATM   10  C10 UNL     1      23.550   1.815  51.785  1.00  0.00     0.083 C 
HETATM   11  C11 UNL     1      24.763   2.627  51.410  1.00  0.00     0.090 C 
HETATM   12  C15 UNL     1      24.330   3.749  50.839  1.00  0.00     0.117 C 
HETATM   13  C19 UNL     1      23.414   4.785  50.295  1.00  0.00     0.043 A 
HETATM   14  C20 UNL     1      22.984   5.903  49.728  1.00  0.00     0.156 A 
HETATM   15  N1  UNL     1      21.972   4.720  50.187  1.00  0.00    -0.239 NA
HETATM   16  C21 UNL     1      21.573   3.738  49.388  1.00  0.00     0.184 C 
HETATM   17  N2  UNL     1      22.699   3.039  48.871  1.00  0.00    -0.245 NA
HETATM   18  C22 UNL     1      22.528   1.809  48.578  1.00  0.00     0.103 C 
HETATM   19  C23 UNL     1      21.438   1.277  49.046  1.00  0.00     0.122 C 
HETATM   20  N3  UNL     1      21.182   1.551  50.432  1.00  0.00    -0.363 N 
HETATM   21  H25 UNL     1      21.033   2.314  51.118  1.00  0.00     0.165 HD
ENDROOT
BRANCH  11  22
HETATM   22  O1  UNL     1      26.200   2.668  51.430  1.00  0.00    -0.350 OA
BRANCH  22  23
HETATM   23  C12 UNL     1      26.778   1.587  52.183  1.00  0.00     0.201 C 
BRANCH  23  24
HETATM   24  C13 UNL     1      27.315   2.020  53.507  1.00  0.00     0.193 C 
BRANCH  24  25
HETATM   25  O2  UNL     1      26.517   1.631  54.559  1.00  0.00    -0.394 OA
HETATM   26  C14 UNL     1      26.521   0.298  54.875  1.00  0.00     0.201 C 
ENDBRANCH  24  25
ENDBRANCH  23  24
ENDBRANCH  22  23
ENDBRANCH  11  22
BRANCH  12  27
HETATM   27  O3  UNL     1      25.252   4.708  50.384  1.00  0.00    -0.345 OA
BRANCH  27  28
HETATM   28  C16 UNL     1      26.000   4.345  49.233  1.00  0.00     0.202 C 
BRANCH  28  29
HETATM   29  C17 UNL     1      27.009   5.391  48.831  1.00  0.00     0.193 C 
BRANCH  29  30
HETATM   30  O4  UNL     1      28.214   4.768  48.545  1.00  0.00    -0.394 OA
HETATM   31  C18 UNL     1      29.189   5.701  48.173  1.00  0.00     0.201 C 
ENDBRANCH  29  30
ENDBRANCH  28  29
ENDBRANCH  27  28
ENDBRANCH  12  27
TORSDOF 8
ENDMDL
MODEL 2
REMARK VINA RESULT:      -7.3      1.874      6.548
REMARK  8 active torsions:
REMARK  status: ('A' for Active; 'I' for Inactive)
REMARK    1  A    between atoms: C11_11  and  O1_12 
REMARK    2  A    between atoms: O1_12  and  C12_13 
REMARK    3  A    between atoms: C12_13  and  C13_14 
REMARK    4  A    between atoms: C13_14  and  O2_15 
REMARK    5  A    between atoms: C15_17  and  O3_18 
REMARK    6  A    between atoms: O3_18  and  C16_19 
REMARK    7  A    between atoms: C16_19  and  C17_20 
REMARK    8  A    between atoms: C17_20  and  O4_21 
ROOT
HETATM    1  C1  UNL     1      28.536   5.479  48.480  1.00  0.00     0.018 C 
HETATM    2  C2  UNL     1      27.340   5.747  48.513  1.00  0.00    -0.077 C 
HETATM    3  C3  UNL     1      25.934   6.084  48.542  1.00  0.00     0.029 A 
HETATM    4  C4  UNL     1      25.572   7.074  47.655  1.00  0.00     0.021 A 
HETATM    5  C5  UNL     1      24.255   7.459  47.610  1.00  0.00     0.004 A 
HETATM    6  C6  UNL     1      23.414   6.790  48.487  1.00  0.00     0.030 A 
HETATM    7  C7  UNL     1      23.763   5.780  49.398  1.00  0.00     0.043 A 
HETATM    8  C8  UNL     1      25.106   5.399  49.432  1.00  0.00     0.006 A 
HETATM    9  C9  UNL     1      25.658   4.354  50.323  1.00  0.00     0.001 C 
HETATM   10  C10 UNL     1      24.689   3.411  50.549  1.00  0.00     0.083 C 
HETATM   11  C11 UNL     1      24.676   2.140  51.359  1.00  0.00     0.090 C 
HETATM   12  C15 UNL     1      23.459   1.610  51.248  1.00  0.00     0.117 C 
HETATM   13  C19 UNL     1      22.041   1.422  50.847  1.00  0.00     0.043 A 
HETATM   14  C20 UNL     1      20.831   0.893  50.736  1.00  0.00     0.156 A 
HETATM   15  N1  UNL     1      21.213   2.326  50.077  1.00  0.00    -0.239 NA
HETATM   16  C21 UNL     1      21.039   3.491  50.688  1.00  0.00     0.184 C 
HETATM   17  N2  UNL     1      21.726   3.497  51.935  1.00  0.00    -0.245 NA
HETATM   18  C22 UNL     1      22.129   4.629  52.363  1.00  0.00     0.103 C 
HETATM   19  C23 UNL     1      22.114   5.588  51.486  1.00  0.00     0.122 C 
HETATM   20  N3  UNL     1      22.685   5.249  50.213  1.00  0.00    -0.363 N 
HETATM   21  H25 UNL     1      22.608   4.595  49.412  1.00  0.00     0.165 HD
ENDROOT
BRANCH  11  22
HETATM   22  O1  UNL     1      25.459   1.275  52.200  1.00  0.00    -0.350 OA
BRANCH  22  23
HETATM   23  C12 UNL     1      26.870   1.379  51.945  1.00  0.00     0.201 C 
BRANCH  23  24
HETATM   24  C13 UNL     1      27.603   2.121  53.013  1.00  0.00     0.193 C 
BRANCH  24  25
HETATM   25  O2  UNL     1      27.542   1.492  54.237  1.00  0.00    -0.394 OA
HETATM   26  C14 UNL     1      28.228   0.314  54.359  1.00  0.00     0.201 C 
ENDBRANCH  24  25
ENDBRANCH  23  24
ENDBRANCH  22  23
ENDBRANCH  11  22
BRANCH  12  27
HETATM   27  O3  UNL     1      23.154   0.406  51.907  1.00  0.00    -0.345 OA
BRANCH  27  28
HETATM   28  C16 UNL     1      22.858   0.520  53.291  1.00  0.00     0.202 C 
BRANCH  28  29
HETATM   29  C17 UNL     1      22.666  -0.815  53.965  1.00  0.00     0.193 C 
BRANCH  29  30
HETATM   30  O4  UNL     1      21.331  -0.956  54.314  1.00  0.00    -0.394 OA
HETATM   31  C18 UNL     1      20.709   0.291  54.440  1.00  0.00     0.201 C 
ENDBRANCH  29  30
ENDBRANCH  28  29
ENDBRANCH  27  28
ENDBRANCH  12  27
TORSDOF 8
ENDMDL
MODEL 3
REMARK VINA RESULT:      -7.3      1.525      3.278
REMARK  8 active torsions:
REMARK  status: ('A' for Active; 'I' for Inactive)
REMARK    1  A    between atoms: C11_11  and  O1_12 
REMARK    2  A    between atoms: O1_12  and  C12_13 
REMARK    3  A    between atoms: C12_13  and  C13_14 
REMARK    4  A    between atoms: C13_14  and  O2_15 
REMARK    5  A    between atoms: C15_17  and  O3_18 
REMARK    6  A    between atoms: O3_18  and  C16_19 
REMARK    7  A    between atoms: C16_19  and  C17_20 
REMARK    8  A    between atoms: C17_20  and  O4_21 
ROOT
HETATM    1  C1  UNL     1      26.234  -0.084  54.547  1.00  0.00     0.018 C 
HETATM    2  C2  UNL     1      25.112  -0.061  54.053  1.00  0.00    -0.077 C 
HETATM    3  C3  UNL     1      23.785  -0.055  53.479  1.00  0.00     0.029 A 
HETATM    4  C4  UNL     1      22.913  -0.950  54.061  1.00  0.00     0.021 A 
HETATM    5  C5  UNL     1      21.629  -1.014  53.582  1.00  0.00     0.004 A 
HETATM    6  C6  UNL     1      21.343  -0.147  52.538  1.00  0.00     0.030 A 
HETATM    7  C7  UNL     1      22.216   0.771  51.930  1.00  0.00     0.043 A 
HETATM    8  C8  UNL     1      23.520   0.824  52.428  1.00  0.00     0.006 A 
HETATM    9  C9  UNL     1      24.575   1.728  51.918  1.00  0.00     0.001 C 
HETATM   10  C10 UNL     1      23.987   2.877  51.458  1.00  0.00     0.083 C 
HETATM   11  C11 UNL     1      24.549   4.132  50.841  1.00  0.00     0.090 C 
HETATM   12  C15 UNL     1      23.523   4.932  50.559  1.00  0.00     0.117 C 
HETATM   13  C19 UNL     1      22.133   5.442  50.435  1.00  0.00     0.043 A 
HETATM   14  C20 UNL     1      21.112   6.238  50.156  1.00  0.00     0.156 A 
HETATM   15  N1  UNL     1      20.904   4.743  50.750  1.00  0.00    -0.239 NA
HETATM   16  C21 UNL     1      20.733   3.665  49.994  1.00  0.00     0.184 C 
HETATM   17  N2  UNL     1      21.822   3.523  49.090  1.00  0.00    -0.245 NA
HETATM   18  C22 UNL     1      22.110   2.337  48.718  1.00  0.00     0.103 C 
HETATM   19  C23 UNL     1      21.561   1.390  49.420  1.00  0.00     0.122 C 
HETATM   20  N3  UNL     1      21.666   1.558  50.842  1.00  0.00    -0.363 N 
HETATM   21  H25 UNL     1      21.430   2.195  51.626  1.00  0.00     0.165 HD
ENDROOT
BRANCH  11  22
HETATM   22  O1  UNL     1      25.756   4.804  50.442  1.00  0.00    -0.350 OA
BRANCH  22  23
HETATM   23  C12 UNL     1      26.304   4.285  49.218  1.00  0.00     0.201 C 
BRANCH  23  24
HETATM   24  C13 UNL     1      27.247   5.232  48.553  1.00  0.00     0.193 C 
BRANCH  24  25
HETATM   25  O2  UNL     1      28.568   4.913  48.774  1.00  0.00    -0.394 OA
HETATM   26  C14 UNL     1      29.503   5.660  48.108  1.00  0.00     0.201 C 
ENDBRANCH  24  25
ENDBRANCH  23  24
ENDBRANCH  22  23
ENDBRANCH  11  22
BRANCH  12  27
HETATM   27  O3  UNL     1      23.751   6.187  49.969  1.00  0.00    -0.345 OA
BRANCH  27  28
HETATM   28  C16 UNL     1      24.196   7.209  50.850  1.00  0.00     0.202 C 
BRANCH  28  29
HETATM   29  C17 UNL     1      25.043   8.251  50.163  1.00  0.00     0.193 C 
BRANCH  29  30
HETATM   30  O4  UNL     1      26.376   8.014  50.460  1.00  0.00    -0.394 OA
HETATM   31  C18 UNL     1      27.211   8.905  49.776  1.00  0.00     0.201 C 
ENDBRANCH  29  30
ENDBRANCH  28  29
ENDBRANCH  27  28
ENDBRANCH  12  27
TORSDOF 8
ENDMDL
MODEL 4
REMARK VINA RESULT:      -7.2      1.906      4.134
REMARK  8 active torsions:
REMARK  status: ('A' for Active; 'I' for Inactive)
REMARK    1  A    between atoms: C11_11  and  O1_12 
REMARK    2  A    between atoms: O1_12  and  C12_13 
REMARK    3  A    between atoms: C12_13  and  C13_14 
REMARK    4  A    between atoms: C13_14  and  O2_15 
REMARK    5  A    between atoms: C15_17  and  O3_18 
REMARK    6  A    between atoms: O3_18  and  C16_19 
REMARK    7  A    between atoms: C16_19  and  C17_20 
REMARK    8  A    between atoms: C17_20  and  O4_21 
ROOT
HETATM    1  C1  UNL     1      27.953  -0.323  53.740  1.00  0.00     0.018 C 
HETATM    2  C2  UNL     1      26.737  -0.360  53.885  1.00  0.00    -0.077 C 
HETATM    3  C3  UNL     1      25.304  -0.421  54.071  1.00  0.00     0.029 A 
HETATM    4  C4  UNL     1      24.910  -1.086  55.212  1.00  0.00     0.021 A 
HETATM    5  C5  UNL     1      23.567  -1.193  55.473  1.00  0.00     0.004 A 
HETATM    6  C6  UNL     1      22.733  -0.604  54.534  1.00  0.00     0.030 A 
HETATM    7  C7  UNL     1      23.114   0.078  53.366  1.00  0.00     0.043 A 
HETATM    8  C8  UNL     1      24.484   0.178  53.114  1.00  0.00     0.006 A 
HETATM    9  C9  UNL     1      25.072   0.859  51.938  1.00  0.00     0.001 C 
HETATM   10  C10 UNL     1      24.246   1.888  51.566  1.00  0.00     0.083 C 
HETATM   11  C11 UNL     1      24.328   2.909  50.462  1.00  0.00     0.090 C 
HETATM   12  C15 UNL     1      23.239   3.672  50.543  1.00  0.00     0.117 C 
HETATM   13  C19 UNL     1      21.936   4.215  51.009  1.00  0.00     0.043 A 
HETATM   14  C20 UNL     1      20.854   4.974  51.090  1.00  0.00     0.156 A 
HETATM   15  N1  UNL     1      21.086   3.692  52.058  1.00  0.00    -0.239 NA
HETATM   16  C21 UNL     1      20.645   2.471  51.784  1.00  0.00     0.184 C 
HETATM   17  N2  UNL     1      21.147   2.040  50.524  1.00  0.00    -0.245 NA
HETATM   18  C22 UNL     1      21.302   0.784  50.365  1.00  0.00     0.103 C 
HETATM   19  C23 UNL     1      21.251   0.080  51.457  1.00  0.00     0.122 C 
HETATM   20  N3  UNL     1      22.036   0.595  52.543  1.00  0.00    -0.363 N 
HETATM   21  H25 UNL     1      22.174   1.422  53.154  1.00  0.00     0.165 HD
ENDROOT
BRANCH  11  22
HETATM   22  O1  UNL     1      25.120   3.387  49.360  1.00  0.00    -0.350 OA
BRANCH  22  23
HETATM   23  C12 UNL     1      26.449   3.766  49.753  1.00  0.00     0.201 C 
BRANCH  23  24
HETATM   24  C13 UNL     1      27.000   4.890  48.939  1.00  0.00     0.193 C 
BRANCH  24  25
HETATM   25  O2  UNL     1      28.311   4.689  48.570  1.00  0.00    -0.394 OA
HETATM   26  C14 UNL     1      29.021   5.797  48.191  1.00  0.00     0.201 C 
ENDBRANCH  24  25
ENDBRANCH  23  24
ENDBRANCH  22  23
ENDBRANCH  11  22
BRANCH  12  27
HETATM   27  O3  UNL     1      23.045   4.721  49.628  1.00  0.00    -0.345 OA
BRANCH  27  28
HETATM   28  C16 UNL     1      22.597   4.336  48.337  1.00  0.00     0.202 C 
BRANCH  28  29
HETATM   29  C17 UNL     1      22.138   5.504  47.500  1.00  0.00     0.193 C 
BRANCH  29  30
HETATM   30  O4  UNL     1      22.339   5.204  46.160  1.00  0.00    -0.394 OA
HETATM   31  C18 UNL     1      22.306   6.362  45.374  1.00  0.00     0.201 C 
ENDBRANCH  29  30
ENDBRANCH  28  29
ENDBRANCH  27  28
ENDBRANCH  12  27
TORSDOF 8
ENDMDL
MODEL 5
REMARK VINA RESULT:      -7.2      1.798      3.272
REMARK  8 active torsions:
REMARK  status: ('A' for Active; 'I' for Inactive)
REMARK    1  A    between atoms: C11_11  and  O1_12 
REMARK    2  A    between atoms: O1_12  and  C12_13 
REMARK    3  A    between atoms: C12_13  and  C13_14 
REMARK    4  A    between atoms: C13_14  and  O2_15 
REMARK    5  A    between atoms: C15_17  and  O3_18 
REMARK    6  A    between atoms: O3_18  and  C16_19 
REMARK    7  A    between atoms: C16_19  and  C17_20 
REMARK    8  A    between atoms: C17_20  and  O4_21 
ROOT
HETATM    1  C1  UNL     1      17.923  -2.651  53.820  1.00  0.00     0.018 C 
HETATM    2  C2  UNL     1      17.883  -1.648  53.116  1.00  0.00    -0.077 C 
HETATM    3  C3  UNL     1      17.813  -0.470  52.280  1.00  0.00     0.029 A 
HETATM    4  C4  UNL     1      16.531  -0.050  52.002  1.00  0.00     0.021 A 
HETATM    5  C5  UNL     1      16.366   1.062  51.215  1.00  0.00     0.004 A 
HETATM    6  C6  UNL     1      17.541   1.656  50.777  1.00  0.00     0.030 A 
HETATM    7  C7  UNL     1      18.856   1.244  51.048  1.00  0.00     0.043 A 
HETATM    8  C8  UNL     1      19.007   0.110  51.850  1.00  0.00     0.006 A 
HETATM    9  C9  UNL     1      20.312  -0.470  52.243  1.00  0.00     0.001 C 
HETATM   10  C10 UNL     1      21.234   0.540  52.331  1.00  0.00     0.083 C 
HETATM   11  C11 UNL     1      22.698   0.552  52.687  1.00  0.00     0.090 C 
HETATM   12  C15 UNL     1      23.119   1.813  52.599  1.00  0.00     0.117 C 
HETATM   13  C19 UNL     1      23.117   3.281  52.372  1.00  0.00     0.043 A 
HETATM   14  C20 UNL     1      23.535   4.535  52.286  1.00  0.00     0.156 A 
HETATM   15  N1  UNL     1      22.025   4.098  51.885  1.00  0.00    -0.239 NA
HETATM   16  C21 UNL     1      21.656   3.760  50.656  1.00  0.00     0.184 C 
HETATM   17  N2  UNL     1      22.457   2.684  50.182  1.00  0.00    -0.245 NA
HETATM   18  C22 UNL     1      21.922   1.899  49.330  1.00  0.00     0.103 C 
HETATM   19  C23 UNL     1      20.633   2.010  49.213  1.00  0.00     0.122 C 
HETATM   20  N3  UNL     1      19.915   2.040  50.456  1.00  0.00    -0.363 N 
HETATM   21  H25 UNL     1      19.818   2.556  51.351  1.00  0.00     0.165 HD
ENDROOT
BRANCH  11  22
HETATM   22  O1  UNL     1      23.816  -0.260  53.087  1.00  0.00    -0.350 OA
BRANCH  22  23
HETATM   23  C12 UNL     1      23.604  -0.917  54.348  1.00  0.00     0.201 C 
BRANCH  23  24
HETATM   24  C13 UNL     1      24.827  -0.945  55.204  1.00  0.00     0.193 C 
BRANCH  24  25
HETATM   25  O2  UNL     1      25.988  -0.797  54.479  1.00  0.00    -0.394 OA
HETATM   26  C14 UNL     1      26.860   0.171  54.902  1.00  0.00     0.201 C 
ENDBRANCH  24  25
ENDBRANCH  23  24
ENDBRANCH  22  23
ENDBRANCH  11  22
BRANCH  12  27
HETATM   27  O3  UNL     1      24.460   2.128  52.879  1.00  0.00    -0.345 OA
BRANCH  27  28
HETATM   28  C16 UNL     1      25.406   1.708  51.907  1.00  0.00     0.202 C 
BRANCH  28  29
HETATM   29  C17 UNL     1      26.694   2.493  51.961  1.00  0.00     0.193 C 
BRANCH  29  30
HETATM   30  O4  UNL     1      27.093   2.792  50.667  1.00  0.00    -0.394 OA
HETATM   31  C18 UNL     1      26.085   3.473  49.974  1.00  0.00     0.201 C 
ENDBRANCH  29  30
ENDBRANCH  28  29
ENDBRANCH  27  28
ENDBRANCH  12  27
TORSDOF 8
ENDMDL
MODEL 6
REMARK VINA RESULT:      -7.1      5.792      8.855
REMARK  8 active torsions:
REMARK  status: ('A' for Active; 'I' for Inactive)
REMARK    1  A    between atoms: C11_11  and  O1_12 
REMARK    2  A    between atoms: O1_12  and  C12_13 
REMARK    3  A    between atoms: C12_13  and  C13_14 
REMARK    4  A    between atoms: C13_14  and  O2_15 
REMARK    5  A    between atoms: C15_17  and  O3_18 
REMARK    6  A    between atoms: O3_18  and  C16_19 
REMARK    7  A    between atoms: C16_19  and  C17_20 
REMARK    8  A    between atoms: C17_20  and  O4_21 
ROOT
HETATM    1  C1  UNL     1      26.606   2.991  50.138  1.00  0.00     0.018 C 
HETATM    2  C2  UNL     1      26.336   4.059  49.600  1.00  0.00    -0.077 C 
HETATM    3  C3  UNL     1      25.993   5.312  48.964  1.00  0.00     0.029 A 
HETATM    4  C4  UNL     1      24.654   5.630  49.025  1.00  0.00     0.021 A 
HETATM    5  C5  UNL     1      24.236   6.803  48.449  1.00  0.00     0.004 A 
HETATM    6  C6  UNL     1      25.235   7.559  47.853  1.00  0.00     0.030 A 
HETATM    7  C7  UNL     1      26.604   7.253  47.780  1.00  0.00     0.043 A 
HETATM    8  C8  UNL     1      27.015   6.056  48.370  1.00  0.00     0.006 A 
HETATM    9  C9  UNL     1      28.413   5.570  48.394  1.00  0.00     0.001 C 
HETATM   10  C10 UNL     1      29.255   6.650  48.419  1.00  0.00     0.083 C 
HETATM   11  C11 UNL     1      30.756   6.770  48.452  1.00  0.00     0.090 C 
HETATM   12  C15 UNL     1      31.053   8.068  48.446  1.00  0.00     0.117 C 
HETATM   13  C19 UNL     1      30.892   9.545  48.424  1.00  0.00     0.043 A 
HETATM   14  C20 UNL     1      31.188  10.837  48.420  1.00  0.00     0.156 A 
HETATM   15  N1  UNL     1      29.662  10.298  48.296  1.00  0.00    -0.239 NA
HETATM   16  C21 UNL     1      29.052  10.068  47.140  1.00  0.00     0.184 C 
HETATM   17  N2  UNL     1      29.803   9.140  46.366  1.00  0.00    -0.245 NA
HETATM   18  C22 UNL     1      29.149   8.408  45.550  1.00  0.00     0.103 C 
HETATM   19  C23 UNL     1      27.862   8.401  45.727  1.00  0.00     0.122 C 
HETATM   20  N3  UNL     1      27.442   8.215  47.087  1.00  0.00    -0.363 N 
HETATM   21  H25 UNL     1      27.510   8.612  48.043  1.00  0.00     0.165 HD
ENDROOT
BRANCH  11  22
HETATM   22  O1  UNL     1      31.992   6.035  48.491  1.00  0.00    -0.350 OA
BRANCH  22  23
HETATM   23  C12 UNL     1      32.051   4.992  47.503  1.00  0.00     0.201 C 
BRANCH  23  24
HETATM   24  C13 UNL     1      33.159   4.021  47.744  1.00  0.00     0.193 C 
BRANCH  24  25
HETATM   25  O2  UNL     1      32.834   2.737  47.369  1.00  0.00    -0.394 OA
HETATM   26  C14 UNL     1      31.794   2.596  46.490  1.00  0.00     0.201 C 
ENDBRANCH  24  25
ENDBRANCH  23  24
ENDBRANCH  22  23
ENDBRANCH  11  22
BRANCH  12  27
HETATM   27  O3  UNL     1      32.396   8.483  48.473  1.00  0.00    -0.345 OA
BRANCH  27  28
HETATM   28  C16 UNL     1      33.042   8.556  47.210  1.00  0.00     0.202 C 
BRANCH  28  29
HETATM   29  C17 UNL     1      34.499   8.168  47.270  1.00  0.00     0.193 C 
BRANCH  29  30
HETATM   30  O4  UNL     1      34.837   7.890  48.586  1.00  0.00    -0.394 OA
HETATM   31  C18 UNL     1      35.557   6.694  48.680  1.00  0.00     0.201 C 
ENDBRANCH  29  30
ENDBRANCH  28  29
ENDBRANCH  27  28
ENDBRANCH  12  27
TORSDOF 8
ENDMDL
MODEL 7
REMARK VINA RESULT:      -6.9      3.415      6.806
REMARK  8 active torsions:
REMARK  status: ('A' for Active; 'I' for Inactive)
REMARK    1  A    between atoms: C11_11  and  O1_12 
REMARK    2  A    between atoms: O1_12  and  C12_13 
REMARK    3  A    between atoms: C12_13  and  C13_14 
REMARK    4  A    between atoms: C13_14  and  O2_15 
REMARK    5  A    between atoms: C15_17  and  O3_18 
REMARK    6  A    between atoms: O3_18  and  C16_19 
REMARK    7  A    between atoms: C16_19  and  C17_20 
REMARK    8  A    between atoms: C17_20  and  O4_21 
ROOT
HETATM    1  C1  UNL     1      26.468  -0.511  52.592  1.00  0.00     0.018 C 
HETATM    2  C2  UNL     1      26.080   0.517  52.049  1.00  0.00    -0.077 C 
HETATM    3  C3  UNL     1      25.645   1.739  51.409  1.00  0.00     0.029 A 
HETATM    4  C4  UNL     1      26.662   2.469  50.833  1.00  0.00     0.021 A 
HETATM    5  C5  UNL     1      26.343   3.644  50.200  1.00  0.00     0.004 A 
HETATM    6  C6  UNL     1      24.996   3.975  50.211  1.00  0.00     0.030 A 
HETATM    7  C7  UNL     1      23.945   3.247  50.792  1.00  0.00     0.043 A 
HETATM    8  C8  UNL     1      24.285   2.053  51.432  1.00  0.00     0.006 A 
HETATM    9  C9  UNL     1      23.315   1.153  52.097  1.00  0.00     0.001 C 
HETATM   10  C10 UNL     1      22.112   1.244  51.448  1.00  0.00     0.083 C 
HETATM   11  C11 UNL     1      20.783   0.572  51.670  1.00  0.00     0.090 C 
HETATM   12  C15 UNL     1      19.940   1.042  50.753  1.00  0.00     0.117 C 
HETATM   13  C19 UNL     1      19.403   1.822  49.607  1.00  0.00     0.043 A 
HETATM   14  C20 UNL     1      18.565   2.289  48.694  1.00  0.00     0.156 A 
HETATM   15  N1  UNL     1      20.082   2.846  48.841  1.00  0.00    -0.239 NA
HETATM   16  C21 UNL     1      20.416   3.892  49.586  1.00  0.00     0.184 C 
HETATM   17  N2  UNL     1      19.998   3.688  50.931  1.00  0.00    -0.245 NA
HETATM   18  C22 UNL     1      20.682   4.266  51.840  1.00  0.00     0.103 C 
HETATM   19  C23 UNL     1      21.831   4.733  51.452  1.00  0.00     0.122 C 
HETATM   20  N3  UNL     1      22.618   3.823  50.670  1.00  0.00    -0.363 N 
HETATM   21  H25 UNL     1      22.621   3.258  49.799  1.00  0.00     0.165 HD
ENDROOT
BRANCH  11  22
HETATM   22  O1  UNL     1      20.069  -0.379  52.479  1.00  0.00    -0.350 OA
BRANCH  22  23
HETATM   23  C12 UNL     1      20.529  -0.409  53.841  1.00  0.00     0.201 C 
BRANCH  23  24
HETATM   24  C13 UNL     1      21.133  -1.720  54.223  1.00  0.00     0.193 C 
BRANCH  24  25
HETATM   25  O2  UNL     1      21.933  -1.632  55.341  1.00  0.00    -0.394 OA
HETATM   26  C14 UNL     1      23.203  -1.155  55.153  1.00  0.00     0.201 C 
ENDBRANCH  24  25
ENDBRANCH  23  24
ENDBRANCH  22  23
ENDBRANCH  11  22
BRANCH  12  27
HETATM   27  O3  UNL     1      18.610   0.586  50.719  1.00  0.00    -0.345 OA
BRANCH  27  28
HETATM   28  C16 UNL     1      17.719   1.222  51.623  1.00  0.00     0.202 C 
BRANCH  28  29
HETATM   29  C17 UNL     1      16.467   0.420  51.879  1.00  0.00     0.193 C 
BRANCH  29  30
HETATM   30  O4  UNL     1      15.509   1.249  52.443  1.00  0.00    -0.394 OA
HETATM   31  C18 UNL     1      14.360   0.529  52.790  1.00  0.00     0.201 C 
ENDBRANCH  29  30
ENDBRANCH  28  29
ENDBRANCH  27  28
ENDBRANCH  12  27
TORSDOF 8
ENDMDL
MODEL 8
REMARK VINA RESULT:      -6.7      3.398      6.132
REMARK  8 active torsions:
REMARK  status: ('A' for Active; 'I' for Inactive)
REMARK    1  A    between atoms: C11_11  and  O1_12 
REMARK    2  A    between atoms: O1_12  and  C12_13 
REMARK    3  A    between atoms: C12_13  and  C13_14 
REMARK    4  A    between atoms: C13_14  and  O2_15 
REMARK    5  A    between atoms: C15_17  and  O3_18 
REMARK    6  A    between atoms: O3_18  and  C16_19 
REMARK    7  A    between atoms: C16_19  and  C17_20 
REMARK    8  A    between atoms: C17_20  and  O4_21 
ROOT
HETATM    1  C1  UNL     1      21.731  -1.563  54.576  1.00  0.00     0.018 C 
HETATM    2  C2  UNL     1      22.585  -0.920  53.975  1.00  0.00    -0.077 C 
HETATM    3  C3  UNL     1      23.609  -0.172  53.281  1.00  0.00     0.029 A 
HETATM    4  C4  UNL     1      24.876  -0.696  53.409  1.00  0.00     0.021 A 
HETATM    5  C5  UNL     1      25.914  -0.052  52.782  1.00  0.00     0.004 A 
HETATM    6  C6  UNL     1      25.560   1.084  52.069  1.00  0.00     0.030 A 
HETATM    7  C7  UNL     1      24.276   1.634  51.926  1.00  0.00     0.043 A 
HETATM    8  C8  UNL     1      23.231   0.968  52.570  1.00  0.00     0.006 A 
HETATM    9  C9  UNL     1      21.814   1.397  52.532  1.00  0.00     0.001 C 
HETATM   10  C10 UNL     1      21.574   2.018  51.334  1.00  0.00     0.083 C 
HETATM   11  C11 UNL     1      20.339   2.645  50.743  1.00  0.00     0.090 C 
HETATM   12  C15 UNL     1      20.669   3.124  49.545  1.00  0.00     0.117 C 
HETATM   13  C19 UNL     1      21.473   3.474  48.345  1.00  0.00     0.043 A 
HETATM   14  C20 UNL     1      21.802   3.949  47.153  1.00  0.00     0.156 A 
HETATM   15  N1  UNL     1      22.894   3.278  48.147  1.00  0.00    -0.239 NA
HETATM   16  C21 UNL     1      23.622   3.966  49.018  1.00  0.00     0.184 C 
HETATM   17  N2  UNL     1      22.773   4.700  49.893  1.00  0.00    -0.245 NA
HETATM   18  C22 UNL     1      23.222   4.940  51.063  1.00  0.00     0.103 C 
HETATM   19  C23 UNL     1      24.269   4.250  51.404  1.00  0.00     0.122 C 
HETATM   20  N3  UNL     1      24.179   2.843  51.129  1.00  0.00    -0.363 N 
HETATM   21  H25 UNL     1      24.041   2.148  50.371  1.00  0.00     0.165 HD
ENDROOT
BRANCH  11  22
HETATM   22  O1  UNL     1      18.945   2.926  50.962  1.00  0.00    -0.350 OA
BRANCH  22  23
HETATM   23  C12 UNL     1      18.245   1.829  51.574  1.00  0.00     0.201 C 
BRANCH  23  24
HETATM   24  C13 UNL     1      18.249   0.594  50.736  1.00  0.00     0.193 C 
BRANCH  24  25
HETATM   25  O2  UNL     1      18.060  -0.552  51.475  1.00  0.00    -0.394 OA
HETATM   26  C14 UNL     1      18.624  -0.581  52.723  1.00  0.00     0.201 C 
ENDBRANCH  24  25
ENDBRANCH  23  24
ENDBRANCH  22  23
ENDBRANCH  11  22
BRANCH  12  27
HETATM   27  O3  UNL     1      19.702   3.770  48.754  1.00  0.00    -0.345 OA
BRANCH  27  28
HETATM   28  C16 UNL     1      18.912   2.923  47.934  1.00  0.00     0.202 C 
BRANCH  28  29
HETATM   29  C17 UNL     1      17.530   3.471  47.679  1.00  0.00     0.193 C 
BRANCH  29  30
HETATM   30  O4  UNL     1      16.629   2.827  48.514  1.00  0.00    -0.394 OA
HETATM   31  C18 UNL     1      15.907   3.747  49.281  1.00  0.00     0.201 C 
ENDBRANCH  29  30
ENDBRANCH  28  29
ENDBRANCH  27  28
ENDBRANCH  12  27
TORSDOF 8
ENDMDL
MODEL 9
REMARK VINA RESULT:      -6.2      4.575      6.977
REMARK  8 active torsions:
REMARK  status: ('A' for Active; 'I' for Inactive)
REMARK    1  A    between atoms: C11_11  and  O1_12 
REMARK    2  A    between atoms: O1_12  and  C12_13 
REMARK    3  A    between atoms: C12_13  and  C13_14 
REMARK    4  A    between atoms: C13_14  and  O2_15 
REMARK    5  A    between atoms: C15_17  and  O3_18 
REMARK    6  A    between atoms: O3_18  and  C16_19 
REMARK    7  A    between atoms: C16_19  and  C17_20 
REMARK    8  A    between atoms: C17_20  and  O4_21 
ROOT
HETATM    1  C1  UNL     1      26.439   2.146  50.838  1.00  0.00     0.018 C 
HETATM    2  C2  UNL     1      25.733   3.145  50.753  1.00  0.00    -0.077 C 
HETATM    3  C3  UNL     1      24.882   4.311  50.661  1.00  0.00     0.029 A 
HETATM    4  C4  UNL     1      23.759   4.255  51.458  1.00  0.00     0.021 A 
HETATM    5  C5  UNL     1      22.893   5.319  51.439  1.00  0.00     0.004 A 
HETATM    6  C6  UNL     1      23.253   6.360  50.596  1.00  0.00     0.030 A 
HETATM    7  C7  UNL     1      24.391   6.436  49.775  1.00  0.00     0.043 A 
HETATM    8  C8  UNL     1      25.264   5.346  49.806  1.00  0.00     0.006 A 
HETATM    9  C9  UNL     1      26.511   5.248  49.015  1.00  0.00     0.001 C 
HETATM   10  C10 UNL     1      27.020   6.508  48.838  1.00  0.00     0.083 C 
HETATM   11  C11 UNL     1      28.249   7.018  48.130  1.00  0.00     0.090 C 
HETATM   12  C15 UNL     1      28.256   8.344  48.251  1.00  0.00     0.117 C 
HETATM   13  C19 UNL     1      27.847   9.722  48.628  1.00  0.00     0.043 A 
HETATM   14  C20 UNL     1      27.855  11.041  48.750  1.00  0.00     0.156 A 
HETATM   15  N1  UNL     1      26.633  10.129  49.304  1.00  0.00    -0.239 NA
HETATM   16  C21 UNL     1      25.546   9.843  48.599  1.00  0.00     0.184 C 
HETATM   17  N2  UNL     1      25.909   9.215  47.374  1.00  0.00    -0.245 NA
HETATM   18  C22 UNL     1      25.061   8.407  46.869  1.00  0.00     0.103 C 
HETATM   19  C23 UNL     1      24.102   8.044  47.667  1.00  0.00     0.122 C 
HETATM   20  N3  UNL     1      24.529   7.640  48.977  1.00  0.00    -0.363 N 
HETATM   21  H25 UNL     1      25.034   7.960  49.825  1.00  0.00     0.165 HD
ENDROOT
BRANCH  11  22
HETATM   22  O1  UNL     1      29.415   6.637  47.380  1.00  0.00    -0.350 OA
BRANCH  22  23
HETATM   23  C12 UNL     1      30.048   5.454  47.898  1.00  0.00     0.201 C 
BRANCH  23  24
HETATM   24  C13 UNL     1      31.513   5.404  47.614  1.00  0.00     0.193 C 
BRANCH  24  25
HETATM   25  O2  UNL     1      32.273   5.264  48.754  1.00  0.00    -0.394 OA
HETATM   26  C14 UNL     1      31.890   6.000  49.844  1.00  0.00     0.201 C 
ENDBRANCH  24  25
ENDBRANCH  23  24
ENDBRANCH  22  23
ENDBRANCH  11  22
BRANCH  12  27
HETATM   27  O3  UNL     1      29.298   9.097  47.681  1.00  0.00    -0.345 OA
BRANCH  27  28
HETATM   28  C16 UNL     1      30.476   9.207  48.465  1.00  0.00     0.202 C 
BRANCH  28  29
HETATM   29  C17 UNL     1      31.526  10.087  47.831  1.00  0.00     0.193 C 
BRANCH  29  30
HETATM   30  O4  UNL     1      32.267   9.329  46.936  1.00  0.00    -0.394 OA
HETATM   31  C18 UNL     1      33.320   8.674  47.583  1.00  0.00     0.201 C 
ENDBRANCH  29  30
ENDBRANCH  28  29
ENDBRANCH  27  28
ENDBRANCH  12  27
TORSDOF 8
ENDMDL
