MODEL 1
REMARK VINA RESULT:      -7.9      0.000      0.000
REMARK  1 active torsions:
REMARK  status: ('A' for Active; 'I' for Inactive)
REMARK    1  A    between atoms: O1_1  and  N1_2 
ROOT
HETATM    1  N1  UNL     1      20.103   4.016  51.575  1.00  0.00    -0.141 N 
HETATM    2  C1  UNL     1      21.015   5.004  50.975  1.00  0.00     0.306 C 
HETATM    3  N2  UNL     1      22.092   4.306  50.246  1.00  0.00    -0.345 N 
HETATM    4  C2  UNL     1      21.462   3.495  49.212  1.00  0.00     0.090 C 
HETATM    5  C3  UNL     1      21.245   2.202  48.905  1.00  0.00     0.019 C 
HETATM    6  C4  UNL     1      21.746   1.134  49.820  1.00  0.00     0.030 C 
HETATM    7  C5  UNL     1      22.375   1.162  50.977  1.00  0.00     0.062 C 
HETATM    8  C6  UNL     1      23.065   1.262  52.247  1.00  0.00     0.089 C 
HETATM    9  C7  UNL     1      24.430   0.674  52.326  1.00  0.00    -0.008 C 
HETATM   10  C8  UNL     1      24.987   1.113  53.441  1.00  0.00    -0.026 C 
HETATM   11  C9  UNL     1      25.049   2.421  53.474  1.00  0.00     0.064 C 
HETATM   12  C10 UNL     1      24.769   3.237  52.266  1.00  0.00     0.146 C 
HETATM   13  N3  UNL     1      23.994   4.187  51.770  1.00  0.00    -0.243 NA
HETATM   14  C11 UNL     1      23.532   4.304  50.400  1.00  0.00     0.233 C 
HETATM   15  C12 UNL     1      24.275   5.438  49.802  1.00  0.00     0.149 C 
HETATM   16 CL1  UNL     1      24.442   6.858  50.843  1.00  0.00    -0.117 Cl
HETATM   17  C13 UNL     1      25.601   4.979  49.268  1.00  0.00    -0.001 C 
HETATM   18  C14 UNL     1      26.408   3.913  49.411  1.00  0.00     0.017 C 
HETATM   19  C15 UNL     1      26.488   2.841  50.433  1.00  0.00     0.119 C 
HETATM   20  N4  UNL     1      25.895   2.566  51.593  1.00  0.00    -0.242 NA
HETATM   21  N5  UNL     1      21.765   2.419  51.233  1.00  0.00    -0.135 NA
HETATM   22  N6  UNL     1      20.539   2.698  51.315  1.00  0.00    -0.043 NA
ENDROOT
BRANCH   1  23
HETATM   23  O1  UNL     1      19.151   3.281  52.200  1.00  0.00    -0.268 OA
HETATM   24  H1  UNL     1      18.312   3.319  51.663  1.00  0.00     0.246 HD
ENDBRANCH   1  23
TORSDOF 1
ENDMDL
MODEL 2
REMARK VINA RESULT:      -7.9      3.510      6.064
REMARK  1 active torsions:
REMARK  status: ('A' for Active; 'I' for Inactive)
REMARK    1  A    between atoms: O1_1  and  N1_2 
ROOT
HETATM    1  N1  UNL     1      26.775   0.233  55.163  1.00  0.00    -0.141 N 
HETATM    2  C1  UNL     1      25.437  -0.380  55.215  1.00  0.00     0.306 C 
HETATM    3  N2  UNL     1      24.880  -0.471  53.851  1.00  0.00    -0.345 N 
HETATM    4  C2  UNL     1      25.790  -1.294  53.065  1.00  0.00     0.090 C 
HETATM    5  C3  UNL     1      26.663  -1.181  52.045  1.00  0.00     0.019 C 
HETATM    6  C4  UNL     1      26.885   0.153  51.412  1.00  0.00     0.030 C 
HETATM    7  C5  UNL     1      26.414   1.357  51.660  1.00  0.00     0.062 C 
HETATM    8  C6  UNL     1      25.859   2.656  51.985  1.00  0.00     0.089 C 
HETATM    9  C7  UNL     1      25.048   3.330  50.935  1.00  0.00    -0.008 C 
HETATM   10  C8  UNL     1      24.408   4.333  51.509  1.00  0.00    -0.026 C 
HETATM   11  C9  UNL     1      23.639   3.925  52.489  1.00  0.00     0.064 C 
HETATM   12  C10 UNL     1      23.354   2.483  52.695  1.00  0.00     0.146 C 
HETATM   13  N3  UNL     1      23.449   1.483  53.556  1.00  0.00    -0.243 NA
HETATM   14  C11 UNL     1      23.689   0.088  53.244  1.00  0.00     0.233 C 
HETATM   15  C12 UNL     1      22.412  -0.623  53.488  1.00  0.00     0.149 C 
HETATM   16 CL1  UNL     1      21.554  -0.142  54.957  1.00  0.00    -0.117 Cl
HETATM   17  C13 UNL     1      21.527  -0.552  52.276  1.00  0.00    -0.001 C 
HETATM   18  C14 UNL     1      21.450   0.183  51.153  1.00  0.00     0.017 C 
HETATM   19  C15 UNL     1      22.032   1.491  50.762  1.00  0.00     0.119 C 
HETATM   20  N4  UNL     1      22.744   2.446  51.354  1.00  0.00    -0.242 NA
HETATM   21  N5  UNL     1      26.246   0.969  53.017  1.00  0.00    -0.135 NA
HETATM   22  N6  UNL     1      27.121   0.588  53.840  1.00  0.00    -0.043 NA
ENDROOT
BRANCH   1  23
HETATM   23  O1  UNL     1      28.009   0.767  55.333  1.00  0.00    -0.268 OA
HETATM   24  H1  UNL     1      28.228   1.329  54.538  1.00  0.00     0.246 HD
ENDBRANCH   1  23
TORSDOF 1
ENDMDL
MODEL 3
REMARK VINA RESULT:      -7.1      9.107     10.953
REMARK  1 active torsions:
REMARK  status: ('A' for Active; 'I' for Inactive)
REMARK    1  A    between atoms: O1_1  and  N1_2 
ROOT
HETATM    1  N1  UNL     1      31.874   8.610  49.128  1.00  0.00    -0.141 N 
HETATM    2  C1  UNL     1      32.279   9.101  47.799  1.00  0.00     0.306 C 
HETATM    3  N2  UNL     1      31.856   8.137  46.765  1.00  0.00    -0.345 N 
HETATM    4  C2  UNL     1      30.406   8.019  46.847  1.00  0.00     0.090 C 
HETATM    5  C3  UNL     1      29.462   7.126  47.201  1.00  0.00     0.019 C 
HETATM    6  C4  UNL     1      29.873   5.777  47.692  1.00  0.00     0.030 C 
HETATM    7  C5  UNL     1      31.045   5.218  47.914  1.00  0.00     0.062 C 
HETATM    8  C6  UNL     1      32.364   4.662  48.137  1.00  0.00     0.089 C 
HETATM    9  C7  UNL     1      32.737   3.460  47.342  1.00  0.00    -0.008 C 
HETATM   10  C8  UNL     1      34.041   3.288  47.471  1.00  0.00    -0.026 C 
HETATM   11  C9  UNL     1      34.715   4.334  47.063  1.00  0.00     0.064 C 
HETATM   12  C10 UNL     1      34.056   5.427  46.305  1.00  0.00     0.146 C 
HETATM   13  N3  UNL     1      33.791   6.723  46.304  1.00  0.00    -0.243 NA
HETATM   14  C11 UNL     1      32.598   7.366  45.788  1.00  0.00     0.233 C 
HETATM   15  C12 UNL     1      33.001   8.063  44.545  1.00  0.00     0.149 C 
HETATM   16 CL1  UNL     1      34.545   8.922  44.632  1.00  0.00    -0.117 Cl
HETATM   17  C13 UNL     1      32.949   7.127  43.371  1.00  0.00    -0.001 C 
HETATM   18  C14 UNL     1      32.901   5.799  43.171  1.00  0.00     0.017 C 
HETATM   19  C15 UNL     1      33.210   4.637  44.040  1.00  0.00     0.119 C 
HETATM   20  N4  UNL     1      33.710   4.449  45.259  1.00  0.00    -0.242 NA
HETATM   21  N5  UNL     1      31.574   6.515  48.153  1.00  0.00    -0.135 NA
HETATM   22  N6  UNL     1      31.237   7.352  49.033  1.00  0.00    -0.043 NA
ENDROOT
BRANCH   1  23
HETATM   23  O1  UNL     1      31.590   8.344  50.426  1.00  0.00    -0.268 OA
HETATM   24  H1  UNL     1      30.606   8.428  50.564  1.00  0.00     0.246 HD
ENDBRANCH   1  23
TORSDOF 1
ENDMDL
MODEL 4
REMARK VINA RESULT:      -7.1      2.992      5.328
REMARK  1 active torsions:
REMARK  status: ('A' for Active; 'I' for Inactive)
REMARK    1  A    between atoms: O1_1  and  N1_2 
ROOT
HETATM    1  N1  UNL     1      26.710  -1.017  51.905  1.00  0.00    -0.141 N 
HETATM    2  C1  UNL     1      26.783   0.369  51.410  1.00  0.00     0.306 C 
HETATM    3  N2  UNL     1      25.927   1.237  52.241  1.00  0.00    -0.345 N 
HETATM    4  C2  UNL     1      26.423   1.156  53.609  1.00  0.00     0.090 C 
HETATM    5  C3  UNL     1      26.057   0.673  54.811  1.00  0.00     0.019 C 
HETATM    6  C4  UNL     1      24.751  -0.037  54.952  1.00  0.00     0.030 C 
HETATM    7  C5  UNL     1      23.805  -0.361  54.096  1.00  0.00     0.062 C 
HETATM    8  C6  UNL     1      22.802  -0.689  53.102  1.00  0.00     0.089 C 
HETATM    9  C7  UNL     1      21.446  -0.104  53.289  1.00  0.00    -0.008 C 
HETATM   10  C8  UNL     1      20.781  -0.276  52.160  1.00  0.00    -0.026 C 
HETATM   11  C9  UNL     1      21.387   0.289  51.145  1.00  0.00     0.064 C 
HETATM   12  C10 UNL     1      22.522   1.223  51.348  1.00  0.00     0.146 C 
HETATM   13  N3  UNL     1      23.797   1.438  51.068  1.00  0.00    -0.243 NA
HETATM   14  C11 UNL     1      24.781   2.067  51.927  1.00  0.00     0.233 C 
HETATM   15  C12 UNL     1      25.054   3.402  51.346  1.00  0.00     0.149 C 
HETATM   16 CL1  UNL     1      25.214   3.436  49.585  1.00  0.00    -0.117 Cl
HETATM   17  C13 UNL     1      24.052   4.407  51.835  1.00  0.00    -0.001 C 
HETATM   18  C14 UNL     1      22.844   4.390  52.425  1.00  0.00     0.017 C 
HETATM   19  C15 UNL     1      21.806   3.339  52.564  1.00  0.00     0.119 C 
HETATM   20  N4  UNL     1      21.621   2.099  52.116  1.00  0.00    -0.242 NA
HETATM   21  N5  UNL     1      24.795  -0.392  53.076  1.00  0.00    -0.135 NA
HETATM   22  N6  UNL     1      25.821  -1.120  52.998  1.00  0.00    -0.043 NA
ENDROOT
BRANCH   1  23
HETATM   23  O1  UNL     1      26.785  -2.337  52.200  1.00  0.00    -0.268 OA
HETATM   24  H1  UNL     1      27.675  -2.681  51.909  1.00  0.00     0.246 HD
ENDBRANCH   1  23
TORSDOF 1
ENDMDL
MODEL 5
REMARK VINA RESULT:      -6.9      7.993      9.611
REMARK  1 active torsions:
REMARK  status: ('A' for Active; 'I' for Inactive)
REMARK    1  A    between atoms: O1_1  and  N1_2 
ROOT
HETATM    1  N1  UNL     1      28.561   9.828  49.854  1.00  0.00    -0.141 N 
HETATM    2  C1  UNL     1      29.403  10.638  48.956  1.00  0.00     0.306 C 
HETATM    3  N2  UNL     1      29.623   9.909  47.692  1.00  0.00    -0.345 N 
HETATM    4  C2  UNL     1      28.315   9.672  47.094  1.00  0.00     0.090 C 
HETATM    5  C3  UNL     1      27.472   8.656  46.826  1.00  0.00     0.019 C 
HETATM    6  C4  UNL     1      27.855   7.264  47.207  1.00  0.00     0.030 C 
HETATM    7  C5  UNL     1      28.897   6.754  47.828  1.00  0.00     0.062 C 
HETATM    8  C6  UNL     1      30.071   6.258  48.519  1.00  0.00     0.089 C 
HETATM    9  C7  UNL     1      30.939   5.300  47.780  1.00  0.00    -0.008 C 
HETATM   10  C8  UNL     1      32.074   5.197  48.448  1.00  0.00    -0.026 C 
HETATM   11  C9  UNL     1      32.674   6.355  48.574  1.00  0.00     0.064 C 
HETATM   12  C10 UNL     1      32.226   7.543  47.803  1.00  0.00     0.146 C 
HETATM   13  N3  UNL     1      31.776   8.782  47.909  1.00  0.00    -0.243 NA
HETATM   14  C11 UNL     1      30.824   9.438  47.034  1.00  0.00     0.233 C 
HETATM   15  C12 UNL     1      31.593  10.429  46.246  1.00  0.00     0.149 C 
HETATM   16 CL1  UNL     1      32.790  11.353  47.163  1.00  0.00    -0.117 Cl
HETATM   17  C13 UNL     1      32.198   9.785  45.031  1.00  0.00    -0.001 C 
HETATM   18  C14 UNL     1      32.460   8.538  44.602  1.00  0.00     0.017 C 
HETATM   19  C15 UNL     1      32.560   7.233  45.301  1.00  0.00     0.119 C 
HETATM   20  N4  UNL     1      32.522   6.807  46.562  1.00  0.00    -0.242 NA
HETATM   21  N5  UNL     1      29.053   7.996  48.501  1.00  0.00    -0.135 NA
HETATM   22  N6  UNL     1      28.243   8.584  49.267  1.00  0.00    -0.043 NA
ENDROOT
BRANCH   1  23
HETATM   23  O1  UNL     1      27.804   9.252  50.819  1.00  0.00    -0.268 OA
HETATM   24  H1  UNL     1      27.282   8.504  50.415  1.00  0.00     0.246 HD
ENDBRANCH   1  23
TORSDOF 1
ENDMDL
MODEL 6
REMARK VINA RESULT:      -6.8      2.412      4.566
REMARK  1 active torsions:
REMARK  status: ('A' for Active; 'I' for Inactive)
REMARK    1  A    between atoms: O1_1  and  N1_2 
ROOT
HETATM    1  N1  UNL     1      26.429   0.909  51.579  1.00  0.00    -0.141 N 
HETATM    2  C1  UNL     1      26.742   2.295  51.191  1.00  0.00     0.306 C 
HETATM    3  N2  UNL     1      25.554   3.146  51.391  1.00  0.00    -0.345 N 
HETATM    4  C2  UNL     1      25.202   3.077  52.803  1.00  0.00     0.090 C 
HETATM    5  C3  UNL     1      24.235   2.588  53.603  1.00  0.00     0.019 C 
HETATM    6  C4  UNL     1      23.085   1.851  53.000  1.00  0.00     0.030 C 
HETATM    7  C5  UNL     1      22.785   1.505  51.766  1.00  0.00     0.062 C 
HETATM    8  C6  UNL     1      22.514   1.153  50.386  1.00  0.00     0.089 C 
HETATM    9  C7  UNL     1      21.275   1.708  49.775  1.00  0.00    -0.008 C 
HETATM   10  C8  UNL     1      21.357   1.520  48.470  1.00  0.00    -0.026 C 
HETATM   11  C9  UNL     1      22.417   2.096  47.959  1.00  0.00     0.064 C 
HETATM   12  C10 UNL     1      23.229   3.055  48.749  1.00  0.00     0.146 C 
HETATM   13  N3  UNL     1      24.439   3.298  49.226  1.00  0.00    -0.243 NA
HETATM   14  C11 UNL     1      24.764   3.949  50.479  1.00  0.00     0.233 C 
HETATM   15  C12 UNL     1      25.292   5.289  50.132  1.00  0.00     0.149 C 
HETATM   16 CL1  UNL     1      26.407   5.324  48.760  1.00  0.00    -0.117 Cl
HETATM   17  C13 UNL     1      24.170   6.273  49.964  1.00  0.00    -0.001 C 
HETATM   18  C14 UNL     1      22.839   6.230  49.779  1.00  0.00     0.017 C 
HETATM   19  C15 UNL     1      21.919   5.157  49.328  1.00  0.00     0.119 C 
HETATM   20  N4  UNL     1      22.037   3.913  48.870  1.00  0.00    -0.242 NA
HETATM   21  N5  UNL     1      24.176   1.493  51.473  1.00  0.00    -0.135 NA
HETATM   22  N6  UNL     1      25.083   0.788  51.991  1.00  0.00    -0.043 NA
ENDROOT
BRANCH   1  23
HETATM   23  O1  UNL     1      26.349  -0.409  51.884  1.00  0.00    -0.268 OA
HETATM   24  H1  UNL     1      25.606  -0.817  51.358  1.00  0.00     0.246 HD
ENDBRANCH   1  23
TORSDOF 1
ENDMDL
MODEL 7
REMARK VINA RESULT:      -6.7      2.498      5.322
REMARK  1 active torsions:
REMARK  status: ('A' for Active; 'I' for Inactive)
REMARK    1  A    between atoms: O1_1  and  N1_2 
ROOT
HETATM    1  N1  UNL     1      23.935   5.956  52.286  1.00  0.00    -0.141 N 
HETATM    2  C1  UNL     1      23.249   4.753  52.789  1.00  0.00     0.306 C 
HETATM    3  N2  UNL     1      23.326   3.680  51.778  1.00  0.00    -0.345 N 
HETATM    4  C2  UNL     1      24.737   3.404  51.543  1.00  0.00     0.090 C 
HETATM    5  C3  UNL     1      25.669   3.544  50.581  1.00  0.00     0.019 C 
HETATM    6  C4  UNL     1      25.293   4.169  49.278  1.00  0.00     0.030 C 
HETATM    7  C5  UNL     1      24.175   4.693  48.820  1.00  0.00     0.062 C 
HETATM    8  C6  UNL     1      22.915   5.255  48.377  1.00  0.00     0.089 C 
HETATM    9  C7  UNL     1      22.265   4.620  47.198  1.00  0.00    -0.008 C 
HETATM   10  C8  UNL     1      21.026   5.074  47.135  1.00  0.00    -0.026 C 
HETATM   11  C9  UNL     1      20.352   4.809  48.228  1.00  0.00     0.064 C 
HETATM   12  C10 UNL     1      20.882   3.874  49.252  1.00  0.00     0.146 C 
HETATM   13  N3  UNL     1      21.236   3.762  50.522  1.00  0.00    -0.243 NA
HETATM   14  C11 UNL     1      22.307   2.945  51.056  1.00  0.00     0.233 C 
HETATM   15  C12 UNL     1      21.660   1.817  51.766  1.00  0.00     0.149 C 
HETATM   16 CL1  UNL     1      20.257   2.254  52.750  1.00  0.00    -0.117 Cl
HETATM   17  C13 UNL     1      21.347   0.700  50.812  1.00  0.00    -0.001 C 
HETATM   18  C14 UNL     1      21.242   0.540  49.481  1.00  0.00     0.017 C 
HETATM   19  C15 UNL     1      21.073   1.499  48.361  1.00  0.00     0.119 C 
HETATM   20  N4  UNL     1      20.880   2.810  48.233  1.00  0.00    -0.242 NA
HETATM   21  N5  UNL     1      23.822   5.010  50.159  1.00  0.00    -0.135 NA
HETATM   22  N6  UNL     1      24.430   5.750  50.979  1.00  0.00    -0.043 NA
ENDROOT
BRANCH   1  23
HETATM   23  O1  UNL     1      24.513   7.151  52.017  1.00  0.00    -0.268 OA
HETATM   24  H1  UNL     1      25.407   6.991  51.604  1.00  0.00     0.246 HD
ENDBRANCH   1  23
TORSDOF 1
ENDMDL
MODEL 8
REMARK VINA RESULT:      -6.7      2.759      4.871
REMARK  1 active torsions:
REMARK  status: ('A' for Active; 'I' for Inactive)
REMARK    1  A    between atoms: O1_1  and  N1_2 
ROOT
HETATM    1  N1  UNL     1      26.090   4.408  50.072  1.00  0.00    -0.141 N 
HETATM    2  C1  UNL     1      25.354   5.418  49.293  1.00  0.00     0.306 C 
HETATM    3  N2  UNL     1      23.947   5.457  49.737  1.00  0.00    -0.345 N 
HETATM    4  C2  UNL     1      23.948   5.802  51.152  1.00  0.00     0.090 C 
HETATM    5  C3  UNL     1      23.675   5.247  52.349  1.00  0.00     0.019 C 
HETATM    6  C4  UNL     1      23.217   3.827  52.415  1.00  0.00     0.030 C 
HETATM    7  C5  UNL     1      23.034   2.897  51.501  1.00  0.00     0.062 C 
HETATM    8  C6  UNL     1      22.854   1.919  50.447  1.00  0.00     0.089 C 
HETATM    9  C7  UNL     1      21.481   1.378  50.250  1.00  0.00    -0.008 C 
HETATM   10  C8  UNL     1      21.467   0.743  49.092  1.00  0.00    -0.026 C 
HETATM   11  C9  UNL     1      21.795   1.532  48.098  1.00  0.00     0.064 C 
HETATM   12  C10 UNL     1      21.886   3.003  48.280  1.00  0.00     0.146 C 
HETATM   13  N3  UNL     1      22.694   4.046  48.189  1.00  0.00    -0.243 NA
HETATM   14  C11 UNL     1      22.698   5.219  49.043  1.00  0.00     0.233 C 
HETATM   15  C12 UNL     1      22.157   6.332  48.229  1.00  0.00     0.149 C 
HETATM   16 CL1  UNL     1      22.750   6.402  46.564  1.00  0.00    -0.117 Cl
HETATM   17  C13 UNL     1      20.656   6.351  48.288  1.00  0.00    -0.001 C 
HETATM   18  C14 UNL     1      19.672   5.505  48.641  1.00  0.00     0.017 C 
HETATM   19  C15 UNL     1      19.627   4.034  48.831  1.00  0.00     0.119 C 
HETATM   20  N4  UNL     1      20.461   3.012  48.653  1.00  0.00    -0.242 NA
HETATM   21  N5  UNL     1      24.025   3.537  50.709  1.00  0.00    -0.135 NA
HETATM   22  N6  UNL     1      25.237   3.747  50.983  1.00  0.00    -0.043 NA
ENDROOT
BRANCH   1  23
HETATM   23  O1  UNL     1      26.943   3.541  50.671  1.00  0.00    -0.268 OA
HETATM   24  H1  UNL     1      27.878   3.797  50.438  1.00  0.00     0.246 HD
ENDBRANCH   1  23
TORSDOF 1
ENDMDL
MODEL 9
REMARK VINA RESULT:      -6.7      8.995     11.715
REMARK  1 active torsions:
REMARK  status: ('A' for Active; 'I' for Inactive)
REMARK    1  A    between atoms: O1_1  and  N1_2 
ROOT
HETATM    1  N1  UNL     1      34.115   7.467  44.880  1.00  0.00    -0.141 N 
HETATM    2  C1  UNL     1      33.793   8.890  45.081  1.00  0.00     0.306 C 
HETATM    3  N2  UNL     1      33.397   9.114  46.485  1.00  0.00    -0.345 N 
HETATM    4  C2  UNL     1      34.522   8.721  47.322  1.00  0.00     0.090 C 
HETATM    5  C3  UNL     1      34.865   7.765  48.208  1.00  0.00     0.019 C 
HETATM    6  C4  UNL     1      33.885   6.689  48.544  1.00  0.00     0.030 C 
HETATM    7  C5  UNL     1      32.673   6.410  48.115  1.00  0.00     0.062 C 
HETATM    8  C6  UNL     1      31.341   6.156  47.600  1.00  0.00     0.089 C 
HETATM    9  C7  UNL     1      30.218   6.198  48.575  1.00  0.00    -0.008 C 
HETATM   10  C8  UNL     1      29.093   6.233  47.883  1.00  0.00    -0.026 C 
HETATM   11  C9  UNL     1      29.043   7.269  47.082  1.00  0.00     0.064 C 
HETATM   12  C10 UNL     1      30.029   8.374  47.191  1.00  0.00     0.146 C 
HETATM   13  N3  UNL     1      30.958   9.049  46.535  1.00  0.00    -0.243 NA
HETATM   14  C11 UNL     1      32.176   9.610  47.087  1.00  0.00     0.233 C 
HETATM   15  C12 UNL     1      31.987  11.079  47.115  1.00  0.00     0.149 C 
HETATM   16 CL1  UNL     1      31.228  11.766  45.673  1.00  0.00    -0.117 Cl
HETATM   17  C13 UNL     1      31.278  11.499  48.371  1.00  0.00    -0.001 C 
HETATM   18  C14 UNL     1      30.544  10.912  49.332  1.00  0.00     0.017 C 
HETATM   19  C15 UNL     1      29.826   9.615  49.401  1.00  0.00     0.119 C 
HETATM   20  N4  UNL     1      29.560   8.613  48.567  1.00  0.00    -0.242 NA
HETATM   21  N5  UNL     1      33.007   7.034  46.884  1.00  0.00    -0.135 NA
HETATM   22  N6  UNL     1      33.917   6.728  46.067  1.00  0.00    -0.043 NA
ENDROOT
BRANCH   1  23
HETATM   23  O1  UNL     1      34.457   6.216  44.488  1.00  0.00    -0.268 OA
HETATM   24  H1  UNL     1      33.660   5.779  44.075  1.00  0.00     0.246 HD
ENDBRANCH   1  23
TORSDOF 1
ENDMDL
