MODEL 1
REMARK VINA RESULT:      -7.4      0.000      0.000
REMARK  5 active torsions:
REMARK  status: ('A' for Active; 'I' for Inactive)
REMARK    1  A    between atoms: C6_7  and  S1_8 
REMARK    2  A    between atoms: S1_8  and  N1_10 
REMARK       I    between atoms: N1_10  and  C7_11 
REMARK    3  A    between atoms: C7_11  and  C8_13 
REMARK    4  A    between atoms: C11_16  and  O4_17 
REMARK    5  A    between atoms: O4_17  and  C12_18 
ROOT
HETATM    1  N1  UNL     1      26.448   3.461  50.888  1.00  0.00    -0.268 N 
HETATM    2  C7  UNL     1      26.055   3.936  49.609  1.00  0.00     0.263 C 
HETATM    3  O3  UNL     1      25.066   3.337  49.143  1.00  0.00    -0.267 OA
HETATM    4  H8  UNL     1      27.243   3.812  51.466  1.00  0.00     0.180 HD
ENDROOT
BRANCH   1   5
HETATM    5  S1  UNL     1      25.931   2.260  52.008  1.00  0.00     0.151 S 
HETATM    6  O2  UNL     1      24.715   2.622  52.813  1.00  0.00    -0.230 OA
BRANCH   5   7
HETATM    7  C6  UNL     1      27.240   1.555  52.955  1.00  0.00     0.060 A 
HETATM    8  C2  UNL     1      27.332   0.101  52.649  1.00  0.00     0.051 A 
HETATM    9  C1  UNL     1      26.052  -0.635  52.865  1.00  0.00     0.020 C 
HETATM   10  C3  UNL     1      28.460  -0.417  53.489  1.00  0.00     0.007 A 
HETATM   11  C4  UNL     1      29.209   0.309  54.330  1.00  0.00     0.138 A 
HETATM   12  O1  UNL     1      29.030   1.670  54.536  1.00  0.00    -0.334 OA
HETATM   13  C5  UNL     1      28.005   2.263  53.806  1.00  0.00     0.160 A 
ENDBRANCH   5   7
ENDBRANCH   1   5
BRANCH   2  14
HETATM   14  C8  UNL     1      26.829   5.024  49.024  1.00  0.00     0.033 A 
HETATM   15  C9  UNL     1      28.112   5.008  48.520  1.00  0.00     0.020 A 
HETATM   16  C10 UNL     1      28.651   6.170  48.010  1.00  0.00     0.038 A 
HETATM   17  C11 UNL     1      27.939   7.350  47.990  1.00  0.00     0.078 A 
HETATM   18  C13 UNL     1      26.640   7.387  48.495  1.00  0.00     0.038 A 
HETATM   19  C14 UNL     1      26.109   6.217  49.005  1.00  0.00     0.020 A 
BRANCH  17  20
HETATM   20  O4  UNL     1      28.594   8.450  47.451  1.00  0.00    -0.286 OA
BRANCH  20  21
HETATM   21  C12 UNL     1      29.538   9.160  48.185  1.00  0.00     0.403 C 
HETATM   22  O5  UNL     1      30.065   9.589  49.244  1.00  0.00    -0.276 OA
ENDBRANCH  20  21
ENDBRANCH  17  20
ENDBRANCH   2  14
TORSDOF 5
ENDMDL
MODEL 2
REMARK VINA RESULT:      -7.0      5.675      9.109
REMARK  5 active torsions:
REMARK  status: ('A' for Active; 'I' for Inactive)
REMARK    1  A    between atoms: C6_7  and  S1_8 
REMARK    2  A    between atoms: S1_8  and  N1_10 
REMARK       I    between atoms: N1_10  and  C7_11 
REMARK    3  A    between atoms: C7_11  and  C8_13 
REMARK    4  A    between atoms: C11_16  and  O4_17 
REMARK    5  A    between atoms: O4_17  and  C12_18 
ROOT
HETATM    1  N1  UNL     1      24.758   0.544  53.277  1.00  0.00    -0.268 N 
HETATM    2  C7  UNL     1      23.924  -0.300  54.055  1.00  0.00     0.263 C 
HETATM    3  O3  UNL     1      24.547  -0.958  54.910  1.00  0.00    -0.267 OA
HETATM    4  H8  UNL     1      24.457   1.182  52.508  1.00  0.00     0.180 HD
ENDROOT
BRANCH   1   5
HETATM    5  S1  UNL     1      26.435   0.927  53.177  1.00  0.00     0.151 S 
HETATM    6  O2  UNL     1      26.792   1.950  52.136  1.00  0.00    -0.230 OA
BRANCH   5   7
HETATM    7  C6  UNL     1      27.493  -0.482  53.197  1.00  0.00     0.060 A 
HETATM    8  C2  UNL     1      28.728  -0.150  53.960  1.00  0.00     0.051 A 
HETATM    9  C1  UNL     1      29.441   1.053  53.442  1.00  0.00     0.020 C 
HETATM   10  C3  UNL     1      29.566  -1.393  53.928  1.00  0.00     0.007 A 
HETATM   11  C4  UNL     1      29.238  -2.546  53.328  1.00  0.00     0.138 A 
HETATM   12  O1  UNL     1      28.048  -2.740  52.640  1.00  0.00    -0.334 OA
HETATM   13  C5  UNL     1      27.186  -1.649  52.602  1.00  0.00     0.160 A 
ENDBRANCH   5   7
ENDBRANCH   1   5
BRANCH   2  14
HETATM   14  C8  UNL     1      22.495  -0.290  53.766  1.00  0.00     0.033 A 
HETATM   15  C9  UNL     1      21.751   0.644  53.077  1.00  0.00     0.020 A 
HETATM   16  C10 UNL     1      20.395   0.447  52.922  1.00  0.00     0.038 A 
HETATM   17  C11 UNL     1      19.762  -0.664  53.439  1.00  0.00     0.078 A 
HETATM   18  C13 UNL     1      20.496  -1.620  54.137  1.00  0.00     0.038 A 
HETATM   19  C14 UNL     1      21.855  -1.412  54.288  1.00  0.00     0.020 A 
BRANCH  17  20
HETATM   20  O4  UNL     1      18.394  -0.746  53.215  1.00  0.00    -0.286 OA
BRANCH  20  21
HETATM   21  C12 UNL     1      17.699  -1.934  53.417  1.00  0.00     0.403 C 
HETATM   22  O5  UNL     1      16.825  -2.799  53.148  1.00  0.00    -0.276 OA
ENDBRANCH  20  21
ENDBRANCH  17  20
ENDBRANCH   2  14
TORSDOF 5
ENDMDL
MODEL 3
REMARK VINA RESULT:      -6.9      1.669      1.947
REMARK  5 active torsions:
REMARK  status: ('A' for Active; 'I' for Inactive)
REMARK    1  A    between atoms: C6_7  and  S1_8 
REMARK    2  A    between atoms: S1_8  and  N1_10 
REMARK       I    between atoms: N1_10  and  C7_11 
REMARK    3  A    between atoms: C7_11  and  C8_13 
REMARK    4  A    between atoms: C11_16  and  O4_17 
REMARK    5  A    between atoms: O4_17  and  C12_18 
ROOT
HETATM    1  N1  UNL     1      25.297   3.957  50.874  1.00  0.00    -0.268 N 
HETATM    2  C7  UNL     1      25.187   4.960  49.875  1.00  0.00     0.263 C 
HETATM    3  O3  UNL     1      24.022   5.371  49.716  1.00  0.00    -0.267 OA
HETATM    4  H8  UNL     1      26.170   3.471  51.176  1.00  0.00     0.180 HD
ENDROOT
BRANCH   1   5
HETATM    5  S1  UNL     1      24.248   3.127  51.958  1.00  0.00     0.151 S 
HETATM    6  O2  UNL     1      23.268   4.000  52.689  1.00  0.00    -0.230 OA
BRANCH   5   7
HETATM    7  C6  UNL     1      25.065   1.946  52.980  1.00  0.00     0.060 A 
HETATM    8  C2  UNL     1      24.499   0.595  52.708  1.00  0.00     0.051 A 
HETATM    9  C1  UNL     1      23.019   0.525  52.878  1.00  0.00     0.020 C 
HETATM   10  C3  UNL     1      25.243  -0.341  53.611  1.00  0.00     0.007 A 
HETATM   11  C4  UNL     1      26.211   0.001  54.472  1.00  0.00     0.138 A 
HETATM   12  O1  UNL     1      26.659   1.304  54.641  1.00  0.00    -0.334 OA
HETATM   13  C5  UNL     1      26.038   2.266  53.852  1.00  0.00     0.160 A 
ENDBRANCH   5   7
ENDBRANCH   1   5
BRANCH   2  14
HETATM   14  C8  UNL     1      26.407   5.365  49.188  1.00  0.00     0.033 A 
HETATM   15  C9  UNL     1      27.531   4.622  48.893  1.00  0.00     0.020 A 
HETATM   16  C10 UNL     1      28.580   5.219  48.227  1.00  0.00     0.038 A 
HETATM   17  C11 UNL     1      28.534   6.544  47.846  1.00  0.00     0.078 A 
HETATM   18  C13 UNL     1      27.408   7.312  48.133  1.00  0.00     0.038 A 
HETATM   19  C14 UNL     1      26.362   6.704  48.802  1.00  0.00     0.020 A 
BRANCH  17  20
HETATM   20  O4  UNL     1      29.654   7.027  47.181  1.00  0.00    -0.286 OA
BRANCH  20  21
HETATM   21  C12 UNL     1      30.190   8.275  47.483  1.00  0.00     0.403 C 
HETATM   22  O5  UNL     1      30.401   9.273  48.220  1.00  0.00    -0.276 OA
ENDBRANCH  20  21
ENDBRANCH  17  20
ENDBRANCH   2  14
TORSDOF 5
ENDMDL
MODEL 4
REMARK VINA RESULT:      -6.8      2.374      7.544
REMARK  5 active torsions:
REMARK  status: ('A' for Active; 'I' for Inactive)
REMARK    1  A    between atoms: C6_7  and  S1_8 
REMARK    2  A    between atoms: S1_8  and  N1_10 
REMARK       I    between atoms: N1_10  and  C7_11 
REMARK    3  A    between atoms: C7_11  and  C8_13 
REMARK    4  A    between atoms: C11_16  and  O4_17 
REMARK    5  A    between atoms: O4_17  and  C12_18 
ROOT
HETATM    1  N1  UNL     1      24.378   2.926  50.943  1.00  0.00    -0.268 N 
HETATM    2  C7  UNL     1      23.876   1.855  51.727  1.00  0.00     0.263 C 
HETATM    3  O3  UNL     1      22.632   1.828  51.787  1.00  0.00    -0.267 OA
HETATM    4  H8  UNL     1      25.381   3.144  50.753  1.00  0.00     0.180 HD
ENDROOT
BRANCH   1   5
HETATM    5  S1  UNL     1      23.737   4.234  50.025  1.00  0.00     0.151 S 
HETATM    6  O2  UNL     1      23.116   3.846  48.712  1.00  0.00    -0.230 OA
BRANCH   5   7
HETATM    7  C6  UNL     1      24.804   5.635  49.933  1.00  0.00     0.060 A 
HETATM    8  C2  UNL     1      25.879   5.361  48.940  1.00  0.00     0.051 A 
HETATM    9  C1  UNL     1      26.648   4.114  49.225  1.00  0.00     0.020 C 
HETATM   10  C3  UNL     1      26.734   6.591  48.925  1.00  0.00     0.007 A 
HETATM   11  C4  UNL     1      26.541   7.692  49.665  1.00  0.00     0.138 A 
HETATM   12  O1  UNL     1      25.493   7.834  50.565  1.00  0.00    -0.334 OA
HETATM   13  C5  UNL     1      24.629   6.749  50.666  1.00  0.00     0.160 A 
ENDBRANCH   5   7
ENDBRANCH   1   5
BRANCH   2  14
HETATM   14  C8  UNL     1      24.845   0.955  52.341  1.00  0.00     0.033 A 
HETATM   15  C9  UNL     1      24.646  -0.024  53.291  1.00  0.00     0.020 A 
HETATM   16  C10 UNL     1      25.722  -0.765  53.733  1.00  0.00     0.038 A 
HETATM   17  C11 UNL     1      26.995  -0.550  53.249  1.00  0.00     0.078 A 
HETATM   18  C13 UNL     1      27.218   0.434  52.289  1.00  0.00     0.038 A 
HETATM   19  C14 UNL     1      26.132   1.171  51.852  1.00  0.00     0.020 A 
BRANCH  17  20
HETATM   20  O4  UNL     1      27.993  -1.361  53.775  1.00  0.00    -0.286 OA
BRANCH  20  21
HETATM   21  C12 UNL     1      29.320  -0.944  53.810  1.00  0.00     0.403 C 
HETATM   22  O5  UNL     1      30.287  -0.205  53.488  1.00  0.00    -0.276 OA
ENDBRANCH  20  21
ENDBRANCH  17  20
ENDBRANCH   2  14
TORSDOF 5
ENDMDL
MODEL 5
REMARK VINA RESULT:      -6.8      2.031      7.574
REMARK  5 active torsions:
REMARK  status: ('A' for Active; 'I' for Inactive)
REMARK    1  A    between atoms: C6_7  and  S1_8 
REMARK    2  A    between atoms: S1_8  and  N1_10 
REMARK       I    between atoms: N1_10  and  C7_11 
REMARK    3  A    between atoms: C7_11  and  C8_13 
REMARK    4  A    between atoms: C11_16  and  O4_17 
REMARK    5  A    between atoms: O4_17  and  C12_18 
ROOT
HETATM    1  N1  UNL     1      25.200   4.420  50.872  1.00  0.00    -0.268 N 
HETATM    2  C7  UNL     1      24.583   3.245  51.374  1.00  0.00     0.263 C 
HETATM    3  O3  UNL     1      23.411   3.094  50.975  1.00  0.00    -0.267 OA
HETATM    4  H8  UNL     1      26.171   4.748  51.070  1.00  0.00     0.180 HD
ENDROOT
BRANCH   1   5
HETATM    5  S1  UNL     1      24.778   5.731  49.839  1.00  0.00     0.151 S 
HETATM    6  O2  UNL     1      24.004   5.349  48.608  1.00  0.00    -0.230 OA
BRANCH   5   7
HETATM    7  C6  UNL     1      26.099   6.859  49.539  1.00  0.00     0.060 A 
HETATM    8  C2  UNL     1      26.939   6.337  48.425  1.00  0.00     0.051 A 
HETATM    9  C1  UNL     1      27.451   4.956  48.663  1.00  0.00     0.020 C 
HETATM   10  C3  UNL     1      28.029   7.348  48.237  1.00  0.00     0.007 A 
HETATM   11  C4  UNL     1      28.185   8.476  48.943  1.00  0.00     0.138 A 
HETATM   12  O1  UNL     1      27.331   8.862  49.967  1.00  0.00    -0.334 OA
HETATM   13  C5  UNL     1      26.276   7.997  50.234  1.00  0.00     0.160 A 
ENDBRANCH   5   7
ENDBRANCH   1   5
BRANCH   2  14
HETATM   14  C8  UNL     1      25.368   2.395  52.260  1.00  0.00     0.033 A 
HETATM   15  C9  UNL     1      25.353   2.320  53.637  1.00  0.00     0.020 A 
HETATM   16  C10 UNL     1      26.192   1.432  54.275  1.00  0.00     0.038 A 
HETATM   17  C11 UNL     1      27.049   0.613  53.570  1.00  0.00     0.078 A 
HETATM   18  C13 UNL     1      27.079   0.672  52.178  1.00  0.00     0.038 A 
HETATM   19  C14 UNL     1      26.234   1.567  51.548  1.00  0.00     0.020 A 
BRANCH  17  20
HETATM   20  O4  UNL     1      27.843  -0.238  54.328  1.00  0.00    -0.286 OA
BRANCH  20  21
HETATM   21  C12 UNL     1      28.954  -0.871  53.778  1.00  0.00     0.403 C 
HETATM   22  O5  UNL     1      30.115  -1.354  53.807  1.00  0.00    -0.276 OA
ENDBRANCH  20  21
ENDBRANCH  17  20
ENDBRANCH   2  14
TORSDOF 5
ENDMDL
MODEL 6
REMARK VINA RESULT:      -6.6      1.987      7.737
REMARK  5 active torsions:
REMARK  status: ('A' for Active; 'I' for Inactive)
REMARK    1  A    between atoms: C6_7  and  S1_8 
REMARK    2  A    between atoms: S1_8  and  N1_10 
REMARK       I    between atoms: N1_10  and  C7_11 
REMARK    3  A    between atoms: C7_11  and  C8_13 
REMARK    4  A    between atoms: C11_16  and  O4_17 
REMARK    5  A    between atoms: O4_17  and  C12_18 
ROOT
HETATM    1  N1  UNL     1      25.389   4.031  50.765  1.00  0.00    -0.268 N 
HETATM    2  C7  UNL     1      24.901   2.753  51.140  1.00  0.00     0.263 C 
HETATM    3  O3  UNL     1      23.730   2.543  50.768  1.00  0.00    -0.267 OA
HETATM    4  H8  UNL     1      26.336   4.422  50.966  1.00  0.00     0.180 HD
ENDROOT
BRANCH   1   5
HETATM    5  S1  UNL     1      24.805   5.413  49.918  1.00  0.00     0.151 S 
HETATM    6  O2  UNL     1      23.881   5.113  48.772  1.00  0.00    -0.230 OA
BRANCH   5   7
HETATM    7  C6  UNL     1      26.050   6.604  49.548  1.00  0.00     0.060 A 
HETATM    8  C2  UNL     1      25.816   7.822  50.373  1.00  0.00     0.051 A 
HETATM    9  C1  UNL     1      24.451   8.399  50.207  1.00  0.00     0.020 C 
HETATM   10  C3  UNL     1      26.910   8.776  49.999  1.00  0.00     0.007 A 
HETATM   11  C4  UNL     1      27.881   8.547  49.105  1.00  0.00     0.138 A 
HETATM   12  O1  UNL     1      27.999   7.362  48.390  1.00  0.00    -0.334 OA
HETATM   13  C5  UNL     1      27.034   6.397  48.655  1.00  0.00     0.160 A 
ENDBRANCH   5   7
ENDBRANCH   1   5
BRANCH   2  14
HETATM   14  C8  UNL     1      25.799   1.879  51.885  1.00  0.00     0.033 A 
HETATM   15  C9  UNL     1      27.131   2.057  52.195  1.00  0.00     0.020 A 
HETATM   16  C10 UNL     1      27.791   1.087  52.920  1.00  0.00     0.038 A 
HETATM   17  C11 UNL     1      27.152  -0.060  53.343  1.00  0.00     0.078 A 
HETATM   18  C13 UNL     1      25.807  -0.258  53.041  1.00  0.00     0.038 A 
HETATM   19  C14 UNL     1      25.154   0.720  52.313  1.00  0.00     0.020 A 
BRANCH  17  20
HETATM   20  O4  UNL     1      27.927  -0.959  54.064  1.00  0.00    -0.286 OA
BRANCH  20  21
HETATM   21  C12 UNL     1      29.270  -1.160  53.762  1.00  0.00     0.403 C 
HETATM   22  O5  UNL     1      30.483  -0.829  53.701  1.00  0.00    -0.276 OA
ENDBRANCH  20  21
ENDBRANCH  17  20
ENDBRANCH   2  14
TORSDOF 5
ENDMDL
MODEL 7
REMARK VINA RESULT:      -6.6      3.013      8.624
REMARK  5 active torsions:
REMARK  status: ('A' for Active; 'I' for Inactive)
REMARK    1  A    between atoms: C6_7  and  S1_8 
REMARK    2  A    between atoms: S1_8  and  N1_10 
REMARK       I    between atoms: N1_10  and  C7_11 
REMARK    3  A    between atoms: C7_11  and  C8_13 
REMARK    4  A    between atoms: C11_16  and  O4_17 
REMARK    5  A    between atoms: O4_17  and  C12_18 
ROOT
HETATM    1  N1  UNL     1      25.644   3.226  50.559  1.00  0.00    -0.268 N 
HETATM    2  C7  UNL     1      26.262   2.432  51.561  1.00  0.00     0.263 C 
HETATM    3  O3  UNL     1      27.491   2.614  51.647  1.00  0.00    -0.267 OA
HETATM    4  H8  UNL     1      24.630   3.239  50.311  1.00  0.00     0.180 HD
ENDROOT
BRANCH   1   5
HETATM    5  S1  UNL     1      26.127   4.402  49.398  1.00  0.00     0.151 S 
HETATM    6  O2  UNL     1      27.599   4.433  49.098  1.00  0.00    -0.230 OA
BRANCH   5   7
HETATM    7  C6  UNL     1      25.407   5.992  49.649  1.00  0.00     0.060 A 
HETATM    8  C2  UNL     1      23.924   5.858  49.651  1.00  0.00     0.051 A 
HETATM    9  C1  UNL     1      23.384   5.208  48.421  1.00  0.00     0.020 C 
HETATM   10  C3  UNL     1      23.396   7.243  49.868  1.00  0.00     0.007 A 
HETATM   11  C4  UNL     1      24.135   8.350  50.024  1.00  0.00     0.138 A 
HETATM   12  O1  UNL     1      25.524   8.353  50.003  1.00  0.00    -0.334 OA
HETATM   13  C5  UNL     1      26.128   7.116  49.807  1.00  0.00     0.160 A 
ENDBRANCH   5   7
ENDBRANCH   1   5
BRANCH   2  14
HETATM   14  C8  UNL     1      25.409   1.536  52.333  1.00  0.00     0.033 A 
HETATM   15  C9  UNL     1      24.034   1.506  52.428  1.00  0.00     0.020 A 
HETATM   16  C10 UNL     1      23.433   0.559  53.230  1.00  0.00     0.038 A 
HETATM   17  C11 UNL     1      24.173  -0.362  53.940  1.00  0.00     0.078 A 
HETATM   18  C13 UNL     1      25.563  -0.350  53.858  1.00  0.00     0.038 A 
HETATM   19  C14 UNL     1      26.157   0.605  53.052  1.00  0.00     0.020 A 
BRANCH  17  20
HETATM   20  O4  UNL     1      23.449  -1.263  54.711  1.00  0.00    -0.286 OA
BRANCH  20  21
HETATM   21  C12 UNL     1      22.073  -1.403  54.557  1.00  0.00     0.403 C 
HETATM   22  O5  UNL     1      20.947  -1.906  54.809  1.00  0.00    -0.276 OA
ENDBRANCH  20  21
ENDBRANCH  17  20
ENDBRANCH   2  14
TORSDOF 5
ENDMDL
MODEL 8
REMARK VINA RESULT:      -6.4      3.933      7.496
REMARK  5 active torsions:
REMARK  status: ('A' for Active; 'I' for Inactive)
REMARK    1  A    between atoms: C6_7  and  S1_8 
REMARK    2  A    between atoms: S1_8  and  N1_10 
REMARK       I    between atoms: N1_10  and  C7_11 
REMARK    3  A    between atoms: C7_11  and  C8_13 
REMARK    4  A    between atoms: C11_16  and  O4_17 
REMARK    5  A    between atoms: O4_17  and  C12_18 
ROOT
HETATM    1  N1  UNL     1      29.766   5.908  48.881  1.00  0.00    -0.268 N 
HETATM    2  C7  UNL     1      28.644   6.284  48.097  1.00  0.00     0.263 C 
HETATM    3  O3  UNL     1      28.943   7.000  47.121  1.00  0.00    -0.267 OA
HETATM    4  H8  UNL     1      29.755   5.314  49.740  1.00  0.00     0.180 HD
ENDROOT
BRANCH   1   5
HETATM    5  S1  UNL     1      31.468   6.167  48.866  1.00  0.00     0.151 S 
HETATM    6  O2  UNL     1      31.934   7.379  49.623  1.00  0.00    -0.230 OA
BRANCH   5   7
HETATM    7  C6  UNL     1      32.206   5.981  47.277  1.00  0.00     0.060 A 
HETATM    8  C2  UNL     1      32.134   4.549  46.873  1.00  0.00     0.051 A 
HETATM    9  C1  UNL     1      32.748   3.619  47.866  1.00  0.00     0.020 C 
HETATM   10  C3  UNL     1      32.778   4.480  45.522  1.00  0.00     0.007 A 
HETATM   11  C4  UNL     1      33.300   5.513  44.846  1.00  0.00     0.138 A 
HETATM   12  O1  UNL     1      33.310   6.815  45.328  1.00  0.00    -0.334 OA
HETATM   13  C5  UNL     1      32.736   7.002  46.581  1.00  0.00     0.160 A 
ENDBRANCH   5   7
ENDBRANCH   1   5
BRANCH   2  14
HETATM   14  C8  UNL     1      27.334   5.803  48.517  1.00  0.00     0.033 A 
HETATM   15  C9  UNL     1      26.124   6.464  48.525  1.00  0.00     0.020 A 
HETATM   16  C10 UNL     1      24.997   5.805  48.970  1.00  0.00     0.038 A 
HETATM   17  C11 UNL     1      25.050   4.499  49.408  1.00  0.00     0.078 A 
HETATM   18  C13 UNL     1      26.262   3.813  49.407  1.00  0.00     0.038 A 
HETATM   19  C14 UNL     1      27.386   4.483  48.960  1.00  0.00     0.020 A 
BRANCH  17  20
HETATM   20  O4  UNL     1      23.846   3.948  49.832  1.00  0.00    -0.286 OA
BRANCH  20  21
HETATM   21  C12 UNL     1      23.531   3.855  51.183  1.00  0.00     0.403 C 
HETATM   22  O5  UNL     1      23.799   3.712  52.405  1.00  0.00    -0.276 OA
ENDBRANCH  20  21
ENDBRANCH  17  20
ENDBRANCH   2  14
TORSDOF 5
ENDMDL
MODEL 9
REMARK VINA RESULT:      -6.4      7.179     10.496
REMARK  5 active torsions:
REMARK  status: ('A' for Active; 'I' for Inactive)
REMARK    1  A    between atoms: C6_7  and  S1_8 
REMARK    2  A    between atoms: S1_8  and  N1_10 
REMARK       I    between atoms: N1_10  and  C7_11 
REMARK    3  A    between atoms: C7_11  and  C8_13 
REMARK    4  A    between atoms: C11_16  and  O4_17 
REMARK    5  A    between atoms: O4_17  and  C12_18 
ROOT
HETATM    1  N1  UNL     1      19.872   0.802  51.499  1.00  0.00    -0.268 N 
HETATM    2  C7  UNL     1      20.042  -0.015  52.647  1.00  0.00     0.263 C 
HETATM    3  O3  UNL     1      18.973  -0.488  53.080  1.00  0.00    -0.267 OA
HETATM    4  H8  UNL     1      20.622   1.299  50.970  1.00  0.00     0.180 HD
ENDROOT
BRANCH   1   5
HETATM    5  S1  UNL     1      18.571   1.339  50.506  1.00  0.00     0.151 S 
HETATM    6  O2  UNL     1      18.978   1.896  49.171  1.00  0.00    -0.230 OA
BRANCH   5   7
HETATM    7  C6  UNL     1      17.374   2.311  51.360  1.00  0.00     0.060 A 
HETATM    8  C2  UNL     1      16.183   1.466  51.653  1.00  0.00     0.051 A 
HETATM    9  C1  UNL     1      15.594   0.826  50.441  1.00  0.00     0.020 C 
HETATM   10  C3  UNL     1      15.222   2.363  52.373  1.00  0.00     0.007 A 
HETATM   11  C4  UNL     1      15.426   3.652  52.675  1.00  0.00     0.138 A 
HETATM   12  O1  UNL     1      16.587   4.340  52.348  1.00  0.00    -0.334 OA
HETATM   13  C5  UNL     1      17.556   3.606  51.672  1.00  0.00     0.160 A 
ENDBRANCH   5   7
ENDBRANCH   1   5
BRANCH   2  14
HETATM   14  C8  UNL     1      21.397  -0.190  53.157  1.00  0.00     0.033 A 
HETATM   15  C9  UNL     1      22.587   0.288  52.652  1.00  0.00     0.020 A 
HETATM   16  C10 UNL     1      23.765  -0.005  53.307  1.00  0.00     0.038 A 
HETATM   17  C11 UNL     1      23.783  -0.766  54.457  1.00  0.00     0.078 A 
HETATM   18  C13 UNL     1      22.591  -1.258  54.984  1.00  0.00     0.038 A 
HETATM   19  C14 UNL     1      21.416  -0.959  54.319  1.00  0.00     0.020 A 
BRANCH  17  20
HETATM   20  O4  UNL     1      25.032  -0.990  55.021  1.00  0.00    -0.286 OA
BRANCH  20  21
HETATM   21  C12 UNL     1      26.081  -0.095  54.833  1.00  0.00     0.403 C 
HETATM   22  O5  UNL     1      26.777   0.915  55.117  1.00  0.00    -0.276 OA
ENDBRANCH  20  21
ENDBRANCH  17  20
ENDBRANCH   2  14
TORSDOF 5
ENDMDL
