MODEL 1
REMARK VINA RESULT:      -9.9      0.000      0.000
REMARK  4 active torsions:
REMARK  status: ('A' for Active; 'I' for Inactive)
REMARK    1  A    between atoms: O1_1  and  C1_2 
REMARK    2  A    between atoms: C4_5  and  C5_6 
REMARK    3  A    between atoms: C5_6  and  N1_7 
REMARK    4  A    between atoms: N1_7  and  C6_8 
ROOT
HETATM    1  C6  UNL     1      24.875   2.195  52.203  1.00  0.00     0.030 A 
HETATM    2  C7  UNL     1      24.770   2.756  50.946  1.00  0.00     0.031 A 
HETATM    3  C8  UNL     1      23.713   2.543  50.083  1.00  0.00     0.036 A 
HETATM    4  C9  UNL     1      22.694   1.733  50.465  1.00  0.00     0.085 A 
HETATM    5  C10 UNL     1      22.798   1.168  51.724  1.00  0.00     0.070 A 
HETATM    6  C11 UNL     1      23.844   1.347  52.648  1.00  0.00     0.061 A 
HETATM    7  N2  UNL     1      21.966   0.254  52.478  1.00  0.00    -0.317 N 
HETATM    8  C12 UNL     1      22.861  -0.516  53.329  1.00  0.00     0.110 C 
HETATM    9  C13 UNL     1      22.127  -0.870  54.393  1.00  0.00    -0.007 C 
HETATM   10  C14 UNL     1      21.025  -1.586  54.147  1.00  0.00     0.035 C 
HETATM   11  C15 UNL     1      20.050  -0.851  53.308  1.00  0.00     0.040 C 
HETATM   12 BR1  UNL     1      18.161  -1.054  53.261  1.00  0.00    -0.049 Br
HETATM   13  C16 UNL     1      20.530   0.080  52.465  1.00  0.00     0.074 C 
HETATM   14  C17 UNL     1      19.420   0.670  51.720  1.00  0.00     0.149 C 
HETATM   15  N3  UNL     1      19.391   1.214  50.526  1.00  0.00    -0.252 NA
HETATM   16  C18 UNL     1      20.395   1.434  49.528  1.00  0.00     0.233 C 
HETATM   17  N4  UNL     1      21.679   1.637  49.473  1.00  0.00    -0.240 NA
ENDROOT
BRANCH   1  18
HETATM   18  N1  UNL     1      25.985   2.453  53.023  1.00  0.00    -0.386 N 
HETATM   19  H6  UNL     1      25.788   3.177  53.780  1.00  0.00     0.160 HD
BRANCH  18  20
HETATM   20  C5  UNL     1      27.327   1.985  53.103  1.00  0.00     0.158 C 
BRANCH  20  21
HETATM   21  C4  UNL     1      27.503   0.522  53.038  1.00  0.00    -0.040 A 
HETATM   22  C3  UNL     1      28.748   0.123  53.520  1.00  0.00     0.011 A 
HETATM   23  C2  UNL     1      29.175  -1.186  53.563  1.00  0.00     0.037 A 
HETATM   24  C1  UNL     1      28.346  -2.190  53.107  1.00  0.00     0.065 A 
HETATM   25  C20 UNL     1      27.112  -1.810  52.626  1.00  0.00     0.037 A 
HETATM   26  C19 UNL     1      26.701  -0.501  52.591  1.00  0.00     0.011 A 
BRANCH  24  27
HETATM   27  O1  UNL     1      28.602  -3.550  53.071  1.00  0.00    -0.361 OA
HETATM   28  H1  UNL     1      28.313  -4.152  53.823  1.00  0.00     0.217 HD
ENDBRANCH  24  27
ENDBRANCH  20  21
ENDBRANCH  18  20
ENDBRANCH   1  18
TORSDOF 4
ENDMDL
MODEL 2
REMARK VINA RESULT:      -9.2      1.487      2.160
REMARK  4 active torsions:
REMARK  status: ('A' for Active; 'I' for Inactive)
REMARK    1  A    between atoms: O1_1  and  C1_2 
REMARK    2  A    between atoms: C4_5  and  C5_6 
REMARK    3  A    between atoms: C5_6  and  N1_7 
REMARK    4  A    between atoms: N1_7  and  C6_8 
ROOT
HETATM    1  C6  UNL     1      26.159   2.867  51.355  1.00  0.00     0.030 A 
HETATM    2  C7  UNL     1      26.309   3.591  50.188  1.00  0.00     0.031 A 
HETATM    3  C8  UNL     1      25.307   3.787  49.259  1.00  0.00     0.036 A 
HETATM    4  C9  UNL     1      24.082   3.247  49.475  1.00  0.00     0.085 A 
HETATM    5  C10 UNL     1      23.930   2.520  50.643  1.00  0.00     0.070 A 
HETATM    6  C11 UNL     1      24.907   2.286  51.627  1.00  0.00     0.061 A 
HETATM    7  N2  UNL     1      22.827   1.781  51.221  1.00  0.00    -0.317 N 
HETATM    8  C12 UNL     1      23.413   0.693  51.990  1.00  0.00     0.110 C 
HETATM    9  C13 UNL     1      22.527   0.423  52.959  1.00  0.00    -0.007 C 
HETATM   10  C14 UNL     1      21.298   0.075  52.565  1.00  0.00     0.035 C 
HETATM   11  C15 UNL     1      20.624   1.149  51.799  1.00  0.00     0.040 C 
HETATM   12 BR1  UNL     1      18.760   1.481  51.641  1.00  0.00    -0.049 Br
HETATM   13  C16 UNL     1      21.402   2.012  51.121  1.00  0.00     0.074 C 
HETATM   14  C17 UNL     1      20.552   2.974  50.421  1.00  0.00     0.149 C 
HETATM   15  N3  UNL     1      20.767   3.652  49.318  1.00  0.00    -0.252 NA
HETATM   16  C18 UNL     1      21.869   3.712  48.406  1.00  0.00     0.233 C 
HETATM   17  N4  UNL     1      23.161   3.560  48.436  1.00  0.00    -0.240 NA
ENDROOT
BRANCH   1  18
HETATM   18  N1  UNL     1      27.228   2.705  52.250  1.00  0.00    -0.386 N 
HETATM   19  H6  UNL     1      28.112   3.217  51.946  1.00  0.00     0.160 HD
BRANCH  18  20
HETATM   20  C5  UNL     1      27.435   2.021  53.482  1.00  0.00     0.158 C 
BRANCH  20  21
HETATM   21  C4  UNL     1      27.887   0.621  53.372  1.00  0.00    -0.040 A 
HETATM   22  C3  UNL     1      26.867  -0.227  52.946  1.00  0.00     0.011 A 
HETATM   23  C2  UNL     1      27.014  -1.585  52.771  1.00  0.00     0.037 A 
HETATM   24  C1  UNL     1      28.234  -2.177  53.025  1.00  0.00     0.065 A 
HETATM   25  C20 UNL     1      29.254  -1.351  53.447  1.00  0.00     0.037 A 
HETATM   26  C19 UNL     1      29.089   0.001  53.617  1.00  0.00     0.011 A 
BRANCH  24  27
HETATM   27  O1  UNL     1      28.568  -3.515  52.906  1.00  0.00    -0.361 OA
HETATM   28  H1  UNL     1      27.860  -4.215  52.758  1.00  0.00     0.217 HD
ENDBRANCH  24  27
ENDBRANCH  20  21
ENDBRANCH  18  20
ENDBRANCH   1  18
TORSDOF 4
ENDMDL
MODEL 3
REMARK VINA RESULT:      -9.0      2.756      4.415
REMARK  4 active torsions:
REMARK  status: ('A' for Active; 'I' for Inactive)
REMARK    1  A    between atoms: O1_1  and  C1_2 
REMARK    2  A    between atoms: C4_5  and  C5_6 
REMARK    3  A    between atoms: C5_6  and  N1_7 
REMARK    4  A    between atoms: N1_7  and  C6_8 
ROOT
HETATM    1  C6  UNL     1      23.525   0.183  53.014  1.00  0.00     0.030 A 
HETATM    2  C7  UNL     1      22.366   0.039  53.750  1.00  0.00     0.031 A 
HETATM    3  C8  UNL     1      21.237   0.817  53.587  1.00  0.00     0.036 A 
HETATM    4  C9  UNL     1      21.234   1.798  52.650  1.00  0.00     0.085 A 
HETATM    5  C10 UNL     1      22.395   1.945  51.913  1.00  0.00     0.070 A 
HETATM    6  C11 UNL     1      23.574   1.186  52.029  1.00  0.00     0.061 A 
HETATM    7  N2  UNL     1      22.802   2.860  50.866  1.00  0.00    -0.317 N 
HETATM    8  C12 UNL     1      24.242   3.028  50.998  1.00  0.00     0.110 C 
HETATM    9  C13 UNL     1      24.682   3.322  49.767  1.00  0.00    -0.007 C 
HETATM   10  C14 UNL     1      24.160   4.410  49.190  1.00  0.00     0.035 C 
HETATM   11  C15 UNL     1      22.696   4.298  48.994  1.00  0.00     0.040 C 
HETATM   12 BR1  UNL     1      21.626   5.140  47.669  1.00  0.00    -0.049 Br
HETATM   13  C16 UNL     1      22.013   3.512  49.844  1.00  0.00     0.074 C 
HETATM   14  C17 UNL     1      20.593   3.552  49.498  1.00  0.00     0.149 C 
HETATM   15  N3  UNL     1      19.530   3.381  50.248  1.00  0.00    -0.252 NA
HETATM   16  C18 UNL     1      19.351   3.099  51.640  1.00  0.00     0.233 C 
HETATM   17  N4  UNL     1      19.992   2.490  52.596  1.00  0.00    -0.240 NA
ENDROOT
BRANCH   1  18
HETATM   18  N1  UNL     1      24.637  -0.643  53.242  1.00  0.00    -0.386 N 
HETATM   19  H6  UNL     1      24.489  -1.335  54.039  1.00  0.00     0.160 HD
BRANCH  18  20
HETATM   20  C5  UNL     1      25.932  -0.795  52.670  1.00  0.00     0.158 C 
BRANCH  20  21
HETATM   21  C4  UNL     1      26.948   0.182  53.107  1.00  0.00    -0.040 A 
HETATM   22  C3  UNL     1      27.750  -0.319  54.130  1.00  0.00     0.011 A 
HETATM   23  C2  UNL     1      28.767   0.390  54.729  1.00  0.00     0.037 A 
HETATM   24  C1  UNL     1      29.037   1.678  54.317  1.00  0.00     0.065 A 
HETATM   25  C20 UNL     1      28.251   2.188  53.306  1.00  0.00     0.037 A 
HETATM   26  C19 UNL     1      27.241   1.468  52.720  1.00  0.00     0.011 A 
BRANCH  24  27
HETATM   27  O1  UNL     1      30.011   2.536  54.798  1.00  0.00    -0.361 OA
HETATM   28  H1  UNL     1      30.132   2.682  55.787  1.00  0.00     0.217 HD
ENDBRANCH  24  27
ENDBRANCH  20  21
ENDBRANCH  18  20
ENDBRANCH   1  18
TORSDOF 4
ENDMDL
MODEL 4
REMARK VINA RESULT:      -9.0      1.895      3.478
REMARK  4 active torsions:
REMARK  status: ('A' for Active; 'I' for Inactive)
REMARK    1  A    between atoms: O1_1  and  C1_2 
REMARK    2  A    between atoms: C4_5  and  C5_6 
REMARK    3  A    between atoms: C5_6  and  N1_7 
REMARK    4  A    between atoms: N1_7  and  C6_8 
ROOT
HETATM    1  C6  UNL     1      23.673   0.909  53.087  1.00  0.00     0.030 A 
HETATM    2  C7  UNL     1      23.443  -0.264  53.777  1.00  0.00     0.031 A 
HETATM    3  C8  UNL     1      22.194  -0.813  53.986  1.00  0.00     0.036 A 
HETATM    4  C9  UNL     1      21.098  -0.183  53.496  1.00  0.00     0.085 A 
HETATM    5  C10 UNL     1      21.326   0.995  52.805  1.00  0.00     0.070 A 
HETATM    6  C11 UNL     1      22.570   1.603  52.557  1.00  0.00     0.061 A 
HETATM    7  N2  UNL     1      20.456   1.960  52.165  1.00  0.00    -0.317 N 
HETATM    8  C12 UNL     1      21.119   3.251  52.269  1.00  0.00     0.110 C 
HETATM    9  C13 UNL     1      20.684   3.962  51.220  1.00  0.00    -0.007 C 
HETATM   10  C14 UNL     1      19.363   4.149  51.131  1.00  0.00     0.035 C 
HETATM   11  C15 UNL     1      18.620   2.875  50.991  1.00  0.00     0.040 C 
HETATM   12 BR1  UNL     1      16.942   2.586  50.149  1.00  0.00    -0.049 Br
HETATM   13  C16 UNL     1      19.178   1.769  51.515  1.00  0.00     0.074 C 
HETATM   14  C17 UNL     1      18.287   0.631  51.291  1.00  0.00     0.149 C 
HETATM   15  N3  UNL     1      18.133  -0.476  51.978  1.00  0.00    -0.252 NA
HETATM   16  C18 UNL     1      18.752  -0.983  53.166  1.00  0.00     0.233 C 
HETATM   17  N4  UNL     1      19.895  -0.888  53.780  1.00  0.00    -0.240 NA
ENDROOT
BRANCH   1  18
HETATM   18  N1  UNL     1      24.974   1.410  52.920  1.00  0.00    -0.386 N 
HETATM   19  H6  UNL     1      25.214   2.192  53.603  1.00  0.00     0.160 HD
BRANCH  18  20
HETATM   20  C5  UNL     1      26.073   1.134  52.058  1.00  0.00     0.158 C 
BRANCH  20  21
HETATM   21  C4  UNL     1      26.968   0.042  52.486  1.00  0.00    -0.040 A 
HETATM   22  C3  UNL     1      26.468  -1.211  52.140  1.00  0.00     0.011 A 
HETATM   23  C2  UNL     1      27.098  -2.400  52.431  1.00  0.00     0.037 A 
HETATM   24  C1  UNL     1      28.301  -2.388  53.107  1.00  0.00     0.065 A 
HETATM   25  C20 UNL     1      28.808  -1.155  53.457  1.00  0.00     0.037 A 
HETATM   26  C19 UNL     1      28.167   0.021  53.159  1.00  0.00     0.011 A 
BRANCH  24  27
HETATM   27  O1  UNL     1      29.072  -3.474  53.483  1.00  0.00    -0.361 OA
HETATM   28  H1  UNL     1      29.488  -3.523  54.398  1.00  0.00     0.217 HD
ENDBRANCH  24  27
ENDBRANCH  20  21
ENDBRANCH  18  20
ENDBRANCH   1  18
TORSDOF 4
ENDMDL
MODEL 5
REMARK VINA RESULT:      -8.9      3.224      4.623
REMARK  4 active torsions:
REMARK  status: ('A' for Active; 'I' for Inactive)
REMARK    1  A    between atoms: O1_1  and  C1_2 
REMARK    2  A    between atoms: C4_5  and  C5_6 
REMARK    3  A    between atoms: C5_6  and  N1_7 
REMARK    4  A    between atoms: N1_7  and  C6_8 
ROOT
HETATM    1  C6  UNL     1      24.816   2.623  52.092  1.00  0.00     0.030 A 
HETATM    2  C7  UNL     1      23.977   1.647  52.592  1.00  0.00     0.031 A 
HETATM    3  C8  UNL     1      22.607   1.777  52.698  1.00  0.00     0.036 A 
HETATM    4  C9  UNL     1      22.013   2.927  52.293  1.00  0.00     0.085 A 
HETATM    5  C10 UNL     1      22.852   3.907  51.793  1.00  0.00     0.070 A 
HETATM    6  C11 UNL     1      24.250   3.836  51.658  1.00  0.00     0.061 A 
HETATM    7  N2  UNL     1      22.632   5.249  51.294  1.00  0.00    -0.317 N 
HETATM    8  C12 UNL     1      23.834   6.010  51.602  1.00  0.00     0.110 C 
HETATM    9  C13 UNL     1      23.901   6.967  50.667  1.00  0.00    -0.007 C 
HETATM   10  C14 UNL     1      22.857   7.800  50.589  1.00  0.00     0.035 C 
HETATM   11  C15 UNL     1      21.598   7.098  50.246  1.00  0.00     0.040 C 
HETATM   12 BR1  UNL     1      20.078   7.796  49.346  1.00  0.00    -0.049 Br
HETATM   13  C16 UNL     1      21.489   5.806  50.604  1.00  0.00     0.074 C 
HETATM   14  C17 UNL     1      20.177   5.306  50.197  1.00  0.00     0.149 C 
HETATM   15  N3  UNL     1      19.437   4.349  50.705  1.00  0.00    -0.252 NA
HETATM   16  C18 UNL     1      19.617   3.458  51.811  1.00  0.00     0.233 C 
HETATM   17  N4  UNL     1      20.599   2.890  52.449  1.00  0.00    -0.240 NA
ENDROOT
BRANCH   1  18
HETATM   18  N1  UNL     1      26.204   2.421  52.022  1.00  0.00    -0.386 N 
HETATM   19  H6  UNL     1      26.620   2.693  51.079  1.00  0.00     0.160 HD
BRANCH  18  20
HETATM   20  C5  UNL     1      27.213   1.941  52.904  1.00  0.00     0.158 C 
BRANCH  20  21
HETATM   21  C4  UNL     1      27.436   0.483  52.894  1.00  0.00    -0.040 A 
HETATM   22  C3  UNL     1      28.668   0.138  53.444  1.00  0.00     0.011 A 
HETATM   23  C2  UNL     1      29.133  -1.154  53.547  1.00  0.00     0.037 A 
HETATM   24  C1  UNL     1      28.356  -2.198  53.086  1.00  0.00     0.065 A 
HETATM   25  C20 UNL     1      27.134  -1.872  52.538  1.00  0.00     0.037 A 
HETATM   26  C19 UNL     1      26.687  -0.578  52.443  1.00  0.00     0.011 A 
BRANCH  24  27
HETATM   27  O1  UNL     1      28.655  -3.549  53.105  1.00  0.00    -0.361 OA
HETATM   28  H1  UNL     1      28.235  -4.182  52.445  1.00  0.00     0.217 HD
ENDBRANCH  24  27
ENDBRANCH  20  21
ENDBRANCH  18  20
ENDBRANCH   1  18
TORSDOF 4
ENDMDL
MODEL 6
REMARK VINA RESULT:      -8.9      2.426      4.066
REMARK  4 active torsions:
REMARK  status: ('A' for Active; 'I' for Inactive)
REMARK    1  A    between atoms: O1_1  and  C1_2 
REMARK    2  A    between atoms: C4_5  and  C5_6 
REMARK    3  A    between atoms: C5_6  and  N1_7 
REMARK    4  A    between atoms: N1_7  and  C6_8 
ROOT
HETATM    1  C6  UNL     1      23.149  -0.645  54.061  1.00  0.00     0.030 A 
HETATM    2  C7  UNL     1      22.156  -1.458  54.570  1.00  0.00     0.031 A 
HETATM    3  C8  UNL     1      20.825  -1.380  54.214  1.00  0.00     0.036 A 
HETATM    4  C9  UNL     1      20.431  -0.452  53.306  1.00  0.00     0.085 A 
HETATM    5  C10 UNL     1      21.424   0.365  52.796  1.00  0.00     0.070 A 
HETATM    6  C11 UNL     1      22.794   0.334  53.115  1.00  0.00     0.061 A 
HETATM    7  N2  UNL     1      21.423   1.466  51.854  1.00  0.00    -0.317 N 
HETATM    8  C12 UNL     1      22.508   2.352  52.249  1.00  0.00     0.110 C 
HETATM    9  C13 UNL     1      22.896   2.967  51.123  1.00  0.00    -0.007 C 
HETATM   10  C14 UNL     1      21.962   3.672  50.476  1.00  0.00     0.035 C 
HETATM   11  C15 UNL     1      20.835   2.827  50.014  1.00  0.00     0.040 C 
HETATM   12 BR1  UNL     1      19.688   3.118  48.527  1.00  0.00    -0.049 Br
HETATM   13  C16 UNL     1      20.567   1.711  50.714  1.00  0.00     0.074 C 
HETATM   14  C17 UNL     1      19.417   1.035  50.115  1.00  0.00     0.149 C 
HETATM   15  N3  UNL     1      18.517   0.247  50.655  1.00  0.00    -0.252 NA
HETATM   16  C18 UNL     1      18.317  -0.237  51.988  1.00  0.00     0.233 C 
HETATM   17  N4  UNL     1      19.036  -0.518  53.036  1.00  0.00    -0.240 NA
ENDROOT
BRANCH   1  18
HETATM   18  N1  UNL     1      24.483  -0.780  54.477  1.00  0.00    -0.386 N 
HETATM   19  H6  UNL     1      24.614  -0.620  55.522  1.00  0.00     0.160 HD
BRANCH  18  20
HETATM   20  C5  UNL     1      25.724  -1.082  53.848  1.00  0.00     0.158 C 
BRANCH  20  21
HETATM   21  C4  UNL     1      26.582   0.075  53.528  1.00  0.00    -0.040 A 
HETATM   22  C3  UNL     1      27.750   0.086  54.286  1.00  0.00     0.011 A 
HETATM   23  C2  UNL     1      28.719   1.060  54.195  1.00  0.00     0.037 A 
HETATM   24  C1  UNL     1      28.556   2.106  53.310  1.00  0.00     0.065 A 
HETATM   25  C20 UNL     1      27.404   2.108  52.553  1.00  0.00     0.037 A 
HETATM   26  C19 UNL     1      26.448   1.129  52.656  1.00  0.00     0.011 A 
BRANCH  24  27
HETATM   27  O1  UNL     1      29.415   3.166  53.082  1.00  0.00    -0.361 OA
HETATM   28  H1  UNL     1      29.913   3.254  52.212  1.00  0.00     0.217 HD
ENDBRANCH  24  27
ENDBRANCH  20  21
ENDBRANCH  18  20
ENDBRANCH   1  18
TORSDOF 4
ENDMDL
MODEL 7
REMARK VINA RESULT:      -8.8      3.571      6.678
REMARK  4 active torsions:
REMARK  status: ('A' for Active; 'I' for Inactive)
REMARK    1  A    between atoms: O1_1  and  C1_2 
REMARK    2  A    between atoms: C4_5  and  C5_6 
REMARK    3  A    between atoms: C5_6  and  N1_7 
REMARK    4  A    between atoms: N1_7  and  C6_8 
ROOT
HETATM    1  C6  UNL     1      21.069   1.368  52.895  1.00  0.00     0.030 A 
HETATM    2  C7  UNL     1      20.433   0.505  53.765  1.00  0.00     0.031 A 
HETATM    3  C8  UNL     1      21.078  -0.439  54.538  1.00  0.00     0.036 A 
HETATM    4  C9  UNL     1      22.428  -0.554  54.461  1.00  0.00     0.085 A 
HETATM    5  C10 UNL     1      23.067   0.309  53.588  1.00  0.00     0.070 A 
HETATM    6  C11 UNL     1      22.468   1.291  52.778  1.00  0.00     0.061 A 
HETATM    7  N2  UNL     1      24.451   0.491  53.201  1.00  0.00    -0.317 N 
HETATM    8  C12 UNL     1      24.439   0.962  51.824  1.00  0.00     0.110 C 
HETATM    9  C13 UNL     1      25.560   1.683  51.683  1.00  0.00    -0.007 C 
HETATM   10  C14 UNL     1      26.712   1.050  51.924  1.00  0.00     0.035 C 
HETATM   11  C15 UNL     1      26.810   0.568  53.322  1.00  0.00     0.040 C 
HETATM   12 BR1  UNL     1      28.380   0.284  54.354  1.00  0.00    -0.049 Br
HETATM   13  C16 UNL     1      25.663   0.287  53.965  1.00  0.00     0.074 C 
HETATM   14  C17 UNL     1      25.973  -0.189  55.312  1.00  0.00     0.149 C 
HETATM   15  N3  UNL     1      25.307  -0.998  56.102  1.00  0.00    -0.252 NA
HETATM   16  C18 UNL     1      24.068  -1.701  55.960  1.00  0.00     0.233 C 
HETATM   17  N4  UNL     1      22.937  -1.556  55.333  1.00  0.00    -0.240 NA
ENDROOT
BRANCH   1  18
HETATM   18  N1  UNL     1      20.342   2.299  52.136  1.00  0.00    -0.386 N 
HETATM   19  H6  UNL     1      19.463   1.888  51.698  1.00  0.00     0.160 HD
BRANCH  18  20
HETATM   20  C5  UNL     1      20.483   3.675  51.799  1.00  0.00     0.158 C 
BRANCH  20  21
HETATM   21  C4  UNL     1      21.806   4.080  51.288  1.00  0.00    -0.040 A 
HETATM   22  C3  UNL     1      22.527   4.816  52.226  1.00  0.00     0.011 A 
HETATM   23  C2  UNL     1      23.787   5.327  52.003  1.00  0.00     0.037 A 
HETATM   24  C1  UNL     1      24.403   5.118  50.787  1.00  0.00     0.065 A 
HETATM   25  C20 UNL     1      23.702   4.392  49.848  1.00  0.00     0.037 A 
HETATM   26  C19 UNL     1      22.447   3.890  50.086  1.00  0.00     0.011 A 
BRANCH  24  27
HETATM   27  O1  UNL     1      25.654   5.551  50.385  1.00  0.00    -0.361 OA
HETATM   28  H1  UNL     1      26.369   4.895  50.117  1.00  0.00     0.217 HD
ENDBRANCH  24  27
ENDBRANCH  20  21
ENDBRANCH  18  20
ENDBRANCH   1  18
TORSDOF 4
ENDMDL
MODEL 8
REMARK VINA RESULT:      -8.7      4.074      8.025
REMARK  4 active torsions:
REMARK  status: ('A' for Active; 'I' for Inactive)
REMARK    1  A    between atoms: O1_1  and  C1_2 
REMARK    2  A    between atoms: C4_5  and  C5_6 
REMARK    3  A    between atoms: C5_6  and  N1_7 
REMARK    4  A    between atoms: N1_7  and  C6_8 
ROOT
HETATM    1  C6  UNL     1      20.567  -0.557  53.706  1.00  0.00     0.030 A 
HETATM    2  C7  UNL     1      21.361  -1.200  54.635  1.00  0.00     0.031 A 
HETATM    3  C8  UNL     1      22.739  -1.125  54.667  1.00  0.00     0.036 A 
HETATM    4  C9  UNL     1      23.389  -0.380  53.738  1.00  0.00     0.085 A 
HETATM    5  C10 UNL     1      22.595   0.264  52.805  1.00  0.00     0.070 A 
HETATM    6  C11 UNL     1      21.191   0.230  52.720  1.00  0.00     0.061 A 
HETATM    7  N2  UNL     1      22.883   1.110  51.665  1.00  0.00    -0.317 N 
HETATM    8  C12 UNL     1      21.817   0.883  50.700  1.00  0.00     0.110 C 
HETATM    9  C13 UNL     1      21.724   2.020  49.996  1.00  0.00    -0.007 C 
HETATM   10  C14 UNL     1      22.827   2.417  49.353  1.00  0.00     0.035 C 
HETATM   11  C15 UNL     1      23.950   2.698  50.278  1.00  0.00     0.040 C 
HETATM   12 BR1  UNL     1      25.400   3.900  50.027  1.00  0.00    -0.049 Br
HETATM   13  C16 UNL     1      23.973   2.035  51.448  1.00  0.00     0.074 C 
HETATM   14  C17 UNL     1      25.161   2.435  52.201  1.00  0.00     0.149 C 
HETATM   15  N3  UNL     1      25.861   1.778  53.097  1.00  0.00    -0.252 NA
HETATM   16  C18 UNL     1      25.740   0.468  53.663  1.00  0.00     0.233 C 
HETATM   17  N4  UNL     1      24.799  -0.392  53.924  1.00  0.00    -0.240 NA
ENDROOT
BRANCH   1  18
HETATM   18  N1  UNL     1      19.170  -0.685  53.733  1.00  0.00    -0.386 N 
HETATM   19  H6  UNL     1      18.777  -0.798  54.717  1.00  0.00     0.160 HD
BRANCH  18  20
HETATM   20  C5  UNL     1      18.126  -0.702  52.764  1.00  0.00     0.158 C 
BRANCH  20  21
HETATM   21  C4  UNL     1      17.201  -1.849  52.835  1.00  0.00    -0.040 A 
HETATM   22  C3  UNL     1      17.730  -2.903  53.578  1.00  0.00     0.011 A 
HETATM   23  C2  UNL     1      17.081  -4.098  53.792  1.00  0.00     0.037 A 
HETATM   24  C1  UNL     1      15.827  -4.301  53.252  1.00  0.00     0.065 A 
HETATM   25  C20 UNL     1      15.291  -3.267  52.514  1.00  0.00     0.037 A 
HETATM   26  C19 UNL     1      15.952  -2.082  52.311  1.00  0.00     0.011 A 
BRANCH  24  27
HETATM   27  O1  UNL     1      15.030  -5.426  53.360  1.00  0.00    -0.361 OA
HETATM   28  H1  UNL     1      14.720  -5.759  54.258  1.00  0.00     0.217 HD
ENDBRANCH  24  27
ENDBRANCH  20  21
ENDBRANCH  18  20
ENDBRANCH   1  18
TORSDOF 4
ENDMDL
MODEL 9
REMARK VINA RESULT:      -8.6      3.925      6.566
REMARK  4 active torsions:
REMARK  status: ('A' for Active; 'I' for Inactive)
REMARK    1  A    between atoms: O1_1  and  C1_2 
REMARK    2  A    between atoms: C4_5  and  C5_6 
REMARK    3  A    between atoms: C5_6  and  N1_7 
REMARK    4  A    between atoms: N1_7  and  C6_8 
ROOT
HETATM    1  C6  UNL     1      21.618   4.123  51.911  1.00  0.00     0.030 A 
HETATM    2  C7  UNL     1      20.491   3.416  52.282  1.00  0.00     0.031 A 
HETATM    3  C8  UNL     1      20.487   2.078  52.623  1.00  0.00     0.036 A 
HETATM    4  C9  UNL     1      21.651   1.382  52.600  1.00  0.00     0.085 A 
HETATM    5  C10 UNL     1      22.781   2.088  52.226  1.00  0.00     0.070 A 
HETATM    6  C11 UNL     1      22.851   3.447  51.872  1.00  0.00     0.061 A 
HETATM    7  N2  UNL     1      24.172   1.724  52.053  1.00  0.00    -0.317 N 
HETATM    8  C12 UNL     1      24.702   2.590  51.011  1.00  0.00     0.110 C 
HETATM    9  C13 UNL     1      26.012   2.703  51.271  1.00  0.00    -0.007 C 
HETATM   10  C14 UNL     1      26.715   1.565  51.300  1.00  0.00     0.035 C 
HETATM   11  C15 UNL     1      26.250   0.642  52.362  1.00  0.00     0.040 C 
HETATM   12 BR1  UNL     1      27.256  -0.681  53.284  1.00  0.00    -0.049 Br
HETATM   13  C16 UNL     1      24.963   0.726  52.741  1.00  0.00     0.074 C 
HETATM   14  C17 UNL     1      24.702  -0.274  53.775  1.00  0.00     0.149 C 
HETATM   15  N3  UNL     1      23.591  -0.895  54.095  1.00  0.00    -0.252 NA
HETATM   16  C18 UNL     1      22.256  -0.839  53.579  1.00  0.00     0.233 C 
HETATM   17  N4  UNL     1      21.478   0.026  52.995  1.00  0.00    -0.240 NA
ENDROOT
BRANCH   1  18
HETATM   18  N1  UNL     1      21.542   5.483  51.572  1.00  0.00    -0.386 N 
HETATM   19  H6  UNL     1      21.128   6.087  52.347  1.00  0.00     0.160 HD
BRANCH  18  20
HETATM   20  C5  UNL     1      21.886   6.275  50.440  1.00  0.00     0.158 C 
BRANCH  20  21
HETATM   21  C4  UNL     1      23.327   6.529  50.246  1.00  0.00    -0.040 A 
HETATM   22  C3  UNL     1      23.860   5.756  49.217  1.00  0.00     0.011 A 
HETATM   23  C2  UNL     1      25.183   5.787  48.834  1.00  0.00     0.037 A 
HETATM   24  C1  UNL     1      26.063   6.624  49.489  1.00  0.00     0.065 A 
HETATM   25  C20 UNL     1      25.550   7.395  50.510  1.00  0.00     0.037 A 
HETATM   26  C19 UNL     1      24.229   7.351  50.879  1.00  0.00     0.011 A 
BRANCH  24  27
HETATM   27  O1  UNL     1      27.415   6.789  49.246  1.00  0.00    -0.361 OA
HETATM   28  H1  UNL     1      27.841   6.424  48.410  1.00  0.00     0.217 HD
ENDBRANCH  24  27
ENDBRANCH  20  21
ENDBRANCH  18  20
ENDBRANCH   1  18
TORSDOF 4
ENDMDL
