MODEL 1
REMARK VINA RESULT:      -9.4      0.000      0.000
REMARK  7 active torsions:
REMARK  status: ('A' for Active; 'I' for Inactive)
REMARK    1  A    between atoms: C6_6  and  O1_7 
REMARK    2  A    between atoms: C7_8  and  N1_9 
REMARK    3  A    between atoms: N1_9  and  C8_10 
REMARK    4  A    between atoms: N1_9  and  C15_18 
REMARK    5  A    between atoms: C8_10  and  C9_11 
REMARK    6  A    between atoms: C15_18  and  N2_19 
REMARK    7  A    between atoms: C15_18  and  C16_20 
ROOT
HETATM    1  N1  UNL     1      25.850   2.289  51.204  1.00  0.00    -0.341 N 
ENDROOT
BRANCH   1   2
HETATM    2  C7  UNL     1      26.585   1.270  51.876  1.00  0.00     0.067 A 
HETATM    3  C6  UNL     1      27.620   1.770  52.678  1.00  0.00     0.098 A 
HETATM    4  C4  UNL     1      28.439   0.910  53.415  1.00  0.00    -0.026 A 
HETATM    5  C3  UNL     1      28.259  -0.456  53.381  1.00  0.00     0.016 A 
HETATM    6  C5  UNL     1      29.561   1.331  54.296  1.00  0.00     0.051 C 
HETATM    7  C2  UNL     1      27.250  -0.962  52.600  1.00  0.00    -0.059 A 
HETATM    8  C1  UNL     1      26.954  -2.406  52.476  1.00  0.00     0.048 C 
HETATM    9  C23 UNL     1      26.459  -0.100  51.885  1.00  0.00     0.039 A 
BRANCH   3  10
HETATM   10  O1  UNL     1      28.014   3.103  52.888  1.00  0.00    -0.358 OA
HETATM   11  H8  UNL     1      27.645   3.561  53.708  1.00  0.00     0.217 HD
ENDBRANCH   3  10
ENDBRANCH   1   2
BRANCH   1  12
HETATM   12  C8  UNL     1      26.530   2.588  49.959  1.00  0.00     0.164 C 
BRANCH  12  13
HETATM   13  C9  UNL     1      26.509   4.033  49.604  1.00  0.00    -0.040 A 
HETATM   14  C10 UNL     1      25.553   4.987  49.975  1.00  0.00     0.012 A 
HETATM   15  C11 UNL     1      25.696   6.286  49.561  1.00  0.00     0.043 A 
HETATM   16  C12 UNL     1      26.728   6.735  48.794  1.00  0.00     0.116 A 
HETATM   17  F1  UNL     1      26.806   8.035  48.421  1.00  0.00    -0.206 F 
HETATM   18  C13 UNL     1      27.698   5.836  48.400  1.00  0.00     0.043 A 
HETATM   19  C14 UNL     1      27.556   4.529  48.815  1.00  0.00     0.012 A 
ENDBRANCH  12  13
ENDBRANCH   1  12
BRANCH   1  20
HETATM   20  C15 UNL     1      24.621   2.865  51.775  1.00  0.00     0.354 C 
BRANCH  20  21
HETATM   21  N2  UNL     1      24.942   3.329  53.134  1.00  0.00     0.106 N 
HETATM   22  H16 UNL     1      24.998   4.384  53.143  1.00  0.00     0.316 HD
HETATM   23  H17 UNL     1      24.112   3.115  53.725  1.00  0.00     0.316 HD
ENDBRANCH  20  21
BRANCH  20  24
HETATM   24  C16 UNL     1      23.538   1.846  51.899  1.00  0.00    -0.000 A 
HETATM   25  C17 UNL     1      23.293   1.070  53.009  1.00  0.00     0.011 A 
HETATM   26  C18 UNL     1      22.257   0.160  53.049  1.00  0.00     0.001 A 
HETATM   27  C19 UNL     1      21.414  -0.014  51.977  1.00  0.00     0.001 A 
HETATM   28  C20 UNL     1      21.669   0.770  50.871  1.00  0.00     0.007 A 
HETATM   29  C21 UNL     1      22.706   1.703  50.782  1.00  0.00    -0.052 A 
HETATM   30  C22 UNL     1      22.928   2.515  49.566  1.00  0.00     0.049 C 
ENDBRANCH  20  24
ENDBRANCH   1  20
TORSDOF 7
ENDMDL
MODEL 2
REMARK VINA RESULT:      -9.0      2.246      5.663
REMARK  7 active torsions:
REMARK  status: ('A' for Active; 'I' for Inactive)
REMARK    1  A    between atoms: C6_6  and  O1_7 
REMARK    2  A    between atoms: C7_8  and  N1_9 
REMARK    3  A    between atoms: N1_9  and  C8_10 
REMARK    4  A    between atoms: N1_9  and  C15_18 
REMARK    5  A    between atoms: C8_10  and  C9_11 
REMARK    6  A    between atoms: C15_18  and  N2_19 
REMARK    7  A    between atoms: C15_18  and  C16_20 
ROOT
HETATM    1  N1  UNL     1      24.183   0.567  53.253  1.00  0.00    -0.341 N 
ENDROOT
BRANCH   1   2
HETATM    2  C7  UNL     1      22.989   0.508  52.479  1.00  0.00     0.067 A 
HETATM    3  C6  UNL     1      21.858   0.160  53.231  1.00  0.00     0.098 A 
HETATM    4  C4  UNL     1      20.598   0.062  52.632  1.00  0.00    -0.026 A 
HETATM    5  C3  UNL     1      20.423   0.304  51.287  1.00  0.00     0.016 A 
HETATM    6  C5  UNL     1      19.336  -0.297  53.333  1.00  0.00     0.051 C 
HETATM    7  C2  UNL     1      21.521   0.646  50.536  1.00  0.00    -0.059 A 
HETATM    8  C1  UNL     1      21.466   0.928  49.086  1.00  0.00     0.048 C 
HETATM    9  C23 UNL     1      22.746   0.735  51.145  1.00  0.00     0.039 A 
BRANCH   3  10
HETATM   10  O1  UNL     1      21.760  -0.135  54.602  1.00  0.00    -0.358 OA
HETATM   11  H8  UNL     1      22.053  -1.057  54.889  1.00  0.00     0.217 HD
ENDBRANCH   3  10
ENDBRANCH   1   2
BRANCH   1  12
HETATM   12  C8  UNL     1      24.530   1.962  53.441  1.00  0.00     0.164 C 
BRANCH  12  13
HETATM   13  C9  UNL     1      25.086   2.605  52.220  1.00  0.00    -0.040 A 
HETATM   14  C10 UNL     1      26.216   2.214  51.491  1.00  0.00     0.012 A 
HETATM   15  C11 UNL     1      26.582   2.923  50.377  1.00  0.00     0.043 A 
HETATM   16  C12 UNL     1      25.911   4.012  49.908  1.00  0.00     0.116 A 
HETATM   17  F1  UNL     1      26.331   4.666  48.798  1.00  0.00    -0.206 F 
HETATM   18  C13 UNL     1      24.790   4.440  50.589  1.00  0.00     0.043 A 
HETATM   19  C14 UNL     1      24.420   3.728  51.710  1.00  0.00     0.012 A 
ENDBRANCH  12  13
ENDBRANCH   1  12
BRANCH   1  20
HETATM   20  C15 UNL     1      24.862  -0.651  53.726  1.00  0.00     0.354 C 
BRANCH  20  21
HETATM   21  N2  UNL     1      24.340  -0.953  55.069  1.00  0.00     0.106 N 
HETATM   22  H16 UNL     1      24.545  -1.961  55.309  1.00  0.00     0.316 HD
HETATM   23  H17 UNL     1      24.918  -0.410  55.743  1.00  0.00     0.316 HD
ENDBRANCH  20  21
BRANCH  20  24
HETATM   24  C16 UNL     1      26.334  -0.448  53.859  1.00  0.00    -0.000 A 
HETATM   25  C17 UNL     1      26.951   0.343  54.801  1.00  0.00     0.011 A 
HETATM   26  C18 UNL     1      28.324   0.463  54.867  1.00  0.00     0.001 A 
HETATM   27  C19 UNL     1      29.146  -0.208  53.991  1.00  0.00     0.001 A 
HETATM   28  C20 UNL     1      28.515  -0.997  53.053  1.00  0.00     0.007 A 
HETATM   29  C21 UNL     1      27.130  -1.150  52.945  1.00  0.00    -0.052 A 
HETATM   30  C22 UNL     1      26.514  -2.013  51.915  1.00  0.00     0.049 C 
ENDBRANCH  20  24
ENDBRANCH   1  20
TORSDOF 7
ENDMDL
MODEL 3
REMARK VINA RESULT:      -8.9      2.811      5.774
REMARK  7 active torsions:
REMARK  status: ('A' for Active; 'I' for Inactive)
REMARK    1  A    between atoms: C6_6  and  O1_7 
REMARK    2  A    between atoms: C7_8  and  N1_9 
REMARK    3  A    between atoms: N1_9  and  C8_10 
REMARK    4  A    between atoms: N1_9  and  C15_18 
REMARK    5  A    between atoms: C8_10  and  C9_11 
REMARK    6  A    between atoms: C15_18  and  N2_19 
REMARK    7  A    between atoms: C15_18  and  C16_20 
ROOT
HETATM    1  N1  UNL     1      24.530   2.442  52.045  1.00  0.00    -0.341 N 
ENDROOT
BRANCH   1   2
HETATM    2  C7  UNL     1      24.851   3.542  51.197  1.00  0.00     0.067 A 
HETATM    3  C6  UNL     1      23.925   4.592  51.277  1.00  0.00     0.098 A 
HETATM    4  C4  UNL     1      24.088   5.754  50.518  1.00  0.00    -0.026 A 
HETATM    5  C3  UNL     1      25.160   5.909  49.665  1.00  0.00     0.016 A 
HETATM    6  C5  UNL     1      23.171   6.926  50.526  1.00  0.00     0.051 C 
HETATM    7  C2  UNL     1      26.075   4.890  49.575  1.00  0.00    -0.059 A 
HETATM    8  C1  UNL     1      27.266   4.933  48.699  1.00  0.00     0.048 C 
HETATM    9  C23 UNL     1      25.895   3.760  50.330  1.00  0.00     0.039 A 
BRANCH   3  10
HETATM   10  O1  UNL     1      22.759   4.688  52.056  1.00  0.00    -0.358 OA
HETATM   11  H8  UNL     1      22.859   5.093  52.974  1.00  0.00     0.217 HD
ENDBRANCH   3  10
ENDBRANCH   1   2
BRANCH   1  12
HETATM   12  C8  UNL     1      25.113   2.693  53.348  1.00  0.00     0.164 C 
BRANCH  12  13
HETATM   13  C9  UNL     1      26.366   1.928  53.594  1.00  0.00    -0.040 A 
HETATM   14  C10 UNL     1      27.599   2.082  52.948  1.00  0.00     0.012 A 
HETATM   15  C11 UNL     1      28.657   1.290  53.311  1.00  0.00     0.043 A 
HETATM   16  C12 UNL     1      28.602   0.336  54.282  1.00  0.00     0.116 A 
HETATM   17  F1  UNL     1      29.689  -0.412  54.589  1.00  0.00    -0.206 F 
HETATM   18  C13 UNL     1      27.410   0.143  54.950  1.00  0.00     0.043 A 
HETATM   19  C14 UNL     1      26.344   0.939  54.587  1.00  0.00     0.012 A 
ENDBRANCH  12  13
ENDBRANCH   1  12
BRANCH   1  20
HETATM   20  C15 UNL     1      23.733   1.300  51.567  1.00  0.00     0.354 C 
BRANCH  20  21
HETATM   21  N2  UNL     1      22.899   1.780  50.453  1.00  0.00     0.106 N 
HETATM   22  H16 UNL     1      23.368   1.549  49.535  1.00  0.00     0.316 HD
HETATM   23  H17 UNL     1      22.038   1.194  50.451  1.00  0.00     0.316 HD
ENDBRANCH  20  21
BRANCH  20  24
HETATM   24  C16 UNL     1      22.810   0.789  52.622  1.00  0.00    -0.000 A 
HETATM   25  C17 UNL     1      21.617   1.366  52.990  1.00  0.00     0.011 A 
HETATM   26  C18 UNL     1      20.811   0.818  53.966  1.00  0.00     0.001 A 
HETATM   27  C19 UNL     1      21.164  -0.339  54.621  1.00  0.00     0.001 A 
HETATM   28  C20 UNL     1      22.362  -0.907  54.243  1.00  0.00     0.007 A 
HETATM   29  C21 UNL     1      23.212  -0.390  53.261  1.00  0.00    -0.052 A 
HETATM   30  C22 UNL     1      24.486  -1.049  52.901  1.00  0.00     0.049 C 
ENDBRANCH  20  24
ENDBRANCH   1  20
TORSDOF 7
ENDMDL
MODEL 4
REMARK VINA RESULT:      -8.9      2.998      6.388
REMARK  7 active torsions:
REMARK  status: ('A' for Active; 'I' for Inactive)
REMARK    1  A    between atoms: C6_6  and  O1_7 
REMARK    2  A    between atoms: C7_8  and  N1_9 
REMARK    3  A    between atoms: N1_9  and  C8_10 
REMARK    4  A    between atoms: N1_9  and  C15_18 
REMARK    5  A    between atoms: C8_10  and  C9_11 
REMARK    6  A    between atoms: C15_18  and  N2_19 
REMARK    7  A    between atoms: C15_18  and  C16_20 
ROOT
HETATM    1  N1  UNL     1      23.717   3.102  51.123  1.00  0.00    -0.341 N 
ENDROOT
BRANCH   1   2
HETATM    2  C7  UNL     1      24.480   4.181  50.590  1.00  0.00     0.067 A 
HETATM    3  C6  UNL     1      23.954   5.442  50.907  1.00  0.00     0.098 A 
HETATM    4  C4  UNL     1      24.580   6.613  50.471  1.00  0.00    -0.026 A 
HETATM    5  C3  UNL     1      25.732   6.572  49.716  1.00  0.00     0.016 A 
HETATM    6  C5  UNL     1      24.110   7.997  50.750  1.00  0.00     0.051 C 
HETATM    7  C2  UNL     1      26.260   5.345  49.396  1.00  0.00    -0.059 A 
HETATM    8  C1  UNL     1      27.489   5.166  48.593  1.00  0.00     0.048 C 
HETATM    9  C23 UNL     1      25.629   4.210  49.835  1.00  0.00     0.039 A 
BRANCH   3  10
HETATM   10  O1  UNL     1      22.806   5.761  51.652  1.00  0.00    -0.358 OA
HETATM   11  H8  UNL     1      22.104   5.042  51.735  1.00  0.00     0.217 HD
ENDBRANCH   3  10
ENDBRANCH   1   2
BRANCH   1  12
HETATM   12  C8  UNL     1      22.808   2.641  50.092  1.00  0.00     0.164 C 
BRANCH  12  13
HETATM   13  C9  UNL     1      21.574   2.007  50.631  1.00  0.00    -0.040 A 
HETATM   14  C10 UNL     1      21.234   0.648  50.606  1.00  0.00     0.012 A 
HETATM   15  C11 UNL     1      20.051   0.236  51.161  1.00  0.00     0.043 A 
HETATM   16  C12 UNL     1      19.152   1.070  51.754  1.00  0.00     0.116 A 
HETATM   17  F1  UNL     1      18.000   0.592  52.283  1.00  0.00    -0.206 F 
HETATM   18  C13 UNL     1      19.437   2.419  51.806  1.00  0.00     0.043 A 
HETATM   19  C14 UNL     1      20.627   2.836  51.248  1.00  0.00     0.012 A 
ENDBRANCH  12  13
ENDBRANCH   1  12
BRANCH   1  20
HETATM   20  C15 UNL     1      23.909   2.623  52.502  1.00  0.00     0.354 C 
BRANCH  20  21
HETATM   21  N2  UNL     1      24.611   3.683  53.244  1.00  0.00     0.106 N 
HETATM   22  H16 UNL     1      24.018   3.994  54.061  1.00  0.00     0.316 HD
HETATM   23  H17 UNL     1      25.440   3.237  53.688  1.00  0.00     0.316 HD
ENDBRANCH  20  21
BRANCH  20  24
HETATM   24  C16 UNL     1      24.770   1.405  52.550  1.00  0.00    -0.000 A 
HETATM   25  C17 UNL     1      26.046   1.306  52.045  1.00  0.00     0.011 A 
HETATM   26  C18 UNL     1      26.784   0.145  52.146  1.00  0.00     0.001 A 
HETATM   27  C19 UNL     1      26.276  -0.975  52.762  1.00  0.00     0.001 A 
HETATM   28  C20 UNL     1      24.997  -0.863  53.264  1.00  0.00     0.007 A 
HETATM   29  C21 UNL     1      24.211   0.290  53.186  1.00  0.00    -0.052 A 
HETATM   30  C22 UNL     1      22.843   0.345  53.745  1.00  0.00     0.049 C 
ENDBRANCH  20  24
ENDBRANCH   1  20
TORSDOF 7
ENDMDL
MODEL 5
REMARK VINA RESULT:      -8.8      2.786      4.927
REMARK  7 active torsions:
REMARK  status: ('A' for Active; 'I' for Inactive)
REMARK    1  A    between atoms: C6_6  and  O1_7 
REMARK    2  A    between atoms: C7_8  and  N1_9 
REMARK    3  A    between atoms: N1_9  and  C8_10 
REMARK    4  A    between atoms: N1_9  and  C15_18 
REMARK    5  A    between atoms: C8_10  and  C9_11 
REMARK    6  A    between atoms: C15_18  and  N2_19 
REMARK    7  A    between atoms: C15_18  and  C16_20 
ROOT
HETATM    1  N1  UNL     1      25.215   2.225  52.016  1.00  0.00    -0.341 N 
ENDROOT
BRANCH   1   2
HETATM    2  C7  UNL     1      26.098   1.187  52.429  1.00  0.00     0.067 A 
HETATM    3  C6  UNL     1      27.104   1.628  53.302  1.00  0.00     0.098 A 
HETATM    4  C4  UNL     1      28.054   0.740  53.812  1.00  0.00    -0.026 A 
HETATM    5  C3  UNL     1      28.039  -0.597  53.478  1.00  0.00     0.016 A 
HETATM    6  C5  UNL     1      29.159   1.099  54.742  1.00  0.00     0.051 C 
HETATM    7  C2  UNL     1      27.061  -1.046  52.625  1.00  0.00    -0.059 A 
HETATM    8  C1  UNL     1      26.936  -2.453  52.189  1.00  0.00     0.048 C 
HETATM    9  C23 UNL     1      26.139  -0.156  52.137  1.00  0.00     0.039 A 
BRANCH   3  10
HETATM   10  O1  UNL     1      27.344   2.922  53.795  1.00  0.00    -0.358 OA
HETATM   11  H8  UNL     1      28.059   3.460  53.330  1.00  0.00     0.217 HD
ENDBRANCH   3  10
ENDBRANCH   1   2
BRANCH   1  12
HETATM   12  C8  UNL     1      24.205   2.393  53.043  1.00  0.00     0.164 C 
BRANCH  12  13
HETATM   13  C9  UNL     1      22.931   1.684  52.743  1.00  0.00    -0.040 A 
HETATM   14  C10 UNL     1      22.716   0.301  52.698  1.00  0.00     0.012 A 
HETATM   15  C11 UNL     1      21.465  -0.180  52.412  1.00  0.00     0.043 A 
HETATM   16  C12 UNL     1      20.382   0.605  52.160  1.00  0.00     0.116 A 
HETATM   17  F1  UNL     1      19.173   0.060  51.883  1.00  0.00    -0.206 F 
HETATM   18  C13 UNL     1      20.538   1.976  52.192  1.00  0.00     0.043 A 
HETATM   19  C14 UNL     1      21.796   2.463  52.480  1.00  0.00     0.012 A 
ENDBRANCH  12  13
ENDBRANCH   1  12
BRANCH   1  20
HETATM   20  C15 UNL     1      25.398   2.938  50.741  1.00  0.00     0.354 C 
BRANCH  20  21
HETATM   21  N2  UNL     1      26.727   3.569  50.774  1.00  0.00     0.106 N 
HETATM   22  H16 UNL     1      26.890   4.097  49.874  1.00  0.00     0.316 HD
HETATM   23  H17 UNL     1      26.685   4.313  51.500  1.00  0.00     0.316 HD
ENDBRANCH  20  21
BRANCH  20  24
HETATM   24  C16 UNL     1      24.394   4.028  50.567  1.00  0.00    -0.000 A 
HETATM   25  C17 UNL     1      24.422   5.250  51.199  1.00  0.00     0.011 A 
HETATM   26  C18 UNL     1      23.462   6.213  50.969  1.00  0.00     0.001 A 
HETATM   27  C19 UNL     1      22.426   5.998  50.090  1.00  0.00     0.001 A 
HETATM   28  C20 UNL     1      22.410   4.770  49.462  1.00  0.00     0.007 A 
HETATM   29  C21 UNL     1      23.358   3.763  49.663  1.00  0.00    -0.052 A 
HETATM   30  C22 UNL     1      23.285   2.465  48.957  1.00  0.00     0.049 C 
ENDBRANCH  20  24
ENDBRANCH   1  20
TORSDOF 7
ENDMDL
MODEL 6
REMARK VINA RESULT:      -8.7      3.093      6.674
REMARK  7 active torsions:
REMARK  status: ('A' for Active; 'I' for Inactive)
REMARK    1  A    between atoms: C6_6  and  O1_7 
REMARK    2  A    between atoms: C7_8  and  N1_9 
REMARK    3  A    between atoms: N1_9  and  C8_10 
REMARK    4  A    between atoms: N1_9  and  C15_18 
REMARK    5  A    between atoms: C8_10  and  C9_11 
REMARK    6  A    between atoms: C15_18  and  N2_19 
REMARK    7  A    between atoms: C15_18  and  C16_20 
ROOT
HETATM    1  N1  UNL     1      25.123   2.880  51.744  1.00  0.00    -0.341 N 
ENDROOT
BRANCH   1   2
HETATM    2  C7  UNL     1      24.296   3.227  50.637  1.00  0.00     0.067 A 
HETATM    3  C6  UNL     1      24.169   4.612  50.453  1.00  0.00     0.098 A 
HETATM    4  C4  UNL     1      23.398   5.130  49.409  1.00  0.00    -0.026 A 
HETATM    5  C3  UNL     1      22.737   4.304  48.526  1.00  0.00     0.016 A 
HETATM    6  C5  UNL     1      23.197   6.577  49.121  1.00  0.00     0.051 C 
HETATM    7  C2  UNL     1      22.851   2.946  48.693  1.00  0.00    -0.059 A 
HETATM    8  C1  UNL     1      22.192   1.954  47.816  1.00  0.00     0.048 C 
HETATM    9  C23 UNL     1      23.612   2.460  49.724  1.00  0.00     0.039 A 
BRANCH   3  10
HETATM   10  O1  UNL     1      24.730   5.661  51.201  1.00  0.00    -0.358 OA
HETATM   11  H8  UNL     1      25.610   6.031  50.873  1.00  0.00     0.217 HD
ENDBRANCH   3  10
ENDBRANCH   1   2
BRANCH   1  12
HETATM   12  C8  UNL     1      24.292   2.837  52.931  1.00  0.00     0.164 C 
BRANCH  12  13
HETATM   13  C9  UNL     1      23.534   1.564  53.079  1.00  0.00    -0.040 A 
HETATM   14  C10 UNL     1      22.276   1.256  52.548  1.00  0.00     0.012 A 
HETATM   15  C11 UNL     1      21.727   0.022  52.778  1.00  0.00     0.043 A 
HETATM   16  C12 UNL     1      22.329  -0.960  53.505  1.00  0.00     0.116 A 
HETATM   17  F1  UNL     1      21.727  -2.159  53.693  1.00  0.00    -0.206 F 
HETATM   18  C13 UNL     1      23.572  -0.709  54.051  1.00  0.00     0.043 A 
HETATM   19  C14 UNL     1      24.126   0.532  53.821  1.00  0.00     0.012 A 
ENDBRANCH  12  13
ENDBRANCH   1  12
BRANCH   1  20
HETATM   20  C15 UNL     1      26.566   2.630  51.586  1.00  0.00     0.354 C 
BRANCH  20  21
HETATM   21  N2  UNL     1      26.863   2.658  50.145  1.00  0.00     0.106 N 
HETATM   22  H16 UNL     1      27.906   2.737  50.001  1.00  0.00     0.316 HD
HETATM   23  H17 UNL     1      26.628   1.714  49.774  1.00  0.00     0.316 HD
ENDBRANCH  20  21
BRANCH  20  24
HETATM   24  C16 UNL     1      26.952   1.281  52.092  1.00  0.00    -0.000 A 
HETATM   25  C17 UNL     1      26.460   0.082  51.630  1.00  0.00     0.011 A 
HETATM   26  C18 UNL     1      26.884  -1.127  52.142  1.00  0.00     0.001 A 
HETATM   27  C19 UNL     1      27.826  -1.192  53.143  1.00  0.00     0.001 A 
HETATM   28  C20 UNL     1      28.311   0.017  53.596  1.00  0.00     0.007 A 
HETATM   29  C21 UNL     1      27.913   1.265  53.111  1.00  0.00    -0.052 A 
HETATM   30  C22 UNL     1      28.472   2.527  53.641  1.00  0.00     0.049 C 
ENDBRANCH  20  24
ENDBRANCH   1  20
TORSDOF 7
ENDMDL
MODEL 7
REMARK VINA RESULT:      -8.6      2.972      5.785
REMARK  7 active torsions:
REMARK  status: ('A' for Active; 'I' for Inactive)
REMARK    1  A    between atoms: C6_6  and  O1_7 
REMARK    2  A    between atoms: C7_8  and  N1_9 
REMARK    3  A    between atoms: N1_9  and  C8_10 
REMARK    4  A    between atoms: N1_9  and  C15_18 
REMARK    5  A    between atoms: C8_10  and  C9_11 
REMARK    6  A    between atoms: C15_18  and  N2_19 
REMARK    7  A    between atoms: C15_18  and  C16_20 
ROOT
HETATM    1  N1  UNL     1      23.384   4.504  51.241  1.00  0.00    -0.341 N 
ENDROOT
BRANCH   1   2
HETATM    2  C7  UNL     1      24.450   5.185  50.584  1.00  0.00     0.067 A 
HETATM    3  C6  UNL     1      24.369   6.580  50.697  1.00  0.00     0.098 A 
HETATM    4  C4  UNL     1      25.336   7.406  50.117  1.00  0.00    -0.026 A 
HETATM    5  C3  UNL     1      26.400   6.881  49.416  1.00  0.00     0.016 A 
HETATM    6  C5  UNL     1      25.349   8.893  50.176  1.00  0.00     0.051 C 
HETATM    7  C2  UNL     1      26.494   5.517  49.296  1.00  0.00    -0.059 A 
HETATM    8  C1  UNL     1      27.585   4.831  48.570  1.00  0.00     0.048 C 
HETATM    9  C23 UNL     1      25.534   4.726  49.873  1.00  0.00     0.039 A 
BRANCH   3  10
HETATM   10  O1  UNL     1      23.399   7.362  51.347  1.00  0.00    -0.358 OA
HETATM   11  H8  UNL     1      23.021   8.140  50.828  1.00  0.00     0.217 HD
ENDBRANCH   3  10
ENDBRANCH   1   2
BRANCH   1  12
HETATM   12  C8  UNL     1      23.859   4.074  52.541  1.00  0.00     0.164 C 
BRANCH  12  13
HETATM   13  C9  UNL     1      24.438   2.703  52.538  1.00  0.00    -0.040 A 
HETATM   14  C10 UNL     1      25.653   2.293  51.975  1.00  0.00     0.012 A 
HETATM   15  C11 UNL     1      26.037   0.981  52.074  1.00  0.00     0.043 A 
HETATM   16  C12 UNL     1      25.307   0.015  52.697  1.00  0.00     0.116 A 
HETATM   17  F1  UNL     1      25.748  -1.264  52.756  1.00  0.00    -0.206 F 
HETATM   18  C13 UNL     1      24.101   0.365  53.269  1.00  0.00     0.043 A 
HETATM   19  C14 UNL     1      23.713   1.684  53.171  1.00  0.00     0.012 A 
ENDBRANCH  12  13
ENDBRANCH   1  12
BRANCH   1  20
HETATM   20  C15 UNL     1      22.067   4.328  50.606  1.00  0.00     0.354 C 
BRANCH  20  21
HETATM   21  N2  UNL     1      21.156   5.319  51.201  1.00  0.00     0.106 N 
HETATM   22  H16 UNL     1      21.411   5.471  52.215  1.00  0.00     0.316 HD
HETATM   23  H17 UNL     1      21.369   6.231  50.747  1.00  0.00     0.316 HD
ENDBRANCH  20  21
BRANCH  20  24
HETATM   24  C16 UNL     1      21.495   2.978  50.882  1.00  0.00    -0.000 A 
HETATM   25  C17 UNL     1      20.619   2.673  51.899  1.00  0.00     0.011 A 
HETATM   26  C18 UNL     1      20.121   1.399  52.076  1.00  0.00     0.001 A 
HETATM   27  C19 UNL     1      20.478   0.367  51.238  1.00  0.00     0.001 A 
HETATM   28  C20 UNL     1      21.356   0.687  50.224  1.00  0.00     0.007 A 
HETATM   29  C21 UNL     1      21.887   1.960  50.005  1.00  0.00    -0.052 A 
HETATM   30  C22 UNL     1      22.826   2.238  48.897  1.00  0.00     0.049 C 
ENDBRANCH  20  24
ENDBRANCH   1  20
TORSDOF 7
ENDMDL
MODEL 8
REMARK VINA RESULT:      -8.4      2.865      4.845
REMARK  7 active torsions:
REMARK  status: ('A' for Active; 'I' for Inactive)
REMARK    1  A    between atoms: C6_6  and  O1_7 
REMARK    2  A    between atoms: C7_8  and  N1_9 
REMARK    3  A    between atoms: N1_9  and  C8_10 
REMARK    4  A    between atoms: N1_9  and  C15_18 
REMARK    5  A    between atoms: C8_10  and  C9_11 
REMARK    6  A    between atoms: C15_18  and  N2_19 
REMARK    7  A    between atoms: C15_18  and  C16_20 
ROOT
HETATM    1  N1  UNL     1      24.370   3.207  51.581  1.00  0.00    -0.341 N 
ENDROOT
BRANCH   1   2
HETATM    2  C7  UNL     1      24.323   1.992  52.323  1.00  0.00     0.067 A 
HETATM    3  C6  UNL     1      25.451   1.792  53.131  1.00  0.00     0.098 A 
HETATM    4  C4  UNL     1      25.569   0.654  53.934  1.00  0.00    -0.026 A 
HETATM    5  C3  UNL     1      24.584  -0.310  53.960  1.00  0.00     0.016 A 
HETATM    6  C5  UNL     1      26.718   0.343  54.827  1.00  0.00     0.051 C 
HETATM    7  C2  UNL     1      23.473  -0.130  53.174  1.00  0.00    -0.059 A 
HETATM    8  C1  UNL     1      22.348  -1.088  53.112  1.00  0.00     0.048 C 
HETATM    9  C23 UNL     1      23.379   0.995  52.395  1.00  0.00     0.039 A 
BRANCH   3  10
HETATM   10  O1  UNL     1      26.585   2.608  53.289  1.00  0.00    -0.358 OA
HETATM   11  H8  UNL     1      27.273   2.576  52.552  1.00  0.00     0.217 HD
ENDBRANCH   3  10
ENDBRANCH   1   2
BRANCH   1  12
HETATM   12  C8  UNL     1      23.626   4.212  52.315  1.00  0.00     0.164 C 
BRANCH  12  13
HETATM   13  C9  UNL     1      22.288   4.503  51.732  1.00  0.00    -0.040 A 
HETATM   14  C10 UNL     1      21.196   3.632  51.630  1.00  0.00     0.012 A 
HETATM   15  C11 UNL     1      20.027   4.074  51.067  1.00  0.00     0.043 A 
HETATM   16  C12 UNL     1      19.839   5.334  50.585  1.00  0.00     0.116 A 
HETATM   17  F1  UNL     1      18.654   5.703  50.040  1.00  0.00    -0.206 F 
HETATM   18  C13 UNL     1      20.882   6.233  50.661  1.00  0.00     0.043 A 
HETATM   19  C14 UNL     1      22.059   5.790  51.227  1.00  0.00     0.012 A 
ENDBRANCH  12  13
ENDBRANCH   1  12
BRANCH   1  20
HETATM   20  C15 UNL     1      25.085   3.306  50.298  1.00  0.00     0.354 C 
BRANCH  20  21
HETATM   21  N2  UNL     1      26.412   3.879  50.575  1.00  0.00     0.106 N 
HETATM   22  H16 UNL     1      26.886   4.131  49.665  1.00  0.00     0.316 HD
HETATM   23  H17 UNL     1      26.249   4.797  51.038  1.00  0.00     0.316 HD
ENDBRANCH  20  21
BRANCH  20  24
HETATM   24  C16 UNL     1      24.394   4.226  49.348  1.00  0.00    -0.000 A 
HETATM   25  C17 UNL     1      24.731   5.541  49.121  1.00  0.00     0.011 A 
HETATM   26  C18 UNL     1      24.050   6.322  48.210  1.00  0.00     0.001 A 
HETATM   27  C19 UNL     1      22.998   5.820  47.480  1.00  0.00     0.001 A 
HETATM   28  C20 UNL     1      22.671   4.501  47.717  1.00  0.00     0.007 A 
HETATM   29  C21 UNL     1      23.329   3.671  48.629  1.00  0.00    -0.052 A 
HETATM   30  C22 UNL     1      22.929   2.263  48.837  1.00  0.00     0.049 C 
ENDBRANCH  20  24
ENDBRANCH   1  20
TORSDOF 7
ENDMDL
MODEL 9
REMARK VINA RESULT:      -8.4      2.222      3.696
REMARK  7 active torsions:
REMARK  status: ('A' for Active; 'I' for Inactive)
REMARK    1  A    between atoms: C6_6  and  O1_7 
REMARK    2  A    between atoms: C7_8  and  N1_9 
REMARK    3  A    between atoms: N1_9  and  C8_10 
REMARK    4  A    between atoms: N1_9  and  C15_18 
REMARK    5  A    between atoms: C8_10  and  C9_11 
REMARK    6  A    between atoms: C15_18  and  N2_19 
REMARK    7  A    between atoms: C15_18  and  C16_20 
ROOT
HETATM    1  N1  UNL     1      24.426   3.945  50.942  1.00  0.00    -0.341 N 
ENDROOT
BRANCH   1   2
HETATM    2  C7  UNL     1      24.421   2.722  51.672  1.00  0.00     0.067 A 
HETATM    3  C6  UNL     1      25.684   2.369  52.170  1.00  0.00     0.098 A 
HETATM    4  C4  UNL     1      25.861   1.201  52.917  1.00  0.00    -0.026 A 
HETATM    5  C3  UNL     1      24.807   0.356  53.190  1.00  0.00     0.016 A 
HETATM    6  C5  UNL     1      27.152   0.732  53.492  1.00  0.00     0.051 C 
HETATM    7  C2  UNL     1      23.564   0.688  52.709  1.00  0.00    -0.059 A 
HETATM    8  C1  UNL     1      22.354  -0.133  52.931  1.00  0.00     0.048 C 
HETATM    9  C23 UNL     1      23.414   1.838  51.979  1.00  0.00     0.039 A 
BRANCH   3  10
HETATM   10  O1  UNL     1      26.910   3.043  52.037  1.00  0.00    -0.358 OA
HETATM   11  H8  UNL     1      27.656   2.542  51.580  1.00  0.00     0.217 HD
ENDBRANCH   3  10
ENDBRANCH   1   2
BRANCH   1  12
HETATM   12  C8  UNL     1      24.887   3.665  49.596  1.00  0.00     0.164 C 
BRANCH  12  13
HETATM   13  C9  UNL     1      25.843   4.679  49.073  1.00  0.00    -0.040 A 
HETATM   14  C10 UNL     1      25.556   5.983  48.653  1.00  0.00     0.012 A 
HETATM   15  C11 UNL     1      26.570   6.789  48.205  1.00  0.00     0.043 A 
HETATM   16  C12 UNL     1      27.875   6.408  48.134  1.00  0.00     0.116 A 
HETATM   17  F1  UNL     1      28.827   7.259  47.680  1.00  0.00    -0.206 F 
HETATM   18  C13 UNL     1      28.214   5.132  48.537  1.00  0.00     0.043 A 
HETATM   19  C14 UNL     1      27.195   4.320  48.988  1.00  0.00     0.012 A 
ENDBRANCH  12  13
ENDBRANCH   1  12
BRANCH   1  20
HETATM   20  C15 UNL     1      24.011   5.217  51.556  1.00  0.00     0.354 C 
BRANCH  20  21
HETATM   21  N2  UNL     1      23.778   4.961  52.987  1.00  0.00     0.106 N 
HETATM   22  H16 UNL     1      22.791   4.612  53.127  1.00  0.00     0.316 HD
HETATM   23  H17 UNL     1      24.373   4.147  53.244  1.00  0.00     0.316 HD
ENDBRANCH  20  21
BRANCH  20  24
HETATM   24  C16 UNL     1      22.729   5.718  50.981  1.00  0.00    -0.000 A 
HETATM   25  C17 UNL     1      21.604   4.958  50.751  1.00  0.00     0.011 A 
HETATM   26  C18 UNL     1      20.449   5.503  50.231  1.00  0.00     0.001 A 
HETATM   27  C19 UNL     1      20.365   6.840  49.917  1.00  0.00     0.001 A 
HETATM   28  C20 UNL     1      21.498   7.590  50.152  1.00  0.00     0.007 A 
HETATM   29  C21 UNL     1      22.690   7.084  50.676  1.00  0.00    -0.052 A 
HETATM   30  C22 UNL     1      23.873   7.942  50.905  1.00  0.00     0.049 C 
ENDBRANCH  20  24
ENDBRANCH   1  20
TORSDOF 7
ENDMDL
