MODEL 1
REMARK VINA RESULT:      -7.7      0.000      0.000
REMARK  7 active torsions:
REMARK  status: ('A' for Active; 'I' for Inactive)
REMARK    1  A    between atoms: C8_11  and  C9_12 
REMARK    2  A    between atoms: C11_14  and  O2_15 
REMARK    3  A    between atoms: O2_15  and  C12_16 
REMARK    4  A    between atoms: C12_16  and  C13_17 
REMARK    5  A    between atoms: C13_17  and  C14_18 
REMARK    6  A    between atoms: C14_18  and  C15_19 
REMARK    7  A    between atoms: C15_19  and  N3_20 
ROOT
HETATM    1  C1  UNL     1      23.365   6.439  50.747  1.00  0.00     0.050 C 
HETATM    2  C2  UNL     1      23.998   5.302  51.049  1.00  0.00     0.073 C 
HETATM    3  N1  UNL     1      24.737   4.097  51.288  1.00  0.00    -0.299 N 
HETATM    4  C3  UNL     1      24.322   3.375  52.476  1.00  0.00     0.235 C 
HETATM    5  O1  UNL     1      23.091   3.584  52.672  1.00  0.00    -0.272 OA
HETATM    6  C4  UNL     1      24.891   2.500  53.492  1.00  0.00     0.119 C 
HETATM    7  C5  UNL     1      26.438   2.471  53.436  1.00  0.00     0.074 C 
HETATM    8  C6  UNL     1      26.190   1.616  52.201  1.00  0.00     0.042 C 
HETATM    9  N2  UNL     1      26.912   1.783  51.079  1.00  0.00    -0.265 NA
HETATM   10  C7  UNL     1      26.610   2.895  50.125  1.00  0.00     0.142 C 
HETATM   11  C8  UNL     1      25.707   3.903  50.262  1.00  0.00     0.036 C 
HETATM   12  C11 UNL     1      25.124   1.038  53.115  1.00  0.00     0.182 C 
ENDROOT
BRANCH  11  13
HETATM   13  C9  UNL     1      25.797   4.859  49.172  1.00  0.00     0.055 C 
HETATM   14  C10 UNL     1      27.211   5.158  48.736  1.00  0.00     0.011 C 
ENDBRANCH  11  13
BRANCH  12  15
HETATM   15  O2  UNL     1      25.669   0.408  54.217  1.00  0.00    -0.376 OA
BRANCH  15  16
HETATM   16  C12 UNL     1      25.052  -0.842  54.418  1.00  0.00     0.196 C 
BRANCH  16  17
HETATM   17  C13 UNL     1      23.582  -0.663  54.209  1.00  0.00    -0.003 C 
BRANCH  17  18
HETATM   18  C14 UNL     1      22.337  -1.055  54.161  1.00  0.00     0.001 C 
BRANCH  18  19
HETATM   19  C15 UNL     1      20.990  -1.564  54.164  1.00  0.00     0.299 C 
BRANCH  19  20
HETATM   20  N3  UNL     1      20.145  -0.695  53.254  1.00  0.00     0.096 NA
HETATM   21  C16 UNL     1      18.878  -1.316  53.381  1.00  0.00     0.299 C 
HETATM   22  C17 UNL     1      17.632  -0.753  52.834  1.00  0.00     0.198 C 
HETATM   23  O3  UNL     1      17.339  -0.478  51.654  1.00  0.00    -0.387 OA
HETATM   24  C18 UNL     1      17.046  -0.223  50.463  1.00  0.00     0.193 C 
HETATM   25  C19 UNL     1      16.755   1.353  50.417  1.00  0.00     0.193 C 
HETATM   26  O4  UNL     1      17.894   1.933  50.825  1.00  0.00    -0.387 OA
HETATM   27  C20 UNL     1      18.092   3.226  51.072  1.00  0.00     0.193 C 
HETATM   28  C21 UNL     1      19.500   3.560  51.552  1.00  0.00     0.193 C 
HETATM   29  O5  UNL     1      19.868   2.900  52.726  1.00  0.00    -0.387 OA
HETATM   30  C22 UNL     1      19.923   1.543  52.550  1.00  0.00     0.198 C 
HETATM   31  C23 UNL     1      20.248   0.675  53.754  1.00  0.00     0.299 C 
ENDBRANCH  19  20
ENDBRANCH  18  19
ENDBRANCH  17  18
ENDBRANCH  16  17
ENDBRANCH  15  16
ENDBRANCH  12  15
TORSDOF 7
ENDMDL
MODEL 2
REMARK VINA RESULT:      -7.6      3.856      7.471
REMARK  7 active torsions:
REMARK  status: ('A' for Active; 'I' for Inactive)
REMARK    1  A    between atoms: C8_11  and  C9_12 
REMARK    2  A    between atoms: C11_14  and  O2_15 
REMARK    3  A    between atoms: O2_15  and  C12_16 
REMARK    4  A    between atoms: C12_16  and  C13_17 
REMARK    5  A    between atoms: C13_17  and  C14_18 
REMARK    6  A    between atoms: C14_18  and  C15_19 
REMARK    7  A    between atoms: C15_19  and  N3_20 
ROOT
HETATM    1  C1  UNL     1      30.206   5.629  47.536  1.00  0.00     0.050 C 
HETATM    2  C2  UNL     1      29.030   5.895  48.111  1.00  0.00     0.073 C 
HETATM    3  N1  UNL     1      27.796   6.284  48.728  1.00  0.00    -0.299 N 
HETATM    4  C3  UNL     1      26.896   5.178  48.997  1.00  0.00     0.235 C 
HETATM    5  O1  UNL     1      27.581   4.138  49.214  1.00  0.00    -0.272 OA
HETATM    6  C4  UNL     1      25.466   4.914  49.087  1.00  0.00     0.119 C 
HETATM    7  C5  UNL     1      24.621   6.091  48.543  1.00  0.00     0.074 C 
HETATM    8  C6  UNL     1      25.035   6.748  49.853  1.00  0.00     0.042 C 
HETATM    9  N2  UNL     1      25.412   8.038  49.899  1.00  0.00    -0.265 NA
HETATM   10  C7  UNL     1      26.787   8.456  49.485  1.00  0.00     0.142 C 
HETATM   11  C8  UNL     1      27.773   7.693  48.939  1.00  0.00     0.036 C 
HETATM   12  C11 UNL     1      24.747   5.348  50.364  1.00  0.00     0.182 C 
ENDROOT
BRANCH  11  13
HETATM   13  C9  UNL     1      28.925   8.492  48.560  1.00  0.00     0.055 C 
HETATM   14  C10 UNL     1      29.095   9.749  49.379  1.00  0.00     0.011 C 
ENDBRANCH  11  13
BRANCH  12  15
HETATM   15  O2  UNL     1      23.416   5.006  50.224  1.00  0.00    -0.376 OA
BRANCH  15  16
HETATM   16  C12 UNL     1      22.769   5.051  51.474  1.00  0.00     0.196 C 
BRANCH  16  17
HETATM   17  C13 UNL     1      22.829   3.679  52.068  1.00  0.00    -0.003 C 
BRANCH  17  18
HETATM   18  C14 UNL     1      23.114   2.405  52.076  1.00  0.00     0.001 C 
BRANCH  18  19
HETATM   19  C15 UNL     1      23.465   1.011  51.995  1.00  0.00     0.299 C 
BRANCH  19  20
HETATM   20  N3  UNL     1      24.921   0.857  52.388  1.00  0.00     0.096 NA
HETATM   21  C16 UNL     1      25.051   1.878  53.362  1.00  0.00     0.299 C 
HETATM   22  C17 UNL     1      26.242   2.052  54.212  1.00  0.00     0.198 C 
HETATM   23  O3  UNL     1      27.425   2.263  53.884  1.00  0.00    -0.387 OA
HETATM   24  C18 UNL     1      28.608   2.495  53.544  1.00  0.00     0.193 C 
HETATM   25  C19 UNL     1      29.466   1.258  54.094  1.00  0.00     0.193 C 
HETATM   26  O4  UNL     1      28.942   0.174  53.501  1.00  0.00    -0.387 OA
HETATM   27  C20 UNL     1      29.243  -1.099  53.746  1.00  0.00     0.193 C 
HETATM   28  C21 UNL     1      28.443  -2.098  52.919  1.00  0.00     0.193 C 
HETATM   29  O5  UNL     1      27.062  -2.005  53.101  1.00  0.00    -0.387 OA
HETATM   30  C22 UNL     1      26.573  -0.799  52.673  1.00  0.00     0.198 C 
HETATM   31  C23 UNL     1      25.092  -0.515  52.862  1.00  0.00     0.299 C 
ENDBRANCH  19  20
ENDBRANCH  18  19
ENDBRANCH  17  18
ENDBRANCH  16  17
ENDBRANCH  15  16
ENDBRANCH  12  15
TORSDOF 7
ENDMDL
MODEL 3
REMARK VINA RESULT:      -7.6      2.375      5.554
REMARK  7 active torsions:
REMARK  status: ('A' for Active; 'I' for Inactive)
REMARK    1  A    between atoms: C8_11  and  C9_12 
REMARK    2  A    between atoms: C11_14  and  O2_15 
REMARK    3  A    between atoms: O2_15  and  C12_16 
REMARK    4  A    between atoms: C12_16  and  C13_17 
REMARK    5  A    between atoms: C13_17  and  C14_18 
REMARK    6  A    between atoms: C14_18  and  C15_19 
REMARK    7  A    between atoms: C15_19  and  N3_20 
ROOT
HETATM    1  C1  UNL     1      25.495   1.737  51.556  1.00  0.00     0.050 C 
HETATM    2  C2  UNL     1      24.569   1.039  52.220  1.00  0.00     0.073 C 
HETATM    3  N1  UNL     1      23.655   0.252  52.994  1.00  0.00    -0.299 N 
HETATM    4  C3  UNL     1      22.270   0.381  52.580  1.00  0.00     0.235 C 
HETATM    5  O1  UNL     1      22.234   0.619  51.339  1.00  0.00    -0.272 OA
HETATM    6  C4  UNL     1      20.934   0.320  53.159  1.00  0.00     0.119 C 
HETATM    7  C5  UNL     1      20.968   0.321  54.706  1.00  0.00     0.074 C 
HETATM    8  C6  UNL     1      21.434  -1.115  54.510  1.00  0.00     0.042 C 
HETATM    9  N2  UNL     1      22.432  -1.633  55.247  1.00  0.00    -0.265 NA
HETATM   10  C7  UNL     1      23.862  -1.336  54.927  1.00  0.00     0.142 C 
HETATM   11  C8  UNL     1      24.359  -0.486  53.989  1.00  0.00     0.036 C 
HETATM   12  C11 UNL     1      20.352  -1.063  53.446  1.00  0.00     0.182 C 
ENDROOT
BRANCH  11  13
HETATM   13  C9  UNL     1      25.805  -0.380  54.068  1.00  0.00     0.055 C 
HETATM   14  C10 UNL     1      26.305   0.233  55.354  1.00  0.00     0.011 C 
ENDBRANCH  11  13
BRANCH  12  15
HETATM   15  O2  UNL     1      19.095  -0.877  53.991  1.00  0.00    -0.376 OA
BRANCH  15  16
HETATM   16  C12 UNL     1      18.127  -1.551  53.221  1.00  0.00     0.196 C 
BRANCH  16  17
HETATM   17  C13 UNL     1      17.464  -0.541  52.338  1.00  0.00    -0.003 C 
BRANCH  17  18
HETATM   18  C14 UNL     1      17.368   0.599  51.709  1.00  0.00     0.001 C 
BRANCH  18  19
HETATM   19  C15 UNL     1      17.353   1.876  51.045  1.00  0.00     0.299 C 
BRANCH  19  20
HETATM   20  N3  UNL     1      18.775   2.236  50.661  1.00  0.00     0.096 NA
HETATM   21  C16 UNL     1      18.686   2.233  49.247  1.00  0.00     0.299 C 
HETATM   22  C17 UNL     1      19.763   2.703  48.358  1.00  0.00     0.198 C 
HETATM   23  O3  UNL     1      20.935   2.294  48.250  1.00  0.00    -0.387 OA
HETATM   24  C18 UNL     1      22.105   1.862  48.134  1.00  0.00     0.193 C 
HETATM   25  C19 UNL     1      23.059   3.095  48.508  1.00  0.00     0.193 C 
HETATM   26  O4  UNL     1      22.732   3.425  49.766  1.00  0.00    -0.387 OA
HETATM   27  C20 UNL     1      23.169   4.473  50.461  1.00  0.00     0.193 C 
HETATM   28  C21 UNL     1      22.579   4.582  51.862  1.00  0.00     0.193 C 
HETATM   29  O5  UNL     1      21.187   4.679  51.884  1.00  0.00    -0.387 OA
HETATM   30  C22 UNL     1      20.590   3.548  51.392  1.00  0.00     0.198 C 
HETATM   31  C23 UNL     1      19.075   3.521  51.289  1.00  0.00     0.299 C 
ENDBRANCH  19  20
ENDBRANCH  18  19
ENDBRANCH  17  18
ENDBRANCH  16  17
ENDBRANCH  15  16
ENDBRANCH  12  15
TORSDOF 7
ENDMDL
MODEL 4
REMARK VINA RESULT:      -7.6      2.394      5.678
REMARK  7 active torsions:
REMARK  status: ('A' for Active; 'I' for Inactive)
REMARK    1  A    between atoms: C8_11  and  C9_12 
REMARK    2  A    between atoms: C11_14  and  O2_15 
REMARK    3  A    between atoms: O2_15  and  C12_16 
REMARK    4  A    between atoms: C12_16  and  C13_17 
REMARK    5  A    between atoms: C13_17  and  C14_18 
REMARK    6  A    between atoms: C14_18  and  C15_19 
REMARK    7  A    between atoms: C15_19  and  N3_20 
ROOT
HETATM    1  C1  UNL     1      25.805   1.640  51.709  1.00  0.00     0.050 C 
HETATM    2  C2  UNL     1      24.805   0.997  52.319  1.00  0.00     0.073 C 
HETATM    3  N1  UNL     1      23.805   0.266  53.039  1.00  0.00    -0.299 N 
HETATM    4  C3  UNL     1      22.455   0.476  52.552  1.00  0.00     0.235 C 
HETATM    5  O1  UNL     1      22.501   0.717  51.311  1.00  0.00    -0.272 OA
HETATM    6  C4  UNL     1      21.088   0.494  53.057  1.00  0.00     0.119 C 
HETATM    7  C5  UNL     1      21.038   0.493  54.604  1.00  0.00     0.074 C 
HETATM    8  C6  UNL     1      21.428  -0.969  54.428  1.00  0.00     0.042 C 
HETATM    9  N2  UNL     1      22.353  -1.545  55.215  1.00  0.00    -0.265 NA
HETATM   10  C7  UNL     1      23.813  -1.333  54.975  1.00  0.00     0.142 C 
HETATM   11  C8  UNL     1      24.409  -0.513  54.068  1.00  0.00     0.036 C 
HETATM   12  C11 UNL     1      20.410  -0.852  53.307  1.00  0.00     0.182 C 
ENDROOT
BRANCH  11  13
HETATM   13  C9  UNL     1      25.853  -0.493  54.226  1.00  0.00     0.055 C 
HETATM   14  C10 UNL     1      26.315   0.029  55.565  1.00  0.00     0.011 C 
ENDBRANCH  11  13
BRANCH  12  15
HETATM   15  O2  UNL     1      19.139  -0.592  53.784  1.00  0.00    -0.376 OA
BRANCH  15  16
HETATM   16  C12 UNL     1      18.204  -1.441  53.161  1.00  0.00     0.196 C 
BRANCH  16  17
HETATM   17  C13 UNL     1      17.506  -0.651  52.101  1.00  0.00    -0.003 C 
BRANCH  17  18
HETATM   18  C14 UNL     1      17.294   0.400  51.354  1.00  0.00     0.001 C 
BRANCH  18  19
HETATM   19  C15 UNL     1      17.029   1.604  50.612  1.00  0.00     0.299 C 
BRANCH  19  20
HETATM   20  N3  UNL     1      18.351   2.271  50.286  1.00  0.00     0.096 NA
HETATM   21  C16 UNL     1      18.659   2.886  51.525  1.00  0.00     0.299 C 
HETATM   22  C17 UNL     1      19.951   3.530  51.820  1.00  0.00     0.198 C 
HETATM   23  O3  UNL     1      20.509   4.485  51.247  1.00  0.00    -0.387 OA
HETATM   24  C18 UNL     1      21.052   5.459  50.677  1.00  0.00     0.193 C 
HETATM   25  C19 UNL     1      22.445   4.905  50.108  1.00  0.00     0.193 C 
HETATM   26  O4  UNL     1      22.113   3.911  49.270  1.00  0.00    -0.387 OA
HETATM   27  C20 UNL     1      22.940   3.068  48.657  1.00  0.00     0.193 C 
HETATM   28  C21 UNL     1      22.240   2.028  47.790  1.00  0.00     0.193 C 
HETATM   29  O5  UNL     1      21.342   1.220  48.490  1.00  0.00    -0.387 OA
HETATM   30  C22 UNL     1      20.295   1.944  48.997  1.00  0.00     0.198 C 
HETATM   31  C23 UNL     1      19.262   1.218  49.841  1.00  0.00     0.299 C 
ENDBRANCH  19  20
ENDBRANCH  18  19
ENDBRANCH  17  18
ENDBRANCH  16  17
ENDBRANCH  15  16
ENDBRANCH  12  15
TORSDOF 7
ENDMDL
MODEL 5
REMARK VINA RESULT:      -7.3      3.410      7.113
REMARK  7 active torsions:
REMARK  status: ('A' for Active; 'I' for Inactive)
REMARK    1  A    between atoms: C8_11  and  C9_12 
REMARK    2  A    between atoms: C11_14  and  O2_15 
REMARK    3  A    between atoms: O2_15  and  C12_16 
REMARK    4  A    between atoms: C12_16  and  C13_17 
REMARK    5  A    between atoms: C13_17  and  C14_18 
REMARK    6  A    between atoms: C14_18  and  C15_19 
REMARK    7  A    between atoms: C15_19  and  N3_20 
ROOT
HETATM    1  C1  UNL     1      30.064   2.165  54.932  1.00  0.00     0.050 C 
HETATM    2  C2  UNL     1      29.020   1.483  54.452  1.00  0.00     0.073 C 
HETATM    3  N1  UNL     1      27.969   0.676  53.906  1.00  0.00    -0.299 N 
HETATM    4  C3  UNL     1      26.644   1.245  54.067  1.00  0.00     0.235 C 
HETATM    5  O1  UNL     1      26.738   2.506  54.065  1.00  0.00    -0.272 OA
HETATM    6  C4  UNL     1      25.265   0.805  54.228  1.00  0.00     0.119 C 
HETATM    7  C5  UNL     1      25.167  -0.711  54.523  1.00  0.00     0.074 C 
HETATM    8  C6  UNL     1      25.502  -0.830  53.042  1.00  0.00     0.042 C 
HETATM    9  N2  UNL     1      26.377  -1.747  52.594  1.00  0.00    -0.265 NA
HETATM   10  C7  UNL     1      27.852  -1.527  52.706  1.00  0.00     0.142 C 
HETATM   11  C8  UNL     1      28.508  -0.504  53.317  1.00  0.00     0.036 C 
HETATM   12  C11 UNL     1      24.525   0.330  52.978  1.00  0.00     0.182 C 
ENDROOT
BRANCH  11  13
HETATM   13  C9  UNL     1      29.947  -0.710  53.317  1.00  0.00     0.055 C 
HETATM   14  C10 UNL     1      30.383  -1.981  54.004  1.00  0.00     0.011 C 
ENDBRANCH  11  13
BRANCH  12  15
HETATM   15  O2  UNL     1      23.251  -0.040  53.368  1.00  0.00    -0.376 OA
BRANCH  15  16
HETATM   16  C12 UNL     1      22.292   0.566  52.533  1.00  0.00     0.196 C 
BRANCH  16  17
HETATM   17  C13 UNL     1      22.521   2.044  52.574  1.00  0.00    -0.003 C 
BRANCH  17  18
HETATM   18  C14 UNL     1      22.378   3.275  52.162  1.00  0.00     0.001 C 
BRANCH  18  19
HETATM   19  C15 UNL     1      22.132   4.631  51.749  1.00  0.00     0.299 C 
BRANCH  19  20
HETATM   20  N3  UNL     1      23.389   5.172  51.095  1.00  0.00     0.096 NA
HETATM   21  C16 UNL     1      23.534   4.281  50.003  1.00  0.00     0.299 C 
HETATM   22  C17 UNL     1      24.515   4.467  48.920  1.00  0.00     0.198 C 
HETATM   23  O3  UNL     1      25.757   4.540  48.980  1.00  0.00    -0.387 OA
HETATM   24  C18 UNL     1      27.007   4.590  49.050  1.00  0.00     0.193 C 
HETATM   25  C19 UNL     1      27.412   6.037  48.489  1.00  0.00     0.193 C 
HETATM   26  O4  UNL     1      26.795   6.913  49.295  1.00  0.00    -0.387 OA
HETATM   27  C20 UNL     1      26.732   8.234  49.147  1.00  0.00     0.193 C 
HETATM   28  C21 UNL     1      25.924   8.945  50.226  1.00  0.00     0.193 C 
HETATM   29  O5  UNL     1      24.597   8.519  50.312  1.00  0.00    -0.387 OA
HETATM   30  C22 UNL     1      24.507   7.204  50.684  1.00  0.00     0.198 C 
HETATM   31  C23 UNL     1      23.129   6.571  50.761  1.00  0.00     0.299 C 
ENDBRANCH  19  20
ENDBRANCH  18  19
ENDBRANCH  17  18
ENDBRANCH  16  17
ENDBRANCH  15  16
ENDBRANCH  12  15
TORSDOF 7
ENDMDL
MODEL 6
REMARK VINA RESULT:      -7.2      4.012     10.095
REMARK  7 active torsions:
REMARK  status: ('A' for Active; 'I' for Inactive)
REMARK    1  A    between atoms: C8_11  and  C9_12 
REMARK    2  A    between atoms: C11_14  and  O2_15 
REMARK    3  A    between atoms: O2_15  and  C12_16 
REMARK    4  A    between atoms: C12_16  and  C13_17 
REMARK    5  A    between atoms: C13_17  and  C14_18 
REMARK    6  A    between atoms: C14_18  and  C15_19 
REMARK    7  A    between atoms: C15_19  and  N3_20 
ROOT
HETATM    1  C1  UNL     1      26.157  -0.743  53.049  1.00  0.00     0.050 C 
HETATM    2  C2  UNL     1      25.267   0.205  52.742  1.00  0.00     0.073 C 
HETATM    3  N1  UNL     1      24.238   1.160  52.455  1.00  0.00    -0.299 N 
HETATM    4  C3  UNL     1      24.718   2.372  51.819  1.00  0.00     0.235 C 
HETATM    5  O1  UNL     1      25.736   2.093  51.123  1.00  0.00    -0.272 OA
HETATM    6  C4  UNL     1      24.383   3.788  51.745  1.00  0.00     0.119 C 
HETATM    7  C5  UNL     1      23.333   4.195  52.807  1.00  0.00     0.074 C 
HETATM    8  C6  UNL     1      22.380   3.464  51.871  1.00  0.00     0.042 C 
HETATM    9  N2  UNL     1      21.425   2.644  52.345  1.00  0.00    -0.265 NA
HETATM   10  C7  UNL     1      21.749   1.251  52.780  1.00  0.00     0.142 C 
HETATM   11  C8  UNL     1      22.970   0.656  52.865  1.00  0.00     0.036 C 
HETATM   12  C11 UNL     1      23.222   4.193  50.839  1.00  0.00     0.182 C 
ENDROOT
BRANCH  11  13
HETATM   13  C9  UNL     1      22.883  -0.672  53.449  1.00  0.00     0.055 C 
HETATM   14  C10 UNL     1      21.955  -0.758  54.637  1.00  0.00     0.011 C 
ENDBRANCH  11  13
BRANCH  12  15
HETATM   15  O2  UNL     1      23.084   5.565  50.932  1.00  0.00    -0.376 OA
BRANCH  15  16
HETATM   16  C12 UNL     1      22.802   6.113  49.665  1.00  0.00     0.196 C 
BRANCH  16  17
HETATM   17  C13 UNL     1      24.091   6.598  49.081  1.00  0.00    -0.003 C 
BRANCH  17  18
HETATM   18  C14 UNL     1      24.833   7.217  48.202  1.00  0.00     0.001 C 
BRANCH  18  19
HETATM   19  C15 UNL     1      25.645   7.818  47.177  1.00  0.00     0.299 C 
BRANCH  19  20
HETATM   20  N3  UNL     1      27.086   7.830  47.649  1.00  0.00     0.096 NA
HETATM   21  C16 UNL     1      27.029   8.806  48.676  1.00  0.00     0.299 C 
HETATM   22  C17 UNL     1      28.140   9.085  49.602  1.00  0.00     0.198 C 
HETATM   23  O3  UNL     1      29.301   9.463  49.355  1.00  0.00    -0.387 OA
HETATM   24  C18 UNL     1      30.460   9.863  49.098  1.00  0.00     0.193 C 
HETATM   25  C19 UNL     1      31.442   8.717  49.640  1.00  0.00     0.193 C 
HETATM   26  O4  UNL     1      31.096   7.609  48.968  1.00  0.00    -0.387 OA
HETATM   27  C20 UNL     1      31.548   6.374  49.170  1.00  0.00     0.193 C 
HETATM   28  C21 UNL     1      30.930   5.326  48.252  1.00  0.00     0.193 C 
HETATM   29  O5  UNL     1      29.542   5.232  48.355  1.00  0.00    -0.387 OA
HETATM   30  C22 UNL     1      28.922   6.387  47.955  1.00  0.00     0.198 C 
HETATM   31  C23 UNL     1      27.410   6.468  48.068  1.00  0.00     0.299 C 
ENDBRANCH  19  20
ENDBRANCH  18  19
ENDBRANCH  17  18
ENDBRANCH  16  17
ENDBRANCH  15  16
ENDBRANCH  12  15
TORSDOF 7
ENDMDL
MODEL 7
REMARK VINA RESULT:      -7.1      4.697     10.940
REMARK  7 active torsions:
REMARK  status: ('A' for Active; 'I' for Inactive)
REMARK    1  A    between atoms: C8_11  and  C9_12 
REMARK    2  A    between atoms: C11_14  and  O2_15 
REMARK    3  A    between atoms: O2_15  and  C12_16 
REMARK    4  A    between atoms: C12_16  and  C13_17 
REMARK    5  A    between atoms: C13_17  and  C14_18 
REMARK    6  A    between atoms: C14_18  and  C15_19 
REMARK    7  A    between atoms: C15_19  and  N3_20 
ROOT
HETATM    1  C1  UNL     1      23.092  -1.605  55.499  1.00  0.00     0.050 C 
HETATM    2  C2  UNL     1      23.207  -0.710  54.514  1.00  0.00     0.073 C 
HETATM    3  N1  UNL     1      23.224   0.245  53.446  1.00  0.00    -0.299 N 
HETATM    4  C3  UNL     1      24.548   0.743  53.121  1.00  0.00     0.235 C 
HETATM    5  O1  UNL     1      25.397  -0.160  53.371  1.00  0.00    -0.272 OA
HETATM    6  C4  UNL     1      25.178   1.951  52.604  1.00  0.00     0.119 C 
HETATM    7  C5  UNL     1      24.200   3.150  52.570  1.00  0.00     0.074 C 
HETATM    8  C6  UNL     1      23.622   2.403  51.375  1.00  0.00     0.042 C 
HETATM    9  N2  UNL     1      22.294   2.293  51.195  1.00  0.00    -0.265 NA
HETATM   10  C7  UNL     1      21.491   1.289  51.958  1.00  0.00     0.142 C 
HETATM   11  C8  UNL     1      21.905   0.458  52.953  1.00  0.00     0.036 C 
HETATM   12  C11 UNL     1      25.101   2.198  51.098  1.00  0.00     0.182 C 
ENDROOT
BRANCH  11  13
HETATM   13  C9  UNL     1      20.797  -0.285  53.530  1.00  0.00     0.055 C 
HETATM   14  C10 UNL     1      19.494  -0.114  52.788  1.00  0.00     0.011 C 
ENDBRANCH  11  13
BRANCH  12  15
HETATM   15  O2  UNL     1      25.752   3.389  50.841  1.00  0.00    -0.376 OA
BRANCH  15  16
HETATM   16  C12 UNL     1      25.801   3.627  49.453  1.00  0.00     0.196 C 
BRANCH  16  17
HETATM   17  C13 UNL     1      26.749   4.760  49.219  1.00  0.00    -0.003 C 
BRANCH  17  18
HETATM   18  C14 UNL     1      27.226   5.789  48.572  1.00  0.00     0.001 C 
BRANCH  18  19
HETATM   19  C15 UNL     1      27.686   6.905  47.787  1.00  0.00     0.299 C 
BRANCH  19  20
HETATM   20  N3  UNL     1      29.202   6.925  47.822  1.00  0.00     0.096 NA
HETATM   21  C16 UNL     1      29.443   8.102  48.575  1.00  0.00     0.299 C 
HETATM   22  C17 UNL     1      30.773   8.501  49.066  1.00  0.00     0.198 C 
HETATM   23  O3  UNL     1      31.814   8.741  48.426  1.00  0.00    -0.387 OA
HETATM   24  C18 UNL     1      32.850   8.999  47.771  1.00  0.00     0.193 C 
HETATM   25  C19 UNL     1      33.947   7.937  48.261  1.00  0.00     0.193 C 
HETATM   26  O4  UNL     1      33.422   6.735  47.981  1.00  0.00    -0.387 OA
HETATM   27  C20 UNL     1      33.913   5.545  48.323  1.00  0.00     0.193 C 
HETATM   28  C21 UNL     1      33.057   4.366  47.875  1.00  0.00     0.193 C 
HETATM   29  O5  UNL     1      31.757   4.388  48.381  1.00  0.00    -0.387 OA
HETATM   30  C22 UNL     1      31.049   5.466  47.920  1.00  0.00     0.198 C 
HETATM   31  C23 UNL     1      29.633   5.668  48.430  1.00  0.00     0.299 C 
ENDBRANCH  19  20
ENDBRANCH  18  19
ENDBRANCH  17  18
ENDBRANCH  16  17
ENDBRANCH  15  16
ENDBRANCH  12  15
TORSDOF 7
ENDMDL
MODEL 8
REMARK VINA RESULT:      -7.0      5.429      9.652
REMARK  7 active torsions:
REMARK  status: ('A' for Active; 'I' for Inactive)
REMARK    1  A    between atoms: C8_11  and  C9_12 
REMARK    2  A    between atoms: C11_14  and  O2_15 
REMARK    3  A    between atoms: O2_15  and  C12_16 
REMARK    4  A    between atoms: C12_16  and  C13_17 
REMARK    5  A    between atoms: C13_17  and  C14_18 
REMARK    6  A    between atoms: C14_18  and  C15_19 
REMARK    7  A    between atoms: C15_19  and  N3_20 
ROOT
HETATM    1  C1  UNL     1      33.561   5.268  43.630  1.00  0.00     0.050 C 
HETATM    2  C2  UNL     1      33.068   5.570  44.834  1.00  0.00     0.073 C 
HETATM    3  N1  UNL     1      32.556   5.794  46.154  1.00  0.00    -0.299 N 
HETATM    4  C3  UNL     1      32.133   7.160  46.399  1.00  0.00     0.235 C 
HETATM    5  O1  UNL     1      31.731   7.665  45.312  1.00  0.00    -0.272 OA
HETATM    6  C4  UNL     1      32.039   8.105  47.504  1.00  0.00     0.119 C 
HETATM    7  C5  UNL     1      32.790   7.608  48.763  1.00  0.00     0.074 C 
HETATM    8  C6  UNL     1      31.595   6.671  48.876  1.00  0.00     0.042 C 
HETATM    9  N2  UNL     1      31.750   5.377  49.204  1.00  0.00    -0.265 NA
HETATM   10  C7  UNL     1      32.191   4.370  48.190  1.00  0.00     0.142 C 
HETATM   11  C8  UNL     1      32.578   4.582  46.903  1.00  0.00     0.036 C 
HETATM   12  C11 UNL     1      30.869   7.943  48.474  1.00  0.00     0.182 C 
ENDROOT
BRANCH  11  13
HETATM   13  C9  UNL     1      33.053   3.361  46.274  1.00  0.00     0.055 C 
HETATM   14  C10 UNL     1      32.359   2.113  46.761  1.00  0.00     0.011 C 
ENDBRANCH  11  13
BRANCH  12  15
HETATM   15  O2  UNL     1      30.986   8.933  49.431  1.00  0.00    -0.376 OA
BRANCH  15  16
HETATM   16  C12 UNL     1      29.995   9.915  49.238  1.00  0.00     0.196 C 
BRANCH  16  17
HETATM   17  C13 UNL     1      28.669   9.289  49.534  1.00  0.00    -0.003 C 
BRANCH  17  18
HETATM   18  C14 UNL     1      27.371   9.278  49.673  1.00  0.00     0.001 C 
BRANCH  18  19
HETATM   19  C15 UNL     1      25.951   9.202  49.900  1.00  0.00     0.299 C 
BRANCH  19  20
HETATM   20  N3  UNL     1      25.599   7.776  50.276  1.00  0.00     0.096 NA
HETATM   21  C16 UNL     1      24.216   7.901  50.557  1.00  0.00     0.299 C 
HETATM   22  C17 UNL     1      23.324   6.754  50.802  1.00  0.00     0.198 C 
HETATM   23  O3  UNL     1      23.389   5.875  51.684  1.00  0.00    -0.387 OA
HETATM   24  C18 UNL     1      23.451   5.009  52.586  1.00  0.00     0.193 C 
HETATM   25  C19 UNL     1      23.616   3.606  51.827  1.00  0.00     0.193 C 
HETATM   26  O4  UNL     1      24.748   3.721  51.116  1.00  0.00    -0.387 OA
HETATM   27  C20 UNL     1      25.229   2.856  50.227  1.00  0.00     0.193 C 
HETATM   28  C21 UNL     1      26.529   3.298  49.567  1.00  0.00     0.193 C 
HETATM   29  O5  UNL     1      26.432   4.512  48.885  1.00  0.00    -0.387 OA
HETATM   30  C22 UNL     1      26.156   5.552  49.733  1.00  0.00     0.198 C 
HETATM   31  C23 UNL     1      25.955   6.934  49.135  1.00  0.00     0.299 C 
ENDBRANCH  19  20
ENDBRANCH  18  19
ENDBRANCH  17  18
ENDBRANCH  16  17
ENDBRANCH  15  16
ENDBRANCH  12  15
TORSDOF 7
ENDMDL
MODEL 9
REMARK VINA RESULT:      -7.0      3.794      6.066
REMARK  7 active torsions:
REMARK  status: ('A' for Active; 'I' for Inactive)
REMARK    1  A    between atoms: C8_11  and  C9_12 
REMARK    2  A    between atoms: C11_14  and  O2_15 
REMARK    3  A    between atoms: O2_15  and  C12_16 
REMARK    4  A    between atoms: C12_16  and  C13_17 
REMARK    5  A    between atoms: C13_17  and  C14_18 
REMARK    6  A    between atoms: C14_18  and  C15_19 
REMARK    7  A    between atoms: C15_19  and  N3_20 
ROOT
HETATM    1  C1  UNL     1      25.153   2.272  51.582  1.00  0.00     0.050 C 
HETATM    2  C2  UNL     1      24.272   1.486  52.206  1.00  0.00     0.073 C 
HETATM    3  N1  UNL     1      23.408   0.597  52.926  1.00  0.00    -0.299 N 
HETATM    4  C3  UNL     1      22.000   0.766  52.620  1.00  0.00     0.235 C 
HETATM    5  O1  UNL     1      21.886   1.163  51.426  1.00  0.00    -0.272 OA
HETATM    6  C4  UNL     1      20.704   0.618  53.268  1.00  0.00     0.119 C 
HETATM    7  C5  UNL     1      20.835   0.420  54.798  1.00  0.00     0.074 C 
HETATM    8  C6  UNL     1      21.288  -0.975  54.388  1.00  0.00     0.042 C 
HETATM    9  N2  UNL     1      22.332  -1.576  54.987  1.00  0.00    -0.265 NA
HETATM   10  C7  UNL     1      23.739  -1.227  54.620  1.00  0.00     0.142 C 
HETATM   11  C8  UNL     1      24.174  -0.257  53.771  1.00  0.00     0.036 C 
HETATM   12  C11 UNL     1      20.141  -0.795  53.410  1.00  0.00     0.182 C 
ENDROOT
BRANCH  11  13
HETATM   13  C9  UNL     1      25.623  -0.150  53.773  1.00  0.00     0.055 C 
HETATM   14  C10 UNL     1      26.202   0.289  55.096  1.00  0.00     0.011 C 
ENDBRANCH  11  13
BRANCH  12  15
HETATM   15  O2  UNL     1      18.922  -0.693  54.051  1.00  0.00    -0.376 OA
BRANCH  15  16
HETATM   16  C12 UNL     1      17.972  -1.523  53.425  1.00  0.00     0.196 C 
BRANCH  16  17
HETATM   17  C13 UNL     1      17.459  -0.802  52.220  1.00  0.00    -0.003 C 
BRANCH  17  18
HETATM   18  C14 UNL     1      16.541  -0.255  51.469  1.00  0.00     0.001 C 
BRANCH  18  19
HETATM   19  C15 UNL     1      15.500   0.258  50.618  1.00  0.00     0.299 C 
BRANCH  19  20
HETATM   20  N3  UNL     1      14.403   0.834  51.492  1.00  0.00     0.096 NA
HETATM   21  C16 UNL     1      14.010  -0.311  52.227  1.00  0.00     0.299 C 
HETATM   22  C17 UNL     1      13.079  -0.271  53.369  1.00  0.00     0.198 C 
HETATM   23  O3  UNL     1      11.897   0.120  53.413  1.00  0.00    -0.387 OA
HETATM   24  C18 UNL     1      10.703   0.496  53.443  1.00  0.00     0.193 C 
HETATM   25  C19 UNL     1      10.660   1.717  54.482  1.00  0.00     0.193 C 
HETATM   26  O4  UNL     1      11.499   2.636  53.981  1.00  0.00    -0.387 OA
HETATM   27  C20 UNL     1      11.890   3.768  54.561  1.00  0.00     0.193 C 
HETATM   28  C21 UNL     1      12.878   4.583  53.736  1.00  0.00     0.193 C 
HETATM   29  O5  UNL     1      14.057   3.900  53.430  1.00  0.00    -0.387 OA
HETATM   30  C22 UNL     1      13.822   2.812  52.631  1.00  0.00     0.198 C 
HETATM   31  C23 UNL     1      14.998   1.925  52.261  1.00  0.00     0.299 C 
ENDBRANCH  19  20
ENDBRANCH  18  19
ENDBRANCH  17  18
ENDBRANCH  16  17
ENDBRANCH  15  16
ENDBRANCH  12  15
TORSDOF 7
ENDMDL
