MODEL 1
REMARK VINA RESULT:      -9.9      0.000      0.000
REMARK  6 active torsions:
REMARK  status: ('A' for Active; 'I' for Inactive)
REMARK    1  A    between atoms: C2_2  and  C15_16 
REMARK    2  A    between atoms: C3_3  and  C4_4 
REMARK    3  A    between atoms: C8_8  and  C9_9 
REMARK    4  A    between atoms: C16_18  and  C17_19 
REMARK    5  A    between atoms: C19_21  and  O1_23 
REMARK    6  A    between atoms: C24_29  and  N5_30 
ROOT
HETATM    1  C15 UNL     1      28.873   6.024  48.330  1.00  0.00     0.096 A 
HETATM    2  N2  UNL     1      29.618   5.027  47.806  1.00  0.00    -0.232 NA
HETATM    3  C16 UNL     1      30.922   5.446  47.717  1.00  0.00     0.116 A 
HETATM    4  N3  UNL     1      31.026   6.694  48.176  1.00  0.00    -0.303 N 
HETATM    5  C22 UNL     1      32.018   7.583  48.336  1.00  0.00     0.118 A 
HETATM    6  C23 UNL     1      31.752   8.843  48.879  1.00  0.00     0.136 A 
HETATM    7  N4  UNL     1      30.475   9.132  49.236  1.00  0.00    -0.240 NA
HETATM    8  C24 UNL     1      29.511   8.225  49.064  1.00  0.00     0.150 A 
HETATM    9  C25 UNL     1      29.790   7.017  48.538  1.00  0.00     0.115 A 
ENDROOT
BRANCH   1  10
HETATM   10  C2  UNL     1      27.458   5.780  48.516  1.00  0.00    -0.031 C 
HETATM   11  C1  UNL     1      26.222   6.545  48.283  1.00  0.00     0.050 C 
HETATM   12  C3  UNL     1      27.219   4.553  49.006  1.00  0.00     0.011 C 
BRANCH  12  13
HETATM   13  C4  UNL     1      25.946   3.978  49.297  1.00  0.00     0.032 C 
HETATM   14  C5  UNL     1      25.796   3.168  50.326  1.00  0.00     0.057 A 
HETATM   15  C6  UNL     1      26.931   2.824  51.210  1.00  0.00     0.034 A 
HETATM   16  N1  UNL     1      24.759   2.434  50.921  1.00  0.00    -0.248 NA
HETATM   17  C7  UNL     1      26.544   1.990  52.183  1.00  0.00     0.035 A 
HETATM   18  C8  UNL     1      25.138   1.769  51.953  1.00  0.00     0.067 A 
BRANCH  18  19
HETATM   19  C9  UNL     1      24.216   0.934  52.729  1.00  0.00    -0.007 A 
HETATM   20  C10 UNL     1      22.863   1.193  52.646  1.00  0.00     0.014 A 
HETATM   21  C11 UNL     1      21.923   0.463  53.336  1.00  0.00     0.001 A 
HETATM   22  C12 UNL     1      22.350  -0.581  54.151  1.00  0.00     0.000 A 
HETATM   23  C13 UNL     1      23.698  -0.823  54.220  1.00  0.00     0.001 A 
HETATM   24  C14 UNL     1      24.640  -0.098  53.534  1.00  0.00     0.014 A 
ENDBRANCH  18  19
ENDBRANCH  12  13
ENDBRANCH   1  10
BRANCH   3  25
HETATM   25  C17 UNL     1      32.000   4.604  47.188  1.00  0.00     0.061 C 
HETATM   26  C18 UNL     1      31.668   3.229  46.750  1.00  0.00     0.049 C 
HETATM   27  C19 UNL     1      32.996   2.789  47.338  1.00  0.00     0.056 C 
HETATM   28  C20 UNL     1      32.985   1.539  48.149  1.00  0.00     0.045 C 
HETATM   29  C21 UNL     1      33.037   4.082  48.111  1.00  0.00     0.049 C 
BRANCH  27  30
HETATM   30  O1  UNL     1      34.027   2.701  46.375  1.00  0.00    -0.390 OA
HETATM   31  H19 UNL     1      33.979   1.827  45.942  1.00  0.00     0.210 HD
ENDBRANCH  27  30
ENDBRANCH   3  25
BRANCH   8  32
HETATM   32  N5  UNL     1      28.241   8.653  49.494  1.00  0.00    -0.382 N 
HETATM   33  H24 UNL     1      28.401   9.679  49.713  1.00  0.00     0.157 HD
HETATM   34  H25 UNL     1      27.719   7.732  49.392  1.00  0.00     0.157 HD
ENDBRANCH   8  32
TORSDOF 6
ENDMDL
MODEL 2
REMARK VINA RESULT:      -9.6      3.451      9.541
REMARK  6 active torsions:
REMARK  status: ('A' for Active; 'I' for Inactive)
REMARK    1  A    between atoms: C2_2  and  C15_16 
REMARK    2  A    between atoms: C3_3  and  C4_4 
REMARK    3  A    between atoms: C8_8  and  C9_9 
REMARK    4  A    between atoms: C16_18  and  C17_19 
REMARK    5  A    between atoms: C19_21  and  O1_23 
REMARK    6  A    between atoms: C24_29  and  N5_30 
ROOT
HETATM    1  C15 UNL     1      23.526   2.204  52.514  1.00  0.00     0.096 A 
HETATM    2  N2  UNL     1      24.721   1.575  52.552  1.00  0.00    -0.232 NA
HETATM    3  C16 UNL     1      24.525   0.270  52.928  1.00  0.00     0.116 A 
HETATM    4  N3  UNL     1      23.226   0.050  53.131  1.00  0.00    -0.303 N 
HETATM    5  C22 UNL     1      22.470  -0.999  53.492  1.00  0.00     0.118 A 
HETATM    6  C23 UNL     1      21.084  -0.861  53.599  1.00  0.00     0.136 A 
HETATM    7  N4  UNL     1      20.534   0.350  53.330  1.00  0.00    -0.240 NA
HETATM    8  C24 UNL     1      21.314   1.374  52.974  1.00  0.00     0.150 A 
HETATM    9  C25 UNL     1      22.649   1.219  52.877  1.00  0.00     0.115 A 
ENDROOT
BRANCH   1  10
HETATM   10  C2  UNL     1      23.511   3.599  52.129  1.00  0.00    -0.031 C 
HETATM   11  C1  UNL     1      22.949   4.837  52.693  1.00  0.00     0.050 C 
HETATM   12  C3  UNL     1      24.188   3.813  50.989  1.00  0.00     0.011 C 
BRANCH  12  13
HETATM   13  C4  UNL     1      24.385   5.064  50.331  1.00  0.00     0.032 C 
HETATM   14  C5  UNL     1      25.487   5.293  49.645  1.00  0.00     0.057 A 
HETATM   15  C6  UNL     1      26.553   4.274  49.532  1.00  0.00     0.034 A 
HETATM   16  N1  UNL     1      26.035   6.341  48.890  1.00  0.00    -0.248 NA
HETATM   17  C7  UNL     1      27.572   4.726  48.790  1.00  0.00     0.035 A 
HETATM   18  C8  UNL     1      27.190   6.060  48.401  1.00  0.00     0.067 A 
BRANCH  18  19
HETATM   19  C9  UNL     1      27.944   7.012  47.578  1.00  0.00    -0.007 A 
HETATM   20  C10 UNL     1      29.303   6.826  47.431  1.00  0.00     0.014 A 
HETATM   21  C11 UNL     1      30.091   7.666  46.680  1.00  0.00     0.001 A 
HETATM   22  C12 UNL     1      29.497   8.750  46.038  1.00  0.00     0.000 A 
HETATM   23  C13 UNL     1      28.145   8.918  46.196  1.00  0.00     0.001 A 
HETATM   24  C14 UNL     1      27.354   8.082  46.944  1.00  0.00     0.014 A 
ENDBRANCH  18  19
ENDBRANCH  12  13
ENDBRANCH   1  10
BRANCH   3  25
HETATM   25  C17 UNL     1      25.620  -0.696  53.068  1.00  0.00     0.061 C 
HETATM   26  C18 UNL     1      26.538  -0.556  54.221  1.00  0.00     0.049 C 
HETATM   27  C19 UNL     1      27.667  -0.955  53.289  1.00  0.00     0.056 C 
HETATM   28  C20 UNL     1      28.921  -0.154  53.379  1.00  0.00     0.045 C 
HETATM   29  C21 UNL     1      26.763  -0.644  52.125  1.00  0.00     0.049 C 
BRANCH  27  30
HETATM   30  O1  UNL     1      27.994  -2.327  53.370  1.00  0.00    -0.390 OA
HETATM   31  H19 UNL     1      27.253  -2.804  53.791  1.00  0.00     0.210 HD
ENDBRANCH  27  30
ENDBRANCH   3  25
BRANCH   8  32
HETATM   32  N5  UNL     1      20.611   2.563  52.708  1.00  0.00    -0.382 N 
HETATM   33  H24 UNL     1      21.089   2.928  51.835  1.00  0.00     0.157 HD
HETATM   34  H25 UNL     1      19.926   2.528  53.521  1.00  0.00     0.157 HD
ENDBRANCH   8  32
TORSDOF 6
ENDMDL
MODEL 3
REMARK VINA RESULT:      -9.1      1.743      2.086
REMARK  6 active torsions:
REMARK  status: ('A' for Active; 'I' for Inactive)
REMARK    1  A    between atoms: C2_2  and  C15_16 
REMARK    2  A    between atoms: C3_3  and  C4_4 
REMARK    3  A    between atoms: C8_8  and  C9_9 
REMARK    4  A    between atoms: C16_18  and  C17_19 
REMARK    5  A    between atoms: C19_21  and  O1_23 
REMARK    6  A    between atoms: C24_29  and  N5_30 
ROOT
HETATM    1  C15 UNL     1      29.364   6.451  47.958  1.00  0.00     0.096 A 
HETATM    2  N2  UNL     1      30.194   5.571  48.558  1.00  0.00    -0.232 NA
HETATM    3  C16 UNL     1      31.396   5.572  47.896  1.00  0.00     0.116 A 
HETATM    4  N3  UNL     1      31.352   6.438  46.883  1.00  0.00    -0.303 N 
HETATM    5  C22 UNL     1      32.201   6.853  45.931  1.00  0.00     0.118 A 
HETATM    6  C23 UNL     1      31.801   7.821  45.006  1.00  0.00     0.136 A 
HETATM    7  N4  UNL     1      30.543   8.320  45.100  1.00  0.00    -0.240 NA
HETATM    8  C24 UNL     1      29.722   7.886  46.060  1.00  0.00     0.150 A 
HETATM    9  C25 UNL     1      30.129   6.951  46.941  1.00  0.00     0.115 A 
ENDROOT
BRANCH   1  10
HETATM   10  C2  UNL     1      28.036   6.608  48.513  1.00  0.00    -0.031 C 
HETATM   11  C1  UNL     1      27.248   7.731  49.048  1.00  0.00     0.050 C 
HETATM   12  C3  UNL     1      27.357   5.450  48.526  1.00  0.00     0.011 C 
BRANCH  12  13
HETATM   13  C4  UNL     1      26.023   5.243  48.990  1.00  0.00     0.032 C 
HETATM   14  C5  UNL     1      25.715   4.165  49.685  1.00  0.00     0.057 A 
HETATM   15  C6  UNL     1      26.729   3.138  50.006  1.00  0.00     0.034 A 
HETATM   16  N1  UNL     1      24.575   3.619  50.293  1.00  0.00    -0.248 NA
HETATM   17  C7  UNL     1      26.189   2.139  50.718  1.00  0.00     0.035 A 
HETATM   18  C8  UNL     1      24.802   2.496  50.875  1.00  0.00     0.067 A 
BRANCH  18  19
HETATM   19  C9  UNL     1      23.751   1.751  51.575  1.00  0.00    -0.007 A 
HETATM   20  C10 UNL     1      22.586   1.459  50.897  1.00  0.00     0.014 A 
HETATM   21  C11 UNL     1      21.546   0.765  51.470  1.00  0.00     0.001 A 
HETATM   22  C12 UNL     1      21.670   0.337  52.789  1.00  0.00     0.000 A 
HETATM   23  C13 UNL     1      22.836   0.637  53.447  1.00  0.00     0.001 A 
HETATM   24  C14 UNL     1      23.877   1.329  52.880  1.00  0.00     0.014 A 
ENDBRANCH  18  19
ENDBRANCH  12  13
ENDBRANCH   1  10
BRANCH   3  25
HETATM   25  C17 UNL     1      32.528   4.725  48.289  1.00  0.00     0.061 C 
HETATM   26  C18 UNL     1      33.897   5.185  47.963  1.00  0.00     0.049 C 
HETATM   27  C19 UNL     1      34.240   3.740  47.653  1.00  0.00     0.056 C 
HETATM   28  C20 UNL     1      35.027   3.493  46.411  1.00  0.00     0.045 C 
HETATM   29  C21 UNL     1      32.764   3.448  47.574  1.00  0.00     0.049 C 
BRANCH  27  30
HETATM   30  O1  UNL     1      34.867   3.076  48.731  1.00  0.00    -0.390 OA
HETATM   31  H19 UNL     1      34.266   2.385  49.069  1.00  0.00     0.210 HD
ENDBRANCH  27  30
ENDBRANCH   3  25
BRANCH   8  32
HETATM   32  N5  UNL     1      28.457   8.501  46.051  1.00  0.00    -0.382 N 
HETATM   33  H24 UNL     1      28.583   9.287  45.349  1.00  0.00     0.157 HD
HETATM   34  H25 UNL     1      27.970   7.878  46.761  1.00  0.00     0.157 HD
ENDBRANCH   8  32
TORSDOF 6
ENDMDL
MODEL 4
REMARK VINA RESULT:      -9.1      4.285     11.052
REMARK  6 active torsions:
REMARK  status: ('A' for Active; 'I' for Inactive)
REMARK    1  A    between atoms: C2_2  and  C15_16 
REMARK    2  A    between atoms: C3_3  and  C4_4 
REMARK    3  A    between atoms: C8_8  and  C9_9 
REMARK    4  A    between atoms: C16_18  and  C17_19 
REMARK    5  A    between atoms: C19_21  and  O1_23 
REMARK    6  A    between atoms: C24_29  and  N5_30 
ROOT
HETATM    1  C15 UNL     1      22.743   1.551  52.791  1.00  0.00     0.096 A 
HETATM    2  N2  UNL     1      21.735   2.275  52.257  1.00  0.00    -0.232 NA
HETATM    3  C16 UNL     1      20.553   1.609  52.462  1.00  0.00     0.116 A 
HETATM    4  N3  UNL     1      20.785   0.472  53.119  1.00  0.00    -0.303 N 
HETATM    5  C22 UNL     1      20.040  -0.543  53.583  1.00  0.00     0.118 A 
HETATM    6  C23 UNL     1      20.644  -1.606  54.259  1.00  0.00     0.136 A 
HETATM    7  N4  UNL     1      21.990  -1.579  54.429  1.00  0.00    -0.240 NA
HETATM    8  C24 UNL     1      22.703  -0.555  53.954  1.00  0.00     0.150 A 
HETATM    9  C25 UNL     1      22.099   0.460  53.305  1.00  0.00     0.115 A 
ENDROOT
BRANCH   1  10
HETATM   10  C2  UNL     1      24.084   2.087  52.688  1.00  0.00    -0.031 C 
HETATM   11  C1  UNL     1      25.011   2.780  53.599  1.00  0.00     0.050 C 
HETATM   12  C3  UNL     1      24.612   1.889  51.469  1.00  0.00     0.011 C 
BRANCH  12  13
HETATM   13  C4  UNL     1      25.912   2.275  51.025  1.00  0.00     0.032 C 
HETATM   14  C5  UNL     1      26.073   3.349  50.276  1.00  0.00     0.057 A 
HETATM   15  C6  UNL     1      24.924   4.187  49.871  1.00  0.00     0.034 A 
HETATM   16  N1  UNL     1      27.135   4.033  49.666  1.00  0.00    -0.248 NA
HETATM   17  C7  UNL     1      25.326   5.219  49.119  1.00  0.00     0.035 A 
HETATM   18  C8  UNL     1      26.756   5.075  49.015  1.00  0.00     0.067 A 
BRANCH  18  19
HETATM   19  C9  UNL     1      27.702   5.938  48.301  1.00  0.00    -0.007 A 
HETATM   20  C10 UNL     1      29.026   5.557  48.241  1.00  0.00     0.014 A 
HETATM   21  C11 UNL     1      29.986   6.301  47.594  1.00  0.00     0.001 A 
HETATM   22  C12 UNL     1      29.608   7.488  46.971  1.00  0.00     0.000 A 
HETATM   23  C13 UNL     1      28.287   7.850  47.042  1.00  0.00     0.001 A 
HETATM   24  C14 UNL     1      27.326   7.111  47.686  1.00  0.00     0.014 A 
ENDBRANCH  18  19
ENDBRANCH  12  13
ENDBRANCH   1  10
BRANCH   3  25
HETATM   25  C17 UNL     1      19.256   2.120  52.005  1.00  0.00     0.061 C 
HETATM   26  C18 UNL     1      18.614   1.469  50.840  1.00  0.00     0.049 C 
HETATM   27  C19 UNL     1      18.165   2.849  50.398  1.00  0.00     0.056 C 
HETATM   28  C20 UNL     1      18.330   3.172  48.952  1.00  0.00     0.045 C 
HETATM   29  C21 UNL     1      19.190   3.439  51.332  1.00  0.00     0.049 C 
BRANCH  27  30
HETATM   30  O1  UNL     1      16.840   3.151  50.786  1.00  0.00    -0.390 OA
HETATM   31  H19 UNL     1      16.274   3.168  49.990  1.00  0.00     0.210 HD
ENDBRANCH  27  30
ENDBRANCH   3  25
BRANCH   8  32
HETATM   32  N5  UNL     1      24.082  -0.649  54.217  1.00  0.00    -0.382 N 
HETATM   33  H24 UNL     1      24.427   0.334  54.015  1.00  0.00     0.157 HD
HETATM   34  H25 UNL     1      24.122  -1.674  54.496  1.00  0.00     0.157 HD
ENDBRANCH   8  32
TORSDOF 6
ENDMDL
MODEL 5
REMARK VINA RESULT:      -8.8      6.036      9.629
REMARK  6 active torsions:
REMARK  status: ('A' for Active; 'I' for Inactive)
REMARK    1  A    between atoms: C2_2  and  C15_16 
REMARK    2  A    between atoms: C3_3  and  C4_4 
REMARK    3  A    between atoms: C8_8  and  C9_9 
REMARK    4  A    between atoms: C16_18  and  C17_19 
REMARK    5  A    between atoms: C19_21  and  O1_23 
REMARK    6  A    between atoms: C24_29  and  N5_30 
ROOT
HETATM    1  C15 UNL     1      23.347   2.040  52.494  1.00  0.00     0.096 A 
HETATM    2  N2  UNL     1      24.615   1.573  52.521  1.00  0.00    -0.232 NA
HETATM    3  C16 UNL     1      24.621   0.340  53.125  1.00  0.00     0.116 A 
HETATM    4  N3  UNL     1      23.381   0.008  53.485  1.00  0.00    -0.303 N 
HETATM    5  C22 UNL     1      22.799  -1.042  54.084  1.00  0.00     0.118 A 
HETATM    6  C23 UNL     1      21.419  -1.052  54.299  1.00  0.00     0.136 A 
HETATM    7  N4  UNL     1      20.695   0.020  53.886  1.00  0.00    -0.240 NA
HETATM    8  C24 UNL     1      21.305   1.049  53.293  1.00  0.00     0.150 A 
HETATM    9  C25 UNL     1      22.638   1.038  53.097  1.00  0.00     0.115 A 
ENDROOT
BRANCH   1  10
HETATM   10  C2  UNL     1      23.120   3.334  51.886  1.00  0.00    -0.031 C 
HETATM   11  C1  UNL     1      22.695   4.659  52.367  1.00  0.00     0.050 C 
HETATM   12  C3  UNL     1      23.372   3.321  50.567  1.00  0.00     0.011 C 
BRANCH  12  13
HETATM   13  C4  UNL     1      23.265   4.420  49.663  1.00  0.00     0.032 C 
HETATM   14  C5  UNL     1      22.783   4.244  48.448  1.00  0.00     0.057 A 
HETATM   15  C6  UNL     1      22.341   2.912  47.979  1.00  0.00     0.034 A 
HETATM   16  N1  UNL     1      22.526   5.029  47.314  1.00  0.00    -0.248 NA
HETATM   17  C7  UNL     1      21.890   2.975  46.719  1.00  0.00     0.035 A 
HETATM   18  C8  UNL     1      22.030   4.357  46.337  1.00  0.00     0.067 A 
BRANCH  18  19
HETATM   19  C9  UNL     1      21.686   4.980  45.055  1.00  0.00    -0.007 A 
HETATM   20  C10 UNL     1      20.935   4.258  44.151  1.00  0.00     0.014 A 
HETATM   21  C11 UNL     1      20.564   4.758  42.925  1.00  0.00     0.001 A 
HETATM   22  C12 UNL     1      20.959   6.048  42.579  1.00  0.00     0.000 A 
HETATM   23  C13 UNL     1      21.704   6.750  43.490  1.00  0.00     0.001 A 
HETATM   24  C14 UNL     1      22.078   6.255  44.715  1.00  0.00     0.014 A 
ENDBRANCH  18  19
ENDBRANCH  12  13
ENDBRANCH   1  10
BRANCH   3  25
HETATM   25  C17 UNL     1      25.842  -0.450  53.318  1.00  0.00     0.061 C 
HETATM   26  C18 UNL     1      26.721  -0.118  54.462  1.00  0.00     0.049 C 
HETATM   27  C19 UNL     1      27.903  -0.400  53.554  1.00  0.00     0.056 C 
HETATM   28  C20 UNL     1      29.029   0.575  53.601  1.00  0.00     0.045 C 
HETATM   29  C21 UNL     1      26.973  -0.286  52.374  1.00  0.00     0.049 C 
BRANCH  27  30
HETATM   30  O1  UNL     1      28.422  -1.706  53.710  1.00  0.00    -0.390 OA
HETATM   31  H19 UNL     1      28.645  -1.846  54.651  1.00  0.00     0.210 HD
ENDBRANCH  27  30
ENDBRANCH   3  25
BRANCH   8  32
HETATM   32  N5  UNL     1      20.432   2.081  52.902  1.00  0.00    -0.382 N 
HETATM   33  H24 UNL     1      19.883   1.637  52.111  1.00  0.00     0.157 HD
HETATM   34  H25 UNL     1      20.744   2.825  53.595  1.00  0.00     0.157 HD
ENDBRANCH   8  32
TORSDOF 6
ENDMDL
MODEL 6
REMARK VINA RESULT:      -8.6      5.212      8.323
REMARK  6 active torsions:
REMARK  status: ('A' for Active; 'I' for Inactive)
REMARK    1  A    between atoms: C2_2  and  C15_16 
REMARK    2  A    between atoms: C3_3  and  C4_4 
REMARK    3  A    between atoms: C8_8  and  C9_9 
REMARK    4  A    between atoms: C16_18  and  C17_19 
REMARK    5  A    between atoms: C19_21  and  O1_23 
REMARK    6  A    between atoms: C24_29  and  N5_30 
ROOT
HETATM    1  C15 UNL     1      24.689   0.947  53.059  1.00  0.00     0.096 A 
HETATM    2  N2  UNL     1      24.532   1.825  52.044  1.00  0.00    -0.232 NA
HETATM    3  C16 UNL     1      25.714   2.495  51.850  1.00  0.00     0.116 A 
HETATM    4  N3  UNL     1      26.626   2.062  52.721  1.00  0.00    -0.303 N 
HETATM    5  C22 UNL     1      27.913   2.336  52.988  1.00  0.00     0.118 A 
HETATM    6  C23 UNL     1      28.580   1.652  54.007  1.00  0.00     0.136 A 
HETATM    7  N4  UNL     1      27.895   0.715  54.709  1.00  0.00    -0.240 NA
HETATM    8  C24 UNL     1      26.615   0.465  54.419  1.00  0.00     0.150 A 
HETATM    9  C25 UNL     1      25.991   1.137  53.432  1.00  0.00     0.115 A 
ENDROOT
BRANCH   1  10
HETATM   10  C2  UNL     1      23.552   0.128  53.422  1.00  0.00    -0.031 C 
HETATM   11  C1  UNL     1      23.349  -1.282  53.793  1.00  0.00     0.050 C 
HETATM   12  C3  UNL     1      22.409   0.834  53.437  1.00  0.00     0.011 C 
BRANCH  12  13
HETATM   13  C4  UNL     1      21.107   0.350  53.761  1.00  0.00     0.032 C 
HETATM   14  C5  UNL     1      20.188   0.216  52.824  1.00  0.00     0.057 A 
HETATM   15  C6  UNL     1      20.469   0.561  51.413  1.00  0.00     0.034 A 
HETATM   16  N1  UNL     1      18.854  -0.207  52.738  1.00  0.00    -0.248 NA
HETATM   17  C7  UNL     1      19.394   0.344  50.645  1.00  0.00     0.035 A 
HETATM   18  C8  UNL     1      18.382  -0.149  51.544  1.00  0.00     0.067 A 
BRANCH  18  19
HETATM   19  C9  UNL     1      17.006  -0.545  51.226  1.00  0.00    -0.007 A 
HETATM   20  C10 UNL     1      16.264  -1.187  52.196  1.00  0.00     0.014 A 
HETATM   21  C11 UNL     1      14.967  -1.596  51.990  1.00  0.00     0.001 A 
HETATM   22  C12 UNL     1      14.374  -1.352  50.754  1.00  0.00     0.000 A 
HETATM   23  C13 UNL     1      15.128  -0.712  49.803  1.00  0.00     0.001 A 
HETATM   24  C14 UNL     1      16.422  -0.303  50.003  1.00  0.00     0.014 A 
ENDBRANCH  18  19
ENDBRANCH  12  13
ENDBRANCH   1  10
BRANCH   3  25
HETATM   25  C17 UNL     1      25.891   3.525  50.820  1.00  0.00     0.061 C 
HETATM   26  C18 UNL     1      24.972   4.685  50.821  1.00  0.00     0.049 C 
HETATM   27  C19 UNL     1      24.985   4.615  49.305  1.00  0.00     0.056 C 
HETATM   28  C20 UNL     1      23.668   4.750  48.620  1.00  0.00     0.045 C 
HETATM   29  C21 UNL     1      25.536   3.217  49.414  1.00  0.00     0.049 C 
BRANCH  27  30
HETATM   30  O1  UNL     1      25.902   5.515  48.716  1.00  0.00    -0.390 OA
HETATM   31  H19 UNL     1      26.758   5.442  49.181  1.00  0.00     0.210 HD
ENDBRANCH  27  30
ENDBRANCH   3  25
BRANCH   8  32
HETATM   32  N5  UNL     1      26.035  -0.541  55.213  1.00  0.00    -0.382 N 
HETATM   33  H24 UNL     1      25.050  -0.179  55.369  1.00  0.00     0.157 HD
HETATM   34  H25 UNL     1      26.872  -1.194  55.280  1.00  0.00     0.157 HD
ENDBRANCH   8  32
TORSDOF 6
ENDMDL
MODEL 7
REMARK VINA RESULT:      -8.5      1.675      2.371
REMARK  6 active torsions:
REMARK  status: ('A' for Active; 'I' for Inactive)
REMARK    1  A    between atoms: C2_2  and  C15_16 
REMARK    2  A    between atoms: C3_3  and  C4_4 
REMARK    3  A    between atoms: C8_8  and  C9_9 
REMARK    4  A    between atoms: C16_18  and  C17_19 
REMARK    5  A    between atoms: C19_21  and  O1_23 
REMARK    6  A    between atoms: C24_29  and  N5_30 
ROOT
HETATM    1  C15 UNL     1      28.335   7.720  47.982  1.00  0.00     0.096 A 
HETATM    2  N2  UNL     1      29.223   6.713  47.833  1.00  0.00    -0.232 NA
HETATM    3  C16 UNL     1      30.488   7.203  48.038  1.00  0.00     0.116 A 
HETATM    4  N3  UNL     1      30.428   8.506  48.316  1.00  0.00    -0.303 N 
HETATM    5  C22 UNL     1      31.313   9.474  48.603  1.00  0.00     0.118 A 
HETATM    6  C23 UNL     1      30.872  10.774  48.860  1.00  0.00     0.136 A 
HETATM    7  N4  UNL     1      29.539  11.024  48.812  1.00  0.00    -0.240 NA
HETATM    8  C24 UNL     1      28.685  10.039  48.524  1.00  0.00     0.150 A 
HETATM    9  C25 UNL     1      29.132   8.792  48.278  1.00  0.00     0.115 A 
ENDROOT
BRANCH   1  10
HETATM   10  C2  UNL     1      26.931   7.410  47.813  1.00  0.00    -0.031 C 
HETATM   11  C1  UNL     1      25.858   7.859  46.911  1.00  0.00     0.050 C 
HETATM   12  C3  UNL     1      26.515   6.475  48.683  1.00  0.00     0.011 C 
BRANCH  12  13
HETATM   13  C4  UNL     1      25.202   5.926  48.789  1.00  0.00     0.032 C 
HETATM   14  C5  UNL     1      25.000   4.789  49.426  1.00  0.00     0.057 A 
HETATM   15  C6  UNL     1      26.116   4.045  50.049  1.00  0.00     0.034 A 
HETATM   16  N1  UNL     1      23.914   3.958  49.737  1.00  0.00    -0.248 NA
HETATM   17  C7  UNL     1      25.675   2.926  50.638  1.00  0.00     0.035 A 
HETATM   18  C8  UNL     1      24.252   2.916  50.409  1.00  0.00     0.067 A 
BRANCH  18  19
HETATM   19  C9  UNL     1      23.274   1.912  50.841  1.00  0.00    -0.007 A 
HETATM   20  C10 UNL     1      23.433   1.328  52.080  1.00  0.00     0.014 A 
HETATM   21  C11 UNL     1      22.567   0.377  52.570  1.00  0.00     0.001 A 
HETATM   22  C12 UNL     1      21.483  -0.012  51.786  1.00  0.00     0.000 A 
HETATM   23  C13 UNL     1      21.343   0.581  50.558  1.00  0.00     0.001 A 
HETATM   24  C14 UNL     1      22.204   1.529  50.064  1.00  0.00     0.014 A 
ENDBRANCH  18  19
ENDBRANCH  12  13
ENDBRANCH   1  10
BRANCH   3  25
HETATM   25  C17 UNL     1      31.693   6.371  47.951  1.00  0.00     0.061 C 
HETATM   26  C18 UNL     1      32.557   6.506  46.756  1.00  0.00     0.049 C 
HETATM   27  C19 UNL     1      32.760   5.003  46.811  1.00  0.00     0.056 C 
HETATM   28  C20 UNL     1      32.668   4.270  45.517  1.00  0.00     0.045 C 
HETATM   29  C21 UNL     1      31.556   4.914  47.713  1.00  0.00     0.049 C 
BRANCH  27  30
HETATM   30  O1  UNL     1      33.956   4.629  47.465  1.00  0.00    -0.390 OA
HETATM   31  H19 UNL     1      34.320   3.836  47.027  1.00  0.00     0.210 HD
ENDBRANCH  27  30
ENDBRANCH   3  25
BRANCH   8  32
HETATM   32  N5  UNL     1      27.335  10.435  48.526  1.00  0.00    -0.382 N 
HETATM   33  H24 UNL     1      27.259  11.014  47.640  1.00  0.00     0.157 HD
HETATM   34  H25 UNL     1      27.030   9.959  49.426  1.00  0.00     0.157 HD
ENDBRANCH   8  32
TORSDOF 6
ENDMDL
MODEL 8
REMARK VINA RESULT:      -8.5      3.468      9.598
REMARK  6 active torsions:
REMARK  status: ('A' for Active; 'I' for Inactive)
REMARK    1  A    between atoms: C2_2  and  C15_16 
REMARK    2  A    between atoms: C3_3  and  C4_4 
REMARK    3  A    between atoms: C8_8  and  C9_9 
REMARK    4  A    between atoms: C16_18  and  C17_19 
REMARK    5  A    between atoms: C19_21  and  O1_23 
REMARK    6  A    between atoms: C24_29  and  N5_30 
ROOT
HETATM    1  C15 UNL     1      23.197   4.956  51.271  1.00  0.00     0.096 A 
HETATM    2  N2  UNL     1      24.063   4.104  51.863  1.00  0.00    -0.232 NA
HETATM    3  C16 UNL     1      23.362   3.038  52.369  1.00  0.00     0.116 A 
HETATM    4  N3  UNL     1      22.062   3.190  52.111  1.00  0.00    -0.303 N 
HETATM    5  C22 UNL     1      20.943   2.489  52.349  1.00  0.00     0.118 A 
HETATM    6  C23 UNL     1      19.707   2.967  51.907  1.00  0.00     0.136 A 
HETATM    7  N4  UNL     1      19.676   4.147  51.238  1.00  0.00    -0.240 NA
HETATM    8  C24 UNL     1      20.808   4.821  51.018  1.00  0.00     0.150 A 
HETATM    9  C25 UNL     1      21.989   4.342  51.454  1.00  0.00     0.115 A 
ENDROOT
BRANCH   1  10
HETATM   10  C2  UNL     1      23.739   6.152  50.662  1.00  0.00    -0.031 C 
HETATM   11  C1  UNL     1      23.819   7.574  51.033  1.00  0.00     0.050 C 
HETATM   12  C3  UNL     1      24.323   5.894  49.480  1.00  0.00     0.011 C 
BRANCH  12  13
HETATM   13  C4  UNL     1      24.966   6.832  48.619  1.00  0.00     0.032 C 
HETATM   14  C5  UNL     1      26.240   6.693  48.309  1.00  0.00     0.057 A 
HETATM   15  C6  UNL     1      27.045   5.569  48.837  1.00  0.00     0.034 A 
HETATM   16  N1  UNL     1      27.194   7.366  47.532  1.00  0.00    -0.248 NA
HETATM   17  C7  UNL     1      28.305   5.631  48.389  1.00  0.00     0.035 A 
HETATM   18  C8  UNL     1      28.351   6.804  47.553  1.00  0.00     0.067 A 
BRANCH  18  19
HETATM   19  C9  UNL     1      29.495   7.341  46.810  1.00  0.00    -0.007 A 
HETATM   20  C10 UNL     1      30.767   7.029  47.241  1.00  0.00     0.014 A 
HETATM   21  C11 UNL     1      31.900   7.486  46.609  1.00  0.00     0.001 A 
HETATM   22  C12 UNL     1      31.761   8.297  45.485  1.00  0.00     0.000 A 
HETATM   23  C13 UNL     1      30.488   8.596  45.072  1.00  0.00     0.001 A 
HETATM   24  C14 UNL     1      29.355   8.143  45.699  1.00  0.00     0.014 A 
ENDBRANCH  18  19
ENDBRANCH  12  13
ENDBRANCH   1  10
BRANCH   3  25
HETATM   25  C17 UNL     1      24.000   1.924  53.079  1.00  0.00     0.061 C 
HETATM   26  C18 UNL     1      25.454   2.002  53.348  1.00  0.00     0.049 C 
HETATM   27  C19 UNL     1      25.524   0.516  53.052  1.00  0.00     0.056 C 
HETATM   28  C20 UNL     1      26.649   0.060  52.187  1.00  0.00     0.045 C 
HETATM   29  C21 UNL     1      24.177   0.625  52.386  1.00  0.00     0.049 C 
BRANCH  27  30
HETATM   30  O1  UNL     1      25.489  -0.284  54.217  1.00  0.00    -0.390 OA
HETATM   31  H19 UNL     1      25.989   0.167  54.924  1.00  0.00     0.210 HD
ENDBRANCH  27  30
ENDBRANCH   3  25
BRANCH   8  32
HETATM   32  N5  UNL     1      20.629   6.018  50.299  1.00  0.00    -0.382 N 
HETATM   33  H24 UNL     1      20.362   5.673  49.332  1.00  0.00     0.157 HD
HETATM   34  H25 UNL     1      20.851   6.707  51.078  1.00  0.00     0.157 HD
ENDBRANCH   8  32
TORSDOF 6
ENDMDL
MODEL 9
REMARK VINA RESULT:      -8.5      7.144     11.550
REMARK  6 active torsions:
REMARK  status: ('A' for Active; 'I' for Inactive)
REMARK    1  A    between atoms: C2_2  and  C15_16 
REMARK    2  A    between atoms: C3_3  and  C4_4 
REMARK    3  A    between atoms: C8_8  and  C9_9 
REMARK    4  A    between atoms: C16_18  and  C17_19 
REMARK    5  A    between atoms: C19_21  and  O1_23 
REMARK    6  A    between atoms: C24_29  and  N5_30 
ROOT
HETATM    1  C15 UNL     1      19.358  -0.003  52.635  1.00  0.00     0.096 A 
HETATM    2  N2  UNL     1      19.808   1.030  51.889  1.00  0.00    -0.232 NA
HETATM    3  C16 UNL     1      18.747   1.593  51.225  1.00  0.00     0.116 A 
HETATM    4  N3  UNL     1      17.625   0.942  51.533  1.00  0.00    -0.303 N 
HETATM    5  C22 UNL     1      16.328   1.046  51.204  1.00  0.00     0.118 A 
HETATM    6  C23 UNL     1      15.393   0.161  51.748  1.00  0.00     0.136 A 
HETATM    7  N4  UNL     1      15.833  -0.793  52.606  1.00  0.00    -0.240 NA
HETATM    8  C24 UNL     1      17.130  -0.870  52.913  1.00  0.00     0.150 A 
HETATM    9  C25 UNL     1      18.015  -0.006  52.377  1.00  0.00     0.115 A 
ENDROOT
BRANCH   1  10
HETATM   10  C2  UNL     1      20.326  -0.734  53.426  1.00  0.00    -0.031 C 
HETATM   11  C1  UNL     1      20.332  -2.010  54.159  1.00  0.00     0.050 C 
HETATM   12  C3  UNL     1      21.506  -0.096  53.491  1.00  0.00     0.011 C 
BRANCH  12  13
HETATM   13  C4  UNL     1      22.681  -0.534  54.172  1.00  0.00     0.032 C 
HETATM   14  C5  UNL     1      23.877  -0.262  53.688  1.00  0.00     0.057 A 
HETATM   15  C6  UNL     1      24.046   0.499  52.431  1.00  0.00     0.034 A 
HETATM   16  N1  UNL     1      25.213  -0.502  54.040  1.00  0.00    -0.248 NA
HETATM   17  C7  UNL     1      25.343   0.655  52.137  1.00  0.00     0.035 A 
HETATM   18  C8  UNL     1      26.053  -0.007  53.202  1.00  0.00     0.067 A 
BRANCH  18  19
HETATM   19  C9  UNL     1      27.503  -0.139  53.377  1.00  0.00    -0.007 A 
HETATM   20  C10 UNL     1      28.222   0.966  53.781  1.00  0.00     0.014 A 
HETATM   21  C11 UNL     1      29.584   0.937  53.972  1.00  0.00     0.001 A 
HETATM   22  C12 UNL     1      30.269  -0.255  53.749  1.00  0.00     0.000 A 
HETATM   23  C13 UNL     1      29.536  -1.342  53.348  1.00  0.00     0.001 A 
HETATM   24  C14 UNL     1      28.177  -1.319  53.157  1.00  0.00     0.014 A 
ENDBRANCH  18  19
ENDBRANCH  12  13
ENDBRANCH   1  10
BRANCH   3  25
HETATM   25  C17 UNL     1      18.886   2.743  50.324  1.00  0.00     0.061 C 
HETATM   26  C18 UNL     1      20.239   3.097  49.839  1.00  0.00     0.049 C 
HETATM   27  C19 UNL     1      19.838   4.554  49.981  1.00  0.00     0.056 C 
HETATM   28  C20 UNL     1      20.837   5.462  50.613  1.00  0.00     0.045 C 
HETATM   29  C21 UNL     1      18.694   4.113  50.856  1.00  0.00     0.049 C 
BRANCH  27  30
HETATM   30  O1  UNL     1      19.401   5.129  48.766  1.00  0.00    -0.390 OA
HETATM   31  H19 UNL     1      19.428   6.102  48.850  1.00  0.00     0.210 HD
ENDBRANCH  27  30
ENDBRANCH   3  25
BRANCH   8  32
HETATM   32  N5  UNL     1      17.442  -1.893  53.827  1.00  0.00    -0.382 N 
HETATM   33  H24 UNL     1      18.162  -2.467  53.301  1.00  0.00     0.157 HD
HETATM   34  H25 UNL     1      16.798  -1.599  54.621  1.00  0.00     0.157 HD
ENDBRANCH   8  32
TORSDOF 6
ENDMDL
