MODEL 1
REMARK VINA RESULT:      -7.6      0.000      0.000
REMARK  6 active torsions:
REMARK  status: ('A' for Active; 'I' for Inactive)
REMARK    1  A    between atoms: N1_2  and  C3_4 
REMARK    2  A    between atoms: C3_4  and  C4_5 
REMARK    3  A    between atoms: C5_6  and  C6_7 
REMARK       I    between atoms: C6_7  and  N2_9 
REMARK    4  A    between atoms: N2_9  and  C7_10 
REMARK    5  A    between atoms: C14_19  and  O2_20 
REMARK    6  A    between atoms: O2_20  and  C15_21 
ROOT
HETATM    1  C7  UNL     1      24.315   0.450  53.596  1.00  0.00     0.069 A 
HETATM    2  C8  UNL     1      25.466  -0.203  54.034  1.00  0.00     0.047 A 
HETATM    3  C9  UNL     1      26.690   0.443  54.097  1.00  0.00     0.013 A 
HETATM    4  C10 UNL     1      27.850  -0.166  54.524  1.00  0.00     0.132 A 
HETATM    5  N3  UNL     1      29.024   0.490  54.573  1.00  0.00    -0.253 NA
HETATM    6  C11 UNL     1      29.050   1.785  54.188  1.00  0.00     0.233 A 
HETATM    7  N4  UNL     1      27.918   2.384  53.771  1.00  0.00    -0.241 NA
HETATM    8  C12 UNL     1      26.732   1.752  53.712  1.00  0.00     0.072 A 
HETATM    9  C13 UNL     1      25.606   2.422  53.273  1.00  0.00     0.071 A 
HETATM   10  C14 UNL     1      24.371   1.788  53.205  1.00  0.00     0.098 A 
ENDROOT
BRANCH   1  11
HETATM   11  N2  UNL     1      23.130  -0.337  53.584  1.00  0.00    -0.321 N 
HETATM   12  C6  UNL     1      22.513  -1.150  54.553  1.00  0.00     0.245 C 
HETATM   13  O1  UNL     1      22.899  -1.375  55.730  1.00  0.00    -0.268 OA
HETATM   14  H11 UNL     1      22.732  -0.211  52.630  1.00  0.00     0.169 HD
BRANCH  12  15
HETATM   15  C5  UNL     1      21.277  -1.807  54.143  1.00  0.00     0.072 C 
HETATM   16  C4  UNL     1      20.224  -1.037  53.905  1.00  0.00     0.008 C 
BRANCH  16  17
HETATM   17  C3  UNL     1      18.907  -1.609  53.481  1.00  0.00     0.299 C 
BRANCH  17  18
HETATM   18  N1  UNL     1      18.069  -0.567  52.872  1.00  0.00     0.083 N 
HETATM   19  C1  UNL     1      16.730  -1.079  52.624  1.00  0.00     0.309 C 
HETATM   20  C2  UNL     1      18.672  -0.150  51.629  1.00  0.00     0.309 C 
ENDBRANCH  17  18
ENDBRANCH  16  17
ENDBRANCH  12  15
ENDBRANCH   1  11
BRANCH  10  21
HETATM   21  O2  UNL     1      23.190   2.321  52.797  1.00  0.00    -0.341 OA
BRANCH  21  22
HETATM   22  C15 UNL     1      22.810   2.977  51.661  1.00  0.00     0.154 C 
HETATM   23  C16 UNL     1      23.257   2.345  50.368  1.00  0.00     0.061 C 
HETATM   24  C17 UNL     1      22.088   1.403  50.133  1.00  0.00     0.170 C 
HETATM   25  O3  UNL     1      20.985   2.155  50.475  1.00  0.00    -0.389 OA
HETATM   26  C18 UNL     1      21.339   3.101  51.415  1.00  0.00     0.200 C 
ENDBRANCH  21  22
ENDBRANCH  10  21
TORSDOF 6
ENDMDL
MODEL 2
REMARK VINA RESULT:      -7.5      3.590      7.894
REMARK  6 active torsions:
REMARK  status: ('A' for Active; 'I' for Inactive)
REMARK    1  A    between atoms: N1_2  and  C3_4 
REMARK    2  A    between atoms: C3_4  and  C4_5 
REMARK    3  A    between atoms: C5_6  and  C6_7 
REMARK       I    between atoms: C6_7  and  N2_9 
REMARK    4  A    between atoms: N2_9  and  C7_10 
REMARK    5  A    between atoms: C14_19  and  O2_20 
REMARK    6  A    between atoms: O2_20  and  C15_21 
ROOT
HETATM    1  C7  UNL     1      25.160   1.043  52.206  1.00  0.00     0.069 A 
HETATM    2  C8  UNL     1      23.802   1.349  52.275  1.00  0.00     0.047 A 
HETATM    3  C9  UNL     1      22.933   0.628  53.078  1.00  0.00     0.013 A 
HETATM    4  C10 UNL     1      21.585   0.898  53.173  1.00  0.00     0.132 A 
HETATM    5  N3  UNL     1      20.768   0.177  53.963  1.00  0.00    -0.253 NA
HETATM    6  C11 UNL     1      21.300  -0.839  54.677  1.00  0.00     0.233 A 
HETATM    7  N4  UNL     1      22.617  -1.106  54.586  1.00  0.00    -0.241 NA
HETATM    8  C12 UNL     1      23.456  -0.402  53.806  1.00  0.00     0.072 A 
HETATM    9  C13 UNL     1      24.799  -0.726  53.755  1.00  0.00     0.071 A 
HETATM   10  C14 UNL     1      25.682  -0.011  52.955  1.00  0.00     0.098 A 
ENDROOT
BRANCH   1  11
HETATM   11  N2  UNL     1      25.931   1.869  51.341  1.00  0.00    -0.321 N 
HETATM   12  C6  UNL     1      25.588   2.900  50.447  1.00  0.00     0.245 C 
HETATM   13  O1  UNL     1      24.441   3.354  50.197  1.00  0.00    -0.268 OA
HETATM   14  H11 UNL     1      26.917   1.561  51.481  1.00  0.00     0.169 HD
BRANCH  12  15
HETATM   15  C5  UNL     1      26.696   3.516  49.726  1.00  0.00     0.072 C 
HETATM   16  C4  UNL     1      26.510   4.737  49.245  1.00  0.00     0.008 C 
BRANCH  16  17
HETATM   17  C3  UNL     1      27.581   5.461  48.489  1.00  0.00     0.299 C 
BRANCH  17  18
HETATM   18  N1  UNL     1      27.221   6.876  48.319  1.00  0.00     0.083 N 
HETATM   19  C1  UNL     1      28.421   7.694  48.238  1.00  0.00     0.309 C 
HETATM   20  C2  UNL     1      26.419   7.291  49.444  1.00  0.00     0.309 C 
ENDBRANCH  17  18
ENDBRANCH  16  17
ENDBRANCH  12  15
ENDBRANCH   1  11
BRANCH  10  21
HETATM   21  O2  UNL     1      27.018  -0.218  52.810  1.00  0.00    -0.341 OA
BRANCH  21  22
HETATM   22  C15 UNL     1      28.017  -0.495  53.699  1.00  0.00     0.154 C 
HETATM   23  C16 UNL     1      29.390  -0.016  53.302  1.00  0.00     0.061 C 
HETATM   24  C17 UNL     1      29.345   1.384  53.892  1.00  0.00     0.170 C 
HETATM   25  O3  UNL     1      28.734   1.208  55.113  1.00  0.00    -0.389 OA
HETATM   26  C18 UNL     1      27.894   0.113  55.061  1.00  0.00     0.200 C 
ENDBRANCH  21  22
ENDBRANCH  10  21
TORSDOF 6
ENDMDL
MODEL 3
REMARK VINA RESULT:      -7.5      2.319      4.443
REMARK  6 active torsions:
REMARK  status: ('A' for Active; 'I' for Inactive)
REMARK    1  A    between atoms: N1_2  and  C3_4 
REMARK    2  A    between atoms: C3_4  and  C4_5 
REMARK    3  A    between atoms: C5_6  and  C6_7 
REMARK       I    between atoms: C6_7  and  N2_9 
REMARK    4  A    between atoms: N2_9  and  C7_10 
REMARK    5  A    between atoms: C14_19  and  O2_20 
REMARK    6  A    between atoms: O2_20  and  C15_21 
ROOT
HETATM    1  C7  UNL     1      24.534   0.863  52.449  1.00  0.00     0.069 A 
HETATM    2  C8  UNL     1      25.802   1.430  52.338  1.00  0.00     0.047 A 
HETATM    3  C9  UNL     1      26.849   1.038  53.157  1.00  0.00     0.013 A 
HETATM    4  C10 UNL     1      28.116   1.573  53.080  1.00  0.00     0.132 A 
HETATM    5  N3  UNL     1      29.111   1.170  53.890  1.00  0.00    -0.253 NA
HETATM    6  C11 UNL     1      28.844   0.209  54.803  1.00  0.00     0.233 A 
HETATM    7  N4  UNL     1      27.607  -0.316  54.881  1.00  0.00    -0.241 NA
HETATM    8  C12 UNL     1      26.594   0.068  54.083  1.00  0.00     0.072 A 
HETATM    9  C13 UNL     1      25.346  -0.510  54.214  1.00  0.00     0.071 A 
HETATM   10  C14 UNL     1      24.286  -0.127  53.400  1.00  0.00     0.098 A 
ENDROOT
BRANCH   1  11
HETATM   11  N2  UNL     1      23.557   1.363  51.543  1.00  0.00    -0.321 N 
HETATM   12  C6  UNL     1      22.799   2.548  51.513  1.00  0.00     0.245 C 
HETATM   13  O1  UNL     1      22.818   3.496  52.340  1.00  0.00    -0.268 OA
HETATM   14  H11 UNL     1      23.472   0.631  50.806  1.00  0.00     0.169 HD
BRANCH  12  15
HETATM   15  C5  UNL     1      21.883   2.693  50.387  1.00  0.00     0.072 C 
HETATM   16  C4  UNL     1      21.908   1.754  49.452  1.00  0.00     0.008 C 
BRANCH  16  17
HETATM   17  C3  UNL     1      21.011   1.807  48.254  1.00  0.00     0.299 C 
BRANCH  17  18
HETATM   18  N1  UNL     1      20.891   3.189  47.766  1.00  0.00     0.083 N 
HETATM   19  C1  UNL     1      19.552   3.424  47.248  1.00  0.00     0.309 C 
HETATM   20  C2  UNL     1      21.865   3.400  46.722  1.00  0.00     0.309 C 
ENDBRANCH  17  18
ENDBRANCH  16  17
ENDBRANCH  12  15
ENDBRANCH   1  11
BRANCH  10  21
HETATM   21  O2  UNL     1      23.015  -0.608  53.417  1.00  0.00    -0.341 OA
BRANCH  21  22
HETATM   22  C15 UNL     1      22.005  -0.532  54.334  1.00  0.00     0.154 C 
HETATM   23  C16 UNL     1      20.992   0.557  54.091  1.00  0.00     0.061 C 
HETATM   24  C17 UNL     1      20.027  -0.196  53.192  1.00  0.00     0.170 C 
HETATM   25  O3  UNL     1      19.939  -1.442  53.771  1.00  0.00    -0.389 OA
HETATM   26  C18 UNL     1      21.109  -1.724  54.448  1.00  0.00     0.200 C 
ENDBRANCH  21  22
ENDBRANCH  10  21
TORSDOF 6
ENDMDL
MODEL 4
REMARK VINA RESULT:      -7.5      1.945      3.978
REMARK  6 active torsions:
REMARK  status: ('A' for Active; 'I' for Inactive)
REMARK    1  A    between atoms: N1_2  and  C3_4 
REMARK    2  A    between atoms: C3_4  and  C4_5 
REMARK    3  A    between atoms: C5_6  and  C6_7 
REMARK       I    between atoms: C6_7  and  N2_9 
REMARK    4  A    between atoms: N2_9  and  C7_10 
REMARK    5  A    between atoms: C14_19  and  O2_20 
REMARK    6  A    between atoms: O2_20  and  C15_21 
ROOT
HETATM    1  C7  UNL     1      24.387   1.477  52.916  1.00  0.00     0.069 A 
HETATM    2  C8  UNL     1      25.636   2.096  52.905  1.00  0.00     0.047 A 
HETATM    3  C9  UNL     1      26.743   1.511  53.498  1.00  0.00     0.013 A 
HETATM    4  C10 UNL     1      27.993   2.090  53.508  1.00  0.00     0.132 A 
HETATM    5  N3  UNL     1      29.049   1.495  54.094  1.00  0.00    -0.253 NA
HETATM    6  C11 UNL     1      28.861   0.295  54.686  1.00  0.00     0.233 A 
HETATM    7  N4  UNL     1      27.640  -0.274  54.677  1.00  0.00    -0.241 NA
HETATM    8  C12 UNL     1      26.568   0.298  54.099  1.00  0.00     0.072 A 
HETATM    9  C13 UNL     1      25.341  -0.336  54.124  1.00  0.00     0.071 A 
HETATM   10  C14 UNL     1      24.221   0.238  53.533  1.00  0.00     0.098 A 
ENDROOT
BRANCH   1  11
HETATM   11  N2  UNL     1      23.342   2.194  52.268  1.00  0.00    -0.321 N 
HETATM   12  C6  UNL     1      22.948   3.544  52.297  1.00  0.00     0.245 C 
HETATM   13  O1  UNL     1      23.471   4.485  52.948  1.00  0.00    -0.268 OA
HETATM   14  H11 UNL     1      22.843   1.482  51.692  1.00  0.00     0.169 HD
BRANCH  12  15
HETATM   15  C5  UNL     1      21.797   3.893  51.471  1.00  0.00     0.072 C 
HETATM   16  C4  UNL     1      20.593   3.613  51.949  1.00  0.00     0.008 C 
BRANCH  16  17
HETATM   17  C3  UNL     1      19.346   3.928  51.182  1.00  0.00     0.299 C 
BRANCH  17  18
HETATM   18  N1  UNL     1      18.227   3.106  51.665  1.00  0.00     0.083 N 
HETATM   19  C1  UNL     1      18.085   1.915  50.841  1.00  0.00     0.309 C 
HETATM   20  C2  UNL     1      17.016   3.887  51.611  1.00  0.00     0.309 C 
ENDBRANCH  17  18
ENDBRANCH  16  17
ENDBRANCH  12  15
ENDBRANCH   1  11
BRANCH  10  21
HETATM   21  O2  UNL     1      22.962  -0.271  53.482  1.00  0.00    -0.341 OA
BRANCH  21  22
HETATM   22  C15 UNL     1      21.972  -0.396  54.415  1.00  0.00     0.154 C 
HETATM   23  C16 UNL     1      20.803   0.540  54.249  1.00  0.00     0.061 C 
HETATM   24  C17 UNL     1      19.941  -0.299  53.321  1.00  0.00     0.170 C 
HETATM   25  O3  UNL     1      20.053  -1.574  53.831  1.00  0.00    -0.389 OA
HETATM   26  C18 UNL     1      21.266  -1.714  54.475  1.00  0.00     0.200 C 
ENDBRANCH  21  22
ENDBRANCH  10  21
TORSDOF 6
ENDMDL
MODEL 5
REMARK VINA RESULT:      -7.4      2.475      5.032
REMARK  6 active torsions:
REMARK  status: ('A' for Active; 'I' for Inactive)
REMARK    1  A    between atoms: N1_2  and  C3_4 
REMARK    2  A    between atoms: C3_4  and  C4_5 
REMARK    3  A    between atoms: C5_6  and  C6_7 
REMARK       I    between atoms: C6_7  and  N2_9 
REMARK    4  A    between atoms: N2_9  and  C7_10 
REMARK    5  A    between atoms: C14_19  and  O2_20 
REMARK    6  A    between atoms: O2_20  and  C15_21 
ROOT
HETATM    1  C7  UNL     1      24.461   1.545  53.060  1.00  0.00     0.069 A 
HETATM    2  C8  UNL     1      25.728   2.126  53.073  1.00  0.00     0.047 A 
HETATM    3  C9  UNL     1      26.833   1.451  53.566  1.00  0.00     0.013 A 
HETATM    4  C10 UNL     1      28.101   1.989  53.597  1.00  0.00     0.132 A 
HETATM    5  N3  UNL     1      29.154   1.307  54.084  1.00  0.00    -0.253 NA
HETATM    6  C11 UNL     1      28.945   0.056  54.552  1.00  0.00     0.233 A 
HETATM    7  N4  UNL     1      27.707  -0.473  54.523  1.00  0.00    -0.241 NA
HETATM    8  C12 UNL     1      26.638   0.187  54.043  1.00  0.00     0.072 A 
HETATM    9  C13 UNL     1      25.392  -0.412  54.041  1.00  0.00     0.071 A 
HETATM   10  C14 UNL     1      24.275   0.253  53.550  1.00  0.00     0.098 A 
ENDROOT
BRANCH   1  11
HETATM   11  N2  UNL     1      23.421   2.355  52.524  1.00  0.00    -0.321 N 
HETATM   12  C6  UNL     1      22.629   2.251  51.366  1.00  0.00     0.245 C 
HETATM   13  O1  UNL     1      22.666   1.354  50.485  1.00  0.00    -0.268 OA
HETATM   14  H11 UNL     1      23.315   3.141  53.201  1.00  0.00     0.169 HD
BRANCH  12  15
HETATM   15  C5  UNL     1      21.646   3.310  51.167  1.00  0.00     0.072 C 
HETATM   16  C4  UNL     1      22.095   4.554  51.075  1.00  0.00     0.008 C 
BRANCH  16  17
HETATM   17  C3  UNL     1      21.172   5.715  50.871  1.00  0.00     0.299 C 
BRANCH  17  18
HETATM   18  N1  UNL     1      21.926   6.977  50.885  1.00  0.00     0.083 N 
HETATM   19  C1  UNL     1      21.611   7.763  49.702  1.00  0.00     0.309 C 
HETATM   20  C2  UNL     1      23.337   6.678  50.914  1.00  0.00     0.309 C 
ENDBRANCH  17  18
ENDBRANCH  16  17
ENDBRANCH  12  15
ENDBRANCH   1  11
BRANCH  10  21
HETATM   21  O2  UNL     1      22.999  -0.212  53.486  1.00  0.00    -0.341 OA
BRANCH  21  22
HETATM   22  C15 UNL     1      22.017  -0.360  54.424  1.00  0.00     0.154 C 
HETATM   23  C16 UNL     1      20.809   0.524  54.242  1.00  0.00     0.061 C 
HETATM   24  C17 UNL     1      19.982  -0.369  53.333  1.00  0.00     0.170 C 
HETATM   25  O3  UNL     1      20.147  -1.628  53.867  1.00  0.00    -0.389 OA
HETATM   26  C18 UNL     1      21.366  -1.704  54.510  1.00  0.00     0.200 C 
ENDBRANCH  21  22
ENDBRANCH  10  21
TORSDOF 6
ENDMDL
MODEL 6
REMARK VINA RESULT:      -7.4      1.091      1.184
REMARK  6 active torsions:
REMARK  status: ('A' for Active; 'I' for Inactive)
REMARK    1  A    between atoms: N1_2  and  C3_4 
REMARK    2  A    between atoms: C3_4  and  C4_5 
REMARK    3  A    between atoms: C5_6  and  C6_7 
REMARK       I    between atoms: C6_7  and  N2_9 
REMARK    4  A    between atoms: N2_9  and  C7_10 
REMARK    5  A    between atoms: C14_19  and  O2_20 
REMARK    6  A    between atoms: O2_20  and  C15_21 
ROOT
HETATM    1  C7  UNL     1      24.805   0.112  53.446  1.00  0.00     0.069 A 
HETATM    2  C8  UNL     1      25.819  -0.841  53.528  1.00  0.00     0.047 A 
HETATM    3  C9  UNL     1      27.157  -0.484  53.505  1.00  0.00     0.013 A 
HETATM    4  C10 UNL     1      28.188  -1.395  53.584  1.00  0.00     0.132 A 
HETATM    5  N3  UNL     1      29.479  -1.015  53.558  1.00  0.00    -0.253 NA
HETATM    6  C11 UNL     1      29.756   0.304  53.452  1.00  0.00     0.233 A 
HETATM    7  N4  UNL     1      28.751   1.197  53.375  1.00  0.00    -0.241 NA
HETATM    8  C12 UNL     1      27.452   0.844  53.398  1.00  0.00     0.072 A 
HETATM    9  C13 UNL     1      26.467   1.809  53.314  1.00  0.00     0.071 A 
HETATM   10  C14 UNL     1      25.120   1.466  53.336  1.00  0.00     0.098 A 
ENDROOT
BRANCH   1  11
HETATM   11  N2  UNL     1      23.478  -0.400  53.482  1.00  0.00    -0.321 N 
HETATM   12  C6  UNL     1      22.739  -1.071  54.473  1.00  0.00     0.245 C 
HETATM   13  O1  UNL     1      23.114  -1.389  55.632  1.00  0.00    -0.268 OA
HETATM   14  H11 UNL     1      23.077  -0.179  52.545  1.00  0.00     0.169 HD
BRANCH  12  15
HETATM   15  C5  UNL     1      21.374  -1.440  54.115  1.00  0.00     0.072 C 
HETATM   16  C4  UNL     1      20.575  -0.477  53.676  1.00  0.00     0.008 C 
BRANCH  16  17
HETATM   17  C3  UNL     1      19.156  -0.747  53.282  1.00  0.00     0.299 C 
BRANCH  17  18
HETATM   18  N1  UNL     1      18.739   0.169  52.210  1.00  0.00     0.083 N 
HETATM   19  C1  UNL     1      17.611  -0.390  51.482  1.00  0.00     0.309 C 
HETATM   20  C2  UNL     1      19.850   0.372  51.312  1.00  0.00     0.309 C 
ENDBRANCH  17  18
ENDBRANCH  16  17
ENDBRANCH  12  15
ENDBRANCH   1  11
BRANCH  10  21
HETATM   21  O2  UNL     1      24.052   2.304  53.263  1.00  0.00    -0.341 OA
BRANCH  21  22
HETATM   22  C15 UNL     1      23.738   3.338  52.428  1.00  0.00     0.154 C 
HETATM   23  C16 UNL     1      24.165   3.163  50.993  1.00  0.00     0.061 C 
HETATM   24  C17 UNL     1      22.941   2.444  50.454  1.00  0.00     0.170 C 
HETATM   25  O3  UNL     1      21.885   3.106  51.041  1.00  0.00    -0.389 OA
HETATM   26  C18 UNL     1      22.284   3.641  52.249  1.00  0.00     0.200 C 
ENDBRANCH  21  22
ENDBRANCH  10  21
TORSDOF 6
ENDMDL
MODEL 7
REMARK VINA RESULT:      -7.1      3.789      7.017
REMARK  6 active torsions:
REMARK  status: ('A' for Active; 'I' for Inactive)
REMARK    1  A    between atoms: N1_2  and  C3_4 
REMARK    2  A    between atoms: C3_4  and  C4_5 
REMARK    3  A    between atoms: C5_6  and  C6_7 
REMARK       I    between atoms: C6_7  and  N2_9 
REMARK    4  A    between atoms: N2_9  and  C7_10 
REMARK    5  A    between atoms: C14_19  and  O2_20 
REMARK    6  A    between atoms: O2_20  and  C15_21 
ROOT
HETATM    1  C7  UNL     1      24.906   2.581  51.740  1.00  0.00     0.069 A 
HETATM    2  C8  UNL     1      25.812   2.063  52.663  1.00  0.00     0.047 A 
HETATM    3  C9  UNL     1      25.482   1.003  53.492  1.00  0.00     0.013 A 
HETATM    4  C10 UNL     1      26.348   0.462  54.417  1.00  0.00     0.132 A 
HETATM    5  N3  UNL     1      25.995  -0.568  55.207  1.00  0.00    -0.253 NA
HETATM    6  C11 UNL     1      24.750  -1.076  55.078  1.00  0.00     0.233 A 
HETATM    7  N4  UNL     1      23.900  -0.551  54.176  1.00  0.00    -0.241 NA
HETATM    8  C12 UNL     1      24.227   0.479  53.373  1.00  0.00     0.072 A 
HETATM    9  C13 UNL     1      23.309   0.975  52.467  1.00  0.00     0.071 A 
HETATM   10  C14 UNL     1      23.627   2.037  51.629  1.00  0.00     0.098 A 
ENDROOT
BRANCH   1  11
HETATM   11  N2  UNL     1      25.384   3.669  50.957  1.00  0.00    -0.321 N 
HETATM   12  C6  UNL     1      26.293   3.749  49.886  1.00  0.00     0.245 C 
HETATM   13  O1  UNL     1      26.931   2.809  49.345  1.00  0.00    -0.268 OA
HETATM   14  H11 UNL     1      24.900   4.510  51.339  1.00  0.00     0.169 HD
BRANCH  12  15
HETATM   15  C5  UNL     1      26.521   5.081  49.339  1.00  0.00     0.072 C 
HETATM   16  C4  UNL     1      27.615   5.266  48.614  1.00  0.00     0.008 C 
BRANCH  16  17
HETATM   17  C3  UNL     1      27.946   6.595  48.006  1.00  0.00     0.299 C 
BRANCH  17  18
HETATM   18  N1  UNL     1      26.947   7.599  48.399  1.00  0.00     0.083 N 
HETATM   19  C1  UNL     1      26.312   8.166  47.218  1.00  0.00     0.309 C 
HETATM   20  C2  UNL     1      27.604   8.642  49.150  1.00  0.00     0.309 C 
ENDBRANCH  17  18
ENDBRANCH  16  17
ENDBRANCH  12  15
ENDBRANCH   1  11
BRANCH  10  21
HETATM   21  O2  UNL     1      22.829   2.621  50.696  1.00  0.00    -0.341 OA
BRANCH  21  22
HETATM   22  C15 UNL     1      21.810   3.527  50.782  1.00  0.00     0.154 C 
HETATM   23  C16 UNL     1      20.452   3.016  50.375  1.00  0.00     0.061 C 
HETATM   24  C17 UNL     1      19.983   2.464  51.710  1.00  0.00     0.170 C 
HETATM   25  O3  UNL     1      20.390   3.414  52.621  1.00  0.00    -0.389 OA
HETATM   26  C18 UNL     1      21.505   4.071  52.142  1.00  0.00     0.200 C 
ENDBRANCH  21  22
ENDBRANCH  10  21
TORSDOF 6
ENDMDL
MODEL 8
REMARK VINA RESULT:      -6.9      2.047      2.935
REMARK  6 active torsions:
REMARK  status: ('A' for Active; 'I' for Inactive)
REMARK    1  A    between atoms: N1_2  and  C3_4 
REMARK    2  A    between atoms: C3_4  and  C4_5 
REMARK    3  A    between atoms: C5_6  and  C6_7 
REMARK       I    between atoms: C6_7  and  N2_9 
REMARK    4  A    between atoms: N2_9  and  C7_10 
REMARK    5  A    between atoms: C14_19  and  O2_20 
REMARK    6  A    between atoms: O2_20  and  C15_21 
ROOT
HETATM    1  C7  UNL     1      22.765   1.312  52.595  1.00  0.00     0.069 A 
HETATM    2  C8  UNL     1      23.446   0.201  53.088  1.00  0.00     0.047 A 
HETATM    3  C9  UNL     1      24.733   0.301  53.593  1.00  0.00     0.013 A 
HETATM    4  C10 UNL     1      25.440  -0.772  54.090  1.00  0.00     0.132 A 
HETATM    5  N3  UNL     1      26.689  -0.640  54.573  1.00  0.00    -0.253 NA
HETATM    6  C11 UNL     1      27.253   0.588  54.563  1.00  0.00     0.233 A 
HETATM    7  N4  UNL     1      26.565   1.639  54.079  1.00  0.00    -0.241 NA
HETATM    8  C12 UNL     1      25.315   1.536  53.590  1.00  0.00     0.072 A 
HETATM    9  C13 UNL     1      24.662   2.652  53.106  1.00  0.00     0.071 A 
HETATM   10  C14 UNL     1      23.371   2.568  52.597  1.00  0.00     0.098 A 
ENDROOT
BRANCH   1  11
HETATM   11  N2  UNL     1      21.451   1.059  52.109  1.00  0.00    -0.321 N 
HETATM   12  C6  UNL     1      20.945   0.764  50.830  1.00  0.00     0.245 C 
HETATM   13  O1  UNL     1      21.589   0.649  49.754  1.00  0.00    -0.268 OA
HETATM   14  H11 UNL     1      20.835   1.134  52.946  1.00  0.00     0.169 HD
BRANCH  12  15
HETATM   15  C5  UNL     1      19.503   0.567  50.742  1.00  0.00     0.072 C 
HETATM   16  C4  UNL     1      18.857   0.263  51.859  1.00  0.00     0.008 C 
BRANCH  16  17
HETATM   17  C3  UNL     1      17.377   0.038  51.880  1.00  0.00     0.299 C 
BRANCH  17  18
HETATM   18  N1  UNL     1      17.019  -0.911  52.943  1.00  0.00     0.083 N 
HETATM   19  C1  UNL     1      18.206  -1.607  53.417  1.00  0.00     0.309 C 
HETATM   20  C2  UNL     1      16.069  -1.863  52.419  1.00  0.00     0.309 C 
ENDBRANCH  17  18
ENDBRANCH  16  17
ENDBRANCH  12  15
ENDBRANCH   1  11
BRANCH  10  21
HETATM   21  O2  UNL     1      22.614   3.577  52.093  1.00  0.00    -0.341 OA
BRANCH  21  22
HETATM   22  C15 UNL     1      22.763   4.399  51.012  1.00  0.00     0.154 C 
HETATM   23  C16 UNL     1      21.656   4.334  49.991  1.00  0.00     0.061 C 
HETATM   24  C17 UNL     1      20.718   5.379  50.572  1.00  0.00     0.170 C 
HETATM   25  O3  UNL     1      21.561   6.392  50.973  1.00  0.00    -0.389 OA
HETATM   26  C18 UNL     1      22.800   5.870  51.286  1.00  0.00     0.200 C 
ENDBRANCH  21  22
ENDBRANCH  10  21
TORSDOF 6
ENDMDL
MODEL 9
REMARK VINA RESULT:      -6.8      1.651      2.171
REMARK  6 active torsions:
REMARK  status: ('A' for Active; 'I' for Inactive)
REMARK    1  A    between atoms: N1_2  and  C3_4 
REMARK    2  A    between atoms: C3_4  and  C4_5 
REMARK    3  A    between atoms: C5_6  and  C6_7 
REMARK       I    between atoms: C6_7  and  N2_9 
REMARK    4  A    between atoms: N2_9  and  C7_10 
REMARK    5  A    between atoms: C14_19  and  O2_20 
REMARK    6  A    between atoms: O2_20  and  C15_21 
ROOT
HETATM    1  C7  UNL     1      23.403   0.864  53.069  1.00  0.00     0.069 A 
HETATM    2  C8  UNL     1      24.348  -0.100  53.417  1.00  0.00     0.047 A 
HETATM    3  C9  UNL     1      25.664   0.235  53.691  1.00  0.00     0.013 A 
HETATM    4  C10 UNL     1      26.626  -0.687  54.039  1.00  0.00     0.132 A 
HETATM    5  N3  UNL     1      27.897  -0.328  54.298  1.00  0.00    -0.253 NA
HETATM    6  C11 UNL     1      28.223   0.981  54.210  1.00  0.00     0.233 A 
HETATM    7  N4  UNL     1      27.285   1.885  53.871  1.00  0.00    -0.241 NA
HETATM    8  C12 UNL     1      26.008   1.554  53.607  1.00  0.00     0.072 A 
HETATM    9  C13 UNL     1      25.091   2.529  53.263  1.00  0.00     0.071 A 
HETATM   10  C14 UNL     1      23.768   2.208  52.986  1.00  0.00     0.098 A 
ENDROOT
BRANCH   1  11
HETATM   11  N2  UNL     1      22.091   0.374  52.816  1.00  0.00    -0.321 N 
HETATM   12  C6  UNL     1      20.987   0.124  53.651  1.00  0.00     0.245 C 
HETATM   13  O1  UNL     1      20.909   0.291  54.896  1.00  0.00    -0.268 OA
HETATM   14  H11 UNL     1      22.060   0.204  51.788  1.00  0.00     0.169 HD
BRANCH  12  15
HETATM   15  C5  UNL     1      19.790  -0.389  52.993  1.00  0.00     0.072 C 
HETATM   16  C4  UNL     1      19.316   0.298  51.963  1.00  0.00     0.008 C 
BRANCH  16  17
HETATM   17  C3  UNL     1      18.093  -0.139  51.218  1.00  0.00     0.299 C 
BRANCH  17  18
HETATM   18  N1  UNL     1      16.988   0.801  51.453  1.00  0.00     0.083 N 
HETATM   19  C1  UNL     1      15.945   0.164  52.241  1.00  0.00     0.309 C 
HETATM   20  C2  UNL     1      16.453   1.221  50.180  1.00  0.00     0.309 C 
ENDBRANCH  17  18
ENDBRANCH  16  17
ENDBRANCH  12  15
ENDBRANCH   1  11
BRANCH  10  21
HETATM   21  O2  UNL     1      22.766   3.058  52.638  1.00  0.00    -0.341 OA
BRANCH  21  22
HETATM   22  C15 UNL     1      22.449   3.692  51.471  1.00  0.00     0.154 C 
HETATM   23  C16 UNL     1      22.336   5.193  51.558  1.00  0.00     0.061 C 
HETATM   24  C17 UNL     1      23.783   5.568  51.290  1.00  0.00     0.170 C 
HETATM   25  O3  UNL     1      24.162   4.717  50.276  1.00  0.00    -0.389 OA
HETATM   26  C18 UNL     1      23.423   3.553  50.343  1.00  0.00     0.200 C 
ENDBRANCH  21  22
ENDBRANCH  10  21
TORSDOF 6
ENDMDL
