MODEL 1
REMARK VINA RESULT:     -10.0      0.000      0.000
REMARK  2 active torsions:
REMARK  status: ('A' for Active; 'I' for Inactive)
REMARK    1  A    between atoms: O1_2  and  C2_3 
REMARK    2  A    between atoms: C16_20  and  O2_21 
ROOT
HETATM    1  C2  UNL     1      25.638   4.012  49.604  1.00  0.00     0.065 C 
HETATM    2  C3  UNL     1      24.385   3.480  49.622  1.00  0.00     0.019 C 
HETATM    3  C4  UNL     1      24.232   2.470  50.731  1.00  0.00     0.045 C 
HETATM    4  C5  UNL     1      23.104   1.741  51.021  1.00  0.00    -0.005 C 
HETATM    5  C6  UNL     1      23.347   0.860  52.190  1.00  0.00    -0.031 A 
HETATM    6  C7  UNL     1      22.250   0.541  52.998  1.00  0.00     0.018 A 
HETATM    7  C8  UNL     1      22.202  -0.252  54.130  1.00  0.00    -0.061 A 
HETATM    8  C9  UNL     1      20.949  -0.492  54.882  1.00  0.00     0.048 C 
HETATM    9  C10 UNL     1      23.408  -0.797  54.502  1.00  0.00     0.007 A 
HETATM   10  C11 UNL     1      24.506  -0.505  53.730  1.00  0.00     0.010 A 
HETATM   11  C12 UNL     1      24.561   0.299  52.582  1.00  0.00    -0.030 A 
HETATM   12  C13 UNL     1      25.947   0.394  52.055  1.00  0.00     0.143 A 
HETATM   13  C14 UNL     1      26.431   1.801  52.458  1.00  0.00     0.146 A 
HETATM   14  N1  UNL     1      26.827   2.361  53.699  1.00  0.00    -0.049 NA
HETATM   15  N2  UNL     1      27.717   1.387  54.477  1.00  0.00     0.088 N 
HETATM   16  C15 UNL     1      28.237  -0.122  54.391  1.00  0.00     0.376 A 
HETATM   17  N3  UNL     1      28.364  -1.262  54.010  1.00  0.00    -0.211 NA
HETATM   18  C16 UNL     1      27.599  -1.696  52.949  1.00  0.00     0.159 A 
HETATM   19  C17 UNL     1      26.694  -0.778  52.355  1.00  0.00     0.132 A 
HETATM   20  S1  UNL     1      27.034   0.501  53.325  1.00  0.00     0.034 SA
HETATM   21  C18 UNL     1      26.582   2.799  51.410  1.00  0.00     0.017 C 
HETATM   22  C19 UNL     1      26.786   3.719  50.473  1.00  0.00     0.035 C 
HETATM   23  H14 UNL     1      28.356   1.392  55.375  1.00  0.00     0.322 HD
ENDROOT
BRANCH   1  24
HETATM   24  O1  UNL     1      25.939   4.979  48.630  1.00  0.00    -0.356 OA
HETATM   25  C1  UNL     1      27.297   5.407  48.603  1.00  0.00     0.210 C 
ENDBRANCH   1  24
BRANCH  18  26
HETATM   26  O2  UNL     1      27.166  -2.643  52.027  1.00  0.00    -0.347 OA
HETATM   27  H15 UNL     1      26.855  -3.561  52.320  1.00  0.00     0.219 HD
ENDBRANCH  18  26
TORSDOF 2
ENDMDL
MODEL 2
REMARK VINA RESULT:      -8.8      3.293      7.340
REMARK  2 active torsions:
REMARK  status: ('A' for Active; 'I' for Inactive)
REMARK    1  A    between atoms: O1_2  and  C2_3 
REMARK    2  A    between atoms: C16_20  and  O2_21 
ROOT
HETATM    1  C2  UNL     1      25.215   0.802  52.864  1.00  0.00     0.065 C 
HETATM    2  C3  UNL     1      26.191   0.975  51.931  1.00  0.00     0.019 C 
HETATM    3  C4  UNL     1      25.965   2.228  51.124  1.00  0.00     0.045 C 
HETATM    4  C5  UNL     1      26.753   2.692  50.097  1.00  0.00    -0.005 C 
HETATM    5  C6  UNL     1      26.204   3.961  49.560  1.00  0.00    -0.031 A 
HETATM    6  C7  UNL     1      27.110   4.873  49.005  1.00  0.00     0.018 A 
HETATM    7  C8  UNL     1      26.864   6.110  48.439  1.00  0.00    -0.061 A 
HETATM    8  C9  UNL     1      27.944   6.965  47.892  1.00  0.00     0.048 C 
HETATM    9  C10 UNL     1      25.542   6.485  48.426  1.00  0.00     0.007 A 
HETATM   10  C11 UNL     1      24.626   5.612  48.962  1.00  0.00     0.010 A 
HETATM   11  C12 UNL     1      24.869   4.357  49.538  1.00  0.00    -0.030 A 
HETATM   12  C13 UNL     1      23.612   3.738  50.035  1.00  0.00     0.143 A 
HETATM   13  C14 UNL     1      23.667   3.899  51.567  1.00  0.00     0.146 A 
HETATM   14  N1  UNL     1      23.497   5.017  52.422  1.00  0.00    -0.049 NA
HETATM   15  N2  UNL     1      22.312   5.874  51.966  1.00  0.00     0.088 N 
HETATM   16  C15 UNL     1      21.283   5.981  50.749  1.00  0.00     0.376 A 
HETATM   17  N3  UNL     1      20.754   5.766  49.684  1.00  0.00    -0.211 NA
HETATM   18  C16 UNL     1      21.314   4.830  48.841  1.00  0.00     0.159 A 
HETATM   19  C17 UNL     1      22.491   4.162  49.269  1.00  0.00     0.132 A 
HETATM   20  S1  UNL     1      22.633   4.910  50.723  1.00  0.00     0.034 SA
HETATM   21  C18 UNL     1      23.891   2.707  52.372  1.00  0.00     0.017 C 
HETATM   22  C19 UNL     1      24.036   1.634  53.142  1.00  0.00     0.035 C 
HETATM   23  H14 UNL     1      21.715   6.722  52.342  1.00  0.00     0.322 HD
ENDROOT
BRANCH   1  24
HETATM   24  O1  UNL     1      25.287  -0.320  53.705  1.00  0.00    -0.356 OA
HETATM   25  C1  UNL     1      26.070  -0.144  54.882  1.00  0.00     0.210 C 
ENDBRANCH   1  24
BRANCH  18  26
HETATM   26  O2  UNL     1      21.379   4.086  47.668  1.00  0.00    -0.347 OA
HETATM   27  H15 UNL     1      21.095   4.478  46.779  1.00  0.00     0.219 HD
ENDBRANCH  18  26
TORSDOF 2
ENDMDL
MODEL 3
REMARK VINA RESULT:      -8.7      4.497      6.816
REMARK  2 active torsions:
REMARK  status: ('A' for Active; 'I' for Inactive)
REMARK    1  A    between atoms: O1_2  and  C2_3 
REMARK    2  A    between atoms: C16_20  and  O2_21 
ROOT
HETATM    1  C2  UNL     1      24.669   0.988  52.868  1.00  0.00     0.065 C 
HETATM    2  C3  UNL     1      24.011   0.289  53.832  1.00  0.00     0.019 C 
HETATM    3  C4  UNL     1      22.565   0.072  53.466  1.00  0.00     0.045 C 
HETATM    4  C5  UNL     1      21.621  -0.583  54.218  1.00  0.00    -0.005 C 
HETATM    5  C6  UNL     1      20.316  -0.594  53.512  1.00  0.00    -0.031 A 
HETATM    6  C7  UNL     1      19.455  -1.669  53.762  1.00  0.00     0.018 A 
HETATM    7  C8  UNL     1      18.198  -1.917  53.244  1.00  0.00    -0.061 A 
HETATM    8  C9  UNL     1      17.407  -3.115  53.611  1.00  0.00     0.048 C 
HETATM    9  C10 UNL     1      17.740  -0.966  52.363  1.00  0.00     0.007 A 
HETATM   10  C11 UNL     1      18.559   0.104  52.096  1.00  0.00     0.010 A 
HETATM   11  C12 UNL     1      19.836   0.360  52.617  1.00  0.00    -0.030 A 
HETATM   12  C13 UNL     1      20.410   1.609  52.051  1.00  0.00     0.143 A 
HETATM   13  C14 UNL     1      21.465   1.135  51.031  1.00  0.00     0.146 A 
HETATM   14  N1  UNL     1      21.361   0.556  49.741  1.00  0.00    -0.049 NA
HETATM   15  N2  UNL     1      20.283   1.262  48.913  1.00  0.00     0.088 N 
HETATM   16  C15 UNL     1      19.140   2.365  49.088  1.00  0.00     0.376 A 
HETATM   17  N3  UNL     1      18.397   3.160  49.613  1.00  0.00    -0.211 NA
HETATM   18  C16 UNL     1      18.454   3.319  50.981  1.00  0.00     0.159 A 
HETATM   19  C17 UNL     1      19.388   2.536  51.708  1.00  0.00     0.132 A 
HETATM   20  S1  UNL     1      20.020   1.729  50.427  1.00  0.00     0.034 SA
HETATM   21  C18 UNL     1      22.870   1.326  51.361  1.00  0.00     0.017 C 
HETATM   22  C19 UNL     1      24.159   1.535  51.603  1.00  0.00     0.035 C 
HETATM   23  H14 UNL     1      19.927   1.283  47.870  1.00  0.00     0.322 HD
ENDROOT
BRANCH   1  24
HETATM   24  O1  UNL     1      26.033   1.267  53.058  1.00  0.00    -0.356 OA
HETATM   25  C1  UNL     1      26.929   0.346  52.443  1.00  0.00     0.210 C 
ENDBRANCH   1  24
BRANCH  18  26
HETATM   26  O2  UNL     1      18.062   3.884  52.190  1.00  0.00    -0.347 OA
HETATM   27  H15 UNL     1      18.672   3.878  52.998  1.00  0.00     0.219 HD
ENDBRANCH  18  26
TORSDOF 2
ENDMDL
MODEL 4
REMARK VINA RESULT:      -8.6      2.738      5.386
REMARK  2 active torsions:
REMARK  status: ('A' for Active; 'I' for Inactive)
REMARK    1  A    between atoms: O1_2  and  C2_3 
REMARK    2  A    between atoms: C16_20  and  O2_21 
ROOT
HETATM    1  C2  UNL     1      27.184  -0.515  53.437  1.00  0.00     0.065 C 
HETATM    2  C3  UNL     1      26.023  -1.046  53.908  1.00  0.00     0.019 C 
HETATM    3  C4  UNL     1      24.824  -0.300  53.380  1.00  0.00     0.045 C 
HETATM    4  C5  UNL     1      23.506  -0.566  53.665  1.00  0.00    -0.005 C 
HETATM    5  C6  UNL     1      22.621   0.384  52.946  1.00  0.00    -0.031 A 
HETATM    6  C7  UNL     1      21.342  -0.063  52.597  1.00  0.00     0.018 A 
HETATM    7  C8  UNL     1      20.333   0.613  51.936  1.00  0.00    -0.061 A 
HETATM    8  C9  UNL     1      19.021  -0.008  51.637  1.00  0.00     0.048 C 
HETATM    9  C10 UNL     1      20.643   1.903  51.577  1.00  0.00     0.007 A 
HETATM   10  C11 UNL     1      21.892   2.374  51.906  1.00  0.00     0.010 A 
HETATM   11  C12 UNL     1      22.919   1.693  52.575  1.00  0.00    -0.030 A 
HETATM   12  C13 UNL     1      24.132   2.541  52.708  1.00  0.00     0.143 A 
HETATM   13  C14 UNL     1      25.121   1.987  51.663  1.00  0.00     0.146 A 
HETATM   14  N1  UNL     1      25.173   2.072  50.248  1.00  0.00    -0.049 NA
HETATM   15  N2  UNL     1      24.836   3.490  49.777  1.00  0.00     0.088 N 
HETATM   16  C15 UNL     1      24.314   4.879  50.369  1.00  0.00     0.376 A 
HETATM   17  N3  UNL     1      23.882   5.692  51.153  1.00  0.00    -0.211 NA
HETATM   18  C16 UNL     1      23.580   5.283  52.434  1.00  0.00     0.159 A 
HETATM   19  C17 UNL     1      23.792   3.921  52.770  1.00  0.00     0.132 A 
HETATM   20  S1  UNL     1      24.358   3.435  51.309  1.00  0.00     0.034 SA
HETATM   21  C18 UNL     1      26.286   1.257  52.143  1.00  0.00     0.017 C 
HETATM   22  C19 UNL     1      27.388   0.635  52.546  1.00  0.00     0.035 C 
HETATM   23  H14 UNL     1      24.867   4.078  48.845  1.00  0.00     0.322 HD
ENDROOT
BRANCH   1  24
HETATM   24  O1  UNL     1      28.397  -1.105  53.832  1.00  0.00    -0.356 OA
HETATM   25  C1  UNL     1      29.522  -0.232  53.833  1.00  0.00     0.210 C 
ENDBRANCH   1  24
BRANCH  18  26
HETATM   26  O2  UNL     1      23.131   5.482  53.735  1.00  0.00    -0.347 OA
HETATM   27  H15 UNL     1      22.356   6.101  53.937  1.00  0.00     0.219 HD
ENDBRANCH  18  26
TORSDOF 2
ENDMDL
MODEL 5
REMARK VINA RESULT:      -8.5      3.194      6.639
REMARK  2 active torsions:
REMARK  status: ('A' for Active; 'I' for Inactive)
REMARK    1  A    between atoms: O1_2  and  C2_3 
REMARK    2  A    between atoms: C16_20  and  O2_21 
ROOT
HETATM    1  C2  UNL     1      25.947   1.050  52.549  1.00  0.00     0.065 C 
HETATM    2  C3  UNL     1      24.642   0.905  52.190  1.00  0.00     0.019 C 
HETATM    3  C4  UNL     1      24.245   1.911  51.140  1.00  0.00     0.045 C 
HETATM    4  C5  UNL     1      23.003   2.049  50.569  1.00  0.00    -0.005 C 
HETATM    5  C6  UNL     1      23.013   3.146  49.570  1.00  0.00    -0.031 A 
HETATM    6  C7  UNL     1      22.125   3.048  48.493  1.00  0.00     0.018 A 
HETATM    7  C8  UNL     1      21.933   3.924  47.440  1.00  0.00    -0.061 A 
HETATM    8  C9  UNL     1      20.944   3.673  46.366  1.00  0.00     0.048 C 
HETATM    9  C10 UNL     1      22.731   5.042  47.468  1.00  0.00     0.007 A 
HETATM   10  C11 UNL     1      23.614   5.171  48.513  1.00  0.00     0.010 A 
HETATM   11  C12 UNL     1      23.814   4.286  49.583  1.00  0.00    -0.030 A 
HETATM   12  C13 UNL     1      24.889   4.769  50.489  1.00  0.00     0.143 A 
HETATM   13  C14 UNL     1      26.107   3.878  50.173  1.00  0.00     0.146 A 
HETATM   14  N1  UNL     1      27.004   3.831  49.076  1.00  0.00    -0.049 NA
HETATM   15  N2  UNL     1      27.411   5.245  48.647  1.00  0.00     0.088 N 
HETATM   16  C15 UNL     1      27.042   6.767  48.961  1.00  0.00     0.376 A 
HETATM   17  N3  UNL     1      26.472   7.728  49.420  1.00  0.00    -0.211 NA
HETATM   18  C16 UNL     1      25.375   7.525  50.231  1.00  0.00     0.159 A 
HETATM   19  C17 UNL     1      24.968   6.189  50.484  1.00  0.00     0.132 A 
HETATM   20  S1  UNL     1      26.129   5.448  49.591  1.00  0.00     0.034 SA
HETATM   21  C18 UNL     1      26.510   2.893  51.166  1.00  0.00     0.017 C 
HETATM   22  C19 UNL     1      26.940   2.022  52.072  1.00  0.00     0.035 C 
HETATM   23  H14 UNL     1      28.145   5.723  47.978  1.00  0.00     0.322 HD
ENDROOT
BRANCH   1  24
HETATM   24  O1  UNL     1      26.475   0.179  53.516  1.00  0.00    -0.356 OA
HETATM   25  C1  UNL     1      27.698  -0.456  53.155  1.00  0.00     0.210 C 
ENDBRANCH   1  24
BRANCH  18  26
HETATM   26  O2  UNL     1      24.320   7.946  51.032  1.00  0.00    -0.347 OA
HETATM   27  H15 UNL     1      24.334   8.847  51.492  1.00  0.00     0.219 HD
ENDBRANCH  18  26
TORSDOF 2
ENDMDL
MODEL 6
REMARK VINA RESULT:      -8.0      3.993      5.792
REMARK  2 active torsions:
REMARK  status: ('A' for Active; 'I' for Inactive)
REMARK    1  A    between atoms: O1_2  and  C2_3 
REMARK    2  A    between atoms: C16_20  and  O2_21 
ROOT
HETATM    1  C2  UNL     1      25.660   3.627  49.929  1.00  0.00     0.065 C 
HETATM    2  C3  UNL     1      25.802   3.106  51.178  1.00  0.00     0.019 C 
HETATM    3  C4  UNL     1      24.567   2.353  51.604  1.00  0.00     0.045 C 
HETATM    4  C5  UNL     1      24.372   1.717  52.806  1.00  0.00    -0.005 C 
HETATM    5  C6  UNL     1      23.031   1.084  52.842  1.00  0.00    -0.031 A 
HETATM    6  C7  UNL     1      22.879  -0.065  53.628  1.00  0.00     0.018 A 
HETATM    7  C8  UNL     1      21.750  -0.836  53.836  1.00  0.00    -0.061 A 
HETATM    8  C9  UNL     1      21.754  -2.035  54.705  1.00  0.00     0.048 C 
HETATM    9  C10 UNL     1      20.627  -0.402  53.172  1.00  0.00     0.007 A 
HETATM   10  C11 UNL     1      20.740   0.723  52.392  1.00  0.00     0.010 A 
HETATM   11  C12 UNL     1      21.882   1.508  52.176  1.00  0.00    -0.030 A 
HETATM   12  C13 UNL     1      21.601   2.624  51.236  1.00  0.00     0.143 A 
HETATM   13  C14 UNL     1      22.252   2.196  49.905  1.00  0.00     0.146 A 
HETATM   14  N1  UNL     1      21.895   1.234  48.927  1.00  0.00    -0.049 NA
HETATM   15  N2  UNL     1      20.389   1.275  48.648  1.00  0.00     0.088 N 
HETATM   16  C15 UNL     1      19.065   1.972  49.208  1.00  0.00     0.376 A 
HETATM   17  N3  UNL     1      18.335   2.625  49.916  1.00  0.00    -0.211 NA
HETATM   18  C16 UNL     1      18.862   3.221  51.042  1.00  0.00     0.159 A 
HETATM   19  C17 UNL     1      20.242   3.035  51.316  1.00  0.00     0.132 A 
HETATM   20  S1  UNL     1      20.584   2.096  50.014  1.00  0.00     0.034 SA
HETATM   21  C18 UNL     1      23.450   2.901  49.472  1.00  0.00     0.017 C 
HETATM   22  C19 UNL     1      24.510   3.559  49.017  1.00  0.00     0.035 C 
HETATM   23  H14 UNL     1      19.674   0.853  47.924  1.00  0.00     0.322 HD
ENDROOT
BRANCH   1  24
HETATM   24  O1  UNL     1      26.732   4.354  49.383  1.00  0.00    -0.356 OA
HETATM   25  C1  UNL     1      26.395   5.645  48.884  1.00  0.00     0.210 C 
ENDBRANCH   1  24
BRANCH  18  26
HETATM   26  O2  UNL     1      18.788   3.993  52.196  1.00  0.00    -0.347 OA
HETATM   27  H15 UNL     1      19.365   4.816  52.318  1.00  0.00     0.219 HD
ENDBRANCH  18  26
TORSDOF 2
ENDMDL
MODEL 7
REMARK VINA RESULT:      -7.8      5.867      9.686
REMARK  2 active torsions:
REMARK  status: ('A' for Active; 'I' for Inactive)
REMARK    1  A    between atoms: O1_2  and  C2_3 
REMARK    2  A    between atoms: C16_20  and  O2_21 
ROOT
HETATM    1  C2  UNL     1      24.462   5.678  50.454  1.00  0.00     0.065 C 
HETATM    2  C3  UNL     1      25.280   4.750  49.888  1.00  0.00     0.019 C 
HETATM    3  C4  UNL     1      26.509   5.389  49.293  1.00  0.00     0.045 C 
HETATM    4  C5  UNL     1      27.530   4.744  48.638  1.00  0.00    -0.005 C 
HETATM    5  C6  UNL     1      28.564   5.718  48.208  1.00  0.00    -0.031 A 
HETATM    6  C7  UNL     1      29.883   5.260  48.112  1.00  0.00     0.018 A 
HETATM    7  C8  UNL     1      31.020   5.951  47.736  1.00  0.00    -0.061 A 
HETATM    8  C9  UNL     1      32.358   5.317  47.686  1.00  0.00     0.048 C 
HETATM    9  C10 UNL     1      30.811   7.271  47.414  1.00  0.00     0.007 A 
HETATM   10  C11 UNL     1      29.527   7.753  47.496  1.00  0.00     0.010 A 
HETATM   11  C12 UNL     1      28.370   7.058  47.878  1.00  0.00    -0.030 A 
HETATM   12  C13 UNL     1      27.179   7.946  47.872  1.00  0.00     0.143 A 
HETATM   13  C14 UNL     1      26.893   8.239  49.358  1.00  0.00     0.146 A 
HETATM   14  N1  UNL     1      27.542   9.056  50.319  1.00  0.00    -0.049 NA
HETATM   15  N2  UNL     1      27.936  10.404  49.707  1.00  0.00     0.088 N 
HETATM   16  C15 UNL     1      27.966  11.136  48.287  1.00  0.00     0.376 A 
HETATM   17  N3  UNL     1      27.877  11.310  47.095  1.00  0.00    -0.211 NA
HETATM   18  C16 UNL     1      27.539  10.241  46.291  1.00  0.00     0.159 A 
HETATM   19  C17 UNL     1      27.314   8.984  46.909  1.00  0.00     0.132 A 
HETATM   20  S1  UNL     1      27.595   9.460  48.453  1.00  0.00     0.034 SA
HETATM   21  C18 UNL     1      25.716   7.629  49.961  1.00  0.00     0.017 C 
HETATM   22  C19 UNL     1      24.622   7.137  50.530  1.00  0.00     0.035 C 
HETATM   23  H14 UNL     1      28.317  11.381  50.045  1.00  0.00     0.322 HD
ENDROOT
BRANCH   1  24
HETATM   24  O1  UNL     1      23.273   5.239  51.060  1.00  0.00    -0.356 OA
HETATM   25  C1  UNL     1      23.417   4.755  52.393  1.00  0.00     0.210 C 
ENDBRANCH   1  24
BRANCH  18  26
HETATM   26  O2  UNL     1      27.265   9.635  45.070  1.00  0.00    -0.347 OA
HETATM   27  H15 UNL     1      26.317   9.413  44.793  1.00  0.00     0.219 HD
ENDBRANCH  18  26
TORSDOF 2
ENDMDL
MODEL 8
REMARK VINA RESULT:      -7.8      7.737     10.424
REMARK  2 active torsions:
REMARK  status: ('A' for Active; 'I' for Inactive)
REMARK    1  A    between atoms: O1_2  and  C2_3 
REMARK    2  A    between atoms: C16_20  and  O2_21 
ROOT
HETATM    1  C2  UNL     1      33.394   5.331  45.697  1.00  0.00     0.065 C 
HETATM    2  C3  UNL     1      32.639   4.504  46.470  1.00  0.00     0.019 C 
HETATM    3  C4  UNL     1      31.426   5.214  47.014  1.00  0.00     0.045 C 
HETATM    4  C5  UNL     1      30.465   4.677  47.836  1.00  0.00    -0.005 C 
HETATM    5  C6  UNL     1      29.426   5.691  48.146  1.00  0.00    -0.031 A 
HETATM    6  C7  UNL     1      28.130   5.230  48.403  1.00  0.00     0.018 A 
HETATM    7  C8  UNL     1      26.994   5.953  48.717  1.00  0.00    -0.061 A 
HETATM    8  C9  UNL     1      25.682   5.310  48.962  1.00  0.00     0.048 C 
HETATM    9  C10 UNL     1      27.178   7.314  48.783  1.00  0.00     0.007 A 
HETATM   10  C11 UNL     1      28.440   7.800  48.536  1.00  0.00     0.010 A 
HETATM   11  C12 UNL     1      29.594   7.072  48.216  1.00  0.00    -0.030 A 
HETATM   12  C13 UNL     1      30.755   7.972  47.989  1.00  0.00     0.143 A 
HETATM   13  C14 UNL     1      30.947   7.995  46.459  1.00  0.00     0.146 A 
HETATM   14  N1  UNL     1      30.220   8.609  45.409  1.00  0.00    -0.049 NA
HETATM   15  N2  UNL     1      29.817  10.037  45.789  1.00  0.00     0.088 N 
HETATM   16  C15 UNL     1      29.843  11.015  47.053  1.00  0.00     0.376 A 
HETATM   17  N3  UNL     1      29.994  11.406  48.187  1.00  0.00    -0.211 NA
HETATM   18  C16 UNL     1      30.410  10.509  49.148  1.00  0.00     0.159 A 
HETATM   19  C17 UNL     1      30.641   9.164  48.755  1.00  0.00     0.132 A 
HETATM   20  S1  UNL     1      30.259   9.346  47.170  1.00  0.00     0.034 SA
HETATM   21  C18 UNL     1      32.107   7.311  45.905  1.00  0.00     0.017 C 
HETATM   22  C19 UNL     1      33.184   6.747  45.369  1.00  0.00     0.035 C 
HETATM   23  H14 UNL     1      29.386  10.929  45.305  1.00  0.00     0.322 HD
ENDROOT
BRANCH   1  24
HETATM   24  O1  UNL     1      34.561   4.815  45.108  1.00  0.00    -0.356 OA
HETATM   25  C1  UNL     1      35.095   3.655  45.739  1.00  0.00     0.210 C 
ENDBRANCH   1  24
BRANCH  18  26
HETATM   26  O2  UNL     1      30.773  10.141  50.439  1.00  0.00    -0.347 OA
HETATM   27  H15 UNL     1      30.848  10.825  51.181  1.00  0.00     0.219 HD
ENDBRANCH  18  26
TORSDOF 2
ENDMDL
MODEL 9
REMARK VINA RESULT:      -7.8      3.522      6.103
REMARK  2 active torsions:
REMARK  status: ('A' for Active; 'I' for Inactive)
REMARK    1  A    between atoms: O1_2  and  C2_3 
REMARK    2  A    between atoms: C16_20  and  O2_21 
ROOT
HETATM    1  C2  UNL     1      19.088   0.955  51.820  1.00  0.00     0.065 C 
HETATM    2  C3  UNL     1      19.937  -0.060  52.137  1.00  0.00     0.019 C 
HETATM    3  C4  UNL     1      21.339   0.446  52.368  1.00  0.00     0.045 C 
HETATM    4  C5  UNL     1      22.438  -0.313  52.691  1.00  0.00    -0.005 C 
HETATM    5  C6  UNL     1      23.634   0.552  52.843  1.00  0.00    -0.031 A 
HETATM    6  C7  UNL     1      24.631   0.127  53.729  1.00  0.00     0.018 A 
HETATM    7  C8  UNL     1      25.831   0.735  54.048  1.00  0.00    -0.061 A 
HETATM    8  C9  UNL     1      26.787   0.152  55.017  1.00  0.00     0.048 C 
HETATM    9  C10 UNL     1      26.065   1.923  53.397  1.00  0.00     0.007 A 
HETATM   10  C11 UNL     1      25.107   2.369  52.519  1.00  0.00     0.010 A 
HETATM   11  C12 UNL     1      23.888   1.758  52.192  1.00  0.00    -0.030 A 
HETATM   12  C13 UNL     1      23.114   2.577  51.224  1.00  0.00     0.143 A 
HETATM   13  C14 UNL     1      21.994   3.228  52.060  1.00  0.00     0.146 A 
HETATM   14  N1  UNL     1      21.991   4.282  53.009  1.00  0.00    -0.049 NA
HETATM   15  N2  UNL     1      22.871   5.443  52.533  1.00  0.00     0.088 N 
HETATM   16  C15 UNL     1      23.900   5.791  51.362  1.00  0.00     0.376 A 
HETATM   17  N3  UNL     1      24.615   5.655  50.398  1.00  0.00    -0.211 NA
HETATM   18  C16 UNL     1      24.718   4.407  49.819  1.00  0.00     0.159 A 
HETATM   19  C17 UNL     1      23.976   3.341  50.390  1.00  0.00     0.132 A 
HETATM   20  S1  UNL     1      23.275   4.202  51.598  1.00  0.00     0.034 SA
HETATM   21  C18 UNL     1      20.631   2.755  51.863  1.00  0.00     0.017 C 
HETATM   22  C19 UNL     1      19.369   2.389  51.670  1.00  0.00     0.035 C 
HETATM   23  H14 UNL     1      23.085   6.486  52.820  1.00  0.00     0.322 HD
ENDROOT
BRANCH   1  24
HETATM   24  O1  UNL     1      17.738   0.647  51.582  1.00  0.00    -0.356 OA
HETATM   25  C1  UNL     1      16.879   1.773  51.432  1.00  0.00     0.210 C 
ENDBRANCH   1  24
BRANCH  18  26
HETATM   26  O2  UNL     1      25.200   3.503  48.879  1.00  0.00    -0.347 OA
HETATM   27  H15 UNL     1      25.659   3.816  48.033  1.00  0.00     0.219 HD
ENDBRANCH  18  26
TORSDOF 2
ENDMDL
