MODEL 1
REMARK VINA RESULT:      -9.5      0.000      0.000
REMARK  0 active torsions:
REMARK  status: ('A' for Active; 'I' for Inactive)
ROOT
HETATM    1  F1  UNL     1      14.483  -3.048  51.092  1.00  0.00    -0.204 F 
HETATM    2  C1  UNL     1      15.542  -2.603  51.813  1.00  0.00     0.138 A 
HETATM    3  C2  UNL     1      16.104  -1.349  51.676  1.00  0.00     0.053 A 
HETATM    4  C3  UNL     1      17.178  -0.892  52.406  1.00  0.00    -0.027 A 
HETATM    5  C4  UNL     1      17.737  -1.740  53.337  1.00  0.00     0.037 A 
HETATM    6  C5  UNL     1      17.151  -3.005  53.457  1.00  0.00     0.056 A 
HETATM    7  C6  UNL     1      16.058  -3.495  52.729  1.00  0.00     0.074 A 
HETATM    8 CL1  UNL     1      15.490  -5.116  53.045  1.00  0.00    -0.081 Cl
HETATM    9  N1  UNL     1      18.845  -1.508  54.199  1.00  0.00    -0.368 N 
HETATM   10  C7  UNL     1      20.257  -1.471  53.877  1.00  0.00     0.290 C 
HETATM   11  O1  UNL     1      20.624  -0.510  52.977  1.00  0.00    -0.367 OA
HETATM   12  C8  UNL     1      22.000  -0.627  52.768  1.00  0.00     0.216 C 
HETATM   13  C9  UNL     1      22.790  -0.442  54.002  1.00  0.00     0.117 C 
HETATM   14  N2  UNL     1      24.026  -0.613  53.724  1.00  0.00    -0.256 N 
HETATM   15  C10 UNL     1      25.069  -0.515  54.656  1.00  0.00     0.231 A 
HETATM   16  N3  UNL     1      25.417  -0.744  53.415  1.00  0.00    -0.254 N 
HETATM   17  C11 UNL     1      26.775  -0.882  53.072  1.00  0.00     0.118 C 
HETATM   18  C12 UNL     1      27.420   0.000  52.349  1.00  0.00     0.021 C 
HETATM   19  C13 UNL     1      26.904   1.225  51.782  1.00  0.00     0.025 C 
HETATM   20  C14 UNL     1      25.874   2.018  51.628  1.00  0.00     0.134 C 
HETATM   21  O2  UNL     1      24.826   2.894  51.432  1.00  0.00    -0.363 OA
HETATM   22  C15 UNL     1      24.260   2.832  50.107  1.00  0.00     0.174 C 
HETATM   23  C16 UNL     1      22.996   3.612  50.056  1.00  0.00     0.027 C 
HETATM   24  C17 UNL     1      22.329   3.616  48.724  1.00  0.00     0.006 C 
HETATM   25  C18 UNL     1      21.958   2.263  48.216  1.00  0.00     0.033 C 
HETATM   26  P1  UNL     1      20.804   1.358  49.333  1.00  0.00    -0.104 P 
HETATM   27  C19 UNL     1      19.185   2.254  49.380  1.00  0.00     0.198 C 
HETATM   28  O3  UNL     1      18.523   2.010  50.584  1.00  0.00    -0.387 OA
HETATM   29  C20 UNL     1      18.257   0.635  50.737  1.00  0.00     0.172 C 
HETATM   30  C21 UNL     1      17.563   0.493  52.056  1.00  0.00     0.067 C 
HETATM   31  H3  UNL     1      18.332  -1.390  55.103  1.00  0.00     0.161 HD
HETATM   32  H22 UNL     1      20.661  -0.015  48.893  1.00  0.00     0.059 HD
ENDROOT
TORSDOF 0
ENDMDL
MODEL 2
REMARK VINA RESULT:      -8.3      6.311      9.731
REMARK  0 active torsions:
REMARK  status: ('A' for Active; 'I' for Inactive)
ROOT
HETATM    1  F1  UNL     1      27.708   0.694  53.093  1.00  0.00    -0.204 F 
HETATM    2  C1  UNL     1      26.657   1.199  52.399  1.00  0.00     0.138 A 
HETATM    3  C2  UNL     1      26.777   1.972  51.261  1.00  0.00     0.053 A 
HETATM    4  C3  UNL     1      25.714   2.485  50.552  1.00  0.00    -0.027 A 
HETATM    5  C4  UNL     1      24.442   2.215  51.006  1.00  0.00     0.037 A 
HETATM    6  C5  UNL     1      24.346   1.430  52.160  1.00  0.00     0.056 A 
HETATM    7  C6  UNL     1      25.410   0.894  52.899  1.00  0.00     0.074 A 
HETATM    8 CL1  UNL     1      25.057  -0.062  54.318  1.00  0.00    -0.081 Cl
HETATM    9  N1  UNL     1      23.196   2.632  50.460  1.00  0.00    -0.368 N 
HETATM   10  C7  UNL     1      22.574   3.940  50.507  1.00  0.00     0.290 C 
HETATM   11  O1  UNL     1      23.287   4.945  49.916  1.00  0.00    -0.367 OA
HETATM   12  C8  UNL     1      22.561   6.129  50.068  1.00  0.00     0.216 C 
HETATM   13  C9  UNL     1      21.224   6.070  49.443  1.00  0.00     0.117 C 
HETATM   14  N2  UNL     1      20.618   7.172  49.673  1.00  0.00    -0.256 N 
HETATM   15  C10 UNL     1      19.322   7.471  49.230  1.00  0.00     0.231 A 
HETATM   16  N3  UNL     1      19.951   8.422  49.874  1.00  0.00    -0.254 N 
HETATM   17  C11 UNL     1      19.327   9.665  50.092  1.00  0.00     0.118 C 
HETATM   18  C12 UNL     1      19.718  10.770  49.507  1.00  0.00     0.021 C 
HETATM   19  C13 UNL     1      20.806  10.938  48.572  1.00  0.00     0.025 C 
HETATM   20  C14 UNL     1      21.782  10.374  47.907  1.00  0.00     0.134 C 
HETATM   21  O2  UNL     1      22.825   9.837  47.180  1.00  0.00    -0.363 OA
HETATM   22  C15 UNL     1      24.127  10.149  47.717  1.00  0.00     0.174 C 
HETATM   23  C16 UNL     1      25.168   9.338  47.033  1.00  0.00     0.027 C 
HETATM   24  C17 UNL     1      26.556   9.589  47.513  1.00  0.00     0.006 C 
HETATM   25  C18 UNL     1      26.764   9.322  48.967  1.00  0.00     0.033 C 
HETATM   26  P1  UNL     1      26.391   7.581  49.447  1.00  0.00    -0.104 P 
HETATM   27  C19 UNL     1      27.613   6.457  48.628  1.00  0.00     0.198 C 
HETATM   28  O3  UNL     1      27.066   5.185  48.448  1.00  0.00    -0.387 OA
HETATM   29  C20 UNL     1      26.718   4.612  49.687  1.00  0.00     0.172 C 
HETATM   30  C21 UNL     1      26.136   3.269  49.371  1.00  0.00     0.067 C 
HETATM   31  H3  UNL     1      22.882   1.726  50.043  1.00  0.00     0.161 HD
HETATM   32  H22 UNL     1      26.402   7.450  50.889  1.00  0.00     0.059 HD
ENDROOT
TORSDOF 0
ENDMDL
MODEL 3
REMARK VINA RESULT:      -8.3      1.935      2.219
REMARK  0 active torsions:
REMARK  status: ('A' for Active; 'I' for Inactive)
ROOT
HETATM    1  F1  UNL     1      13.264  -0.728  49.392  1.00  0.00    -0.204 F 
HETATM    2  C1  UNL     1      14.239  -0.719  50.334  1.00  0.00     0.138 A 
HETATM    3  C2  UNL     1      14.873   0.422  50.785  1.00  0.00     0.053 A 
HETATM    4  C3  UNL     1      15.863   0.437  51.742  1.00  0.00    -0.027 A 
HETATM    5  C4  UNL     1      16.254  -0.765  52.289  1.00  0.00     0.037 A 
HETATM    6  C5  UNL     1      15.597  -1.907  51.816  1.00  0.00     0.056 A 
HETATM    7  C6  UNL     1      14.587  -1.950  50.845  1.00  0.00     0.074 A 
HETATM    8 CL1  UNL     1      13.904  -3.497  50.403  1.00  0.00    -0.081 Cl
HETATM    9  N1  UNL     1      17.248  -1.012  53.276  1.00  0.00    -0.368 N 
HETATM   10  C7  UNL     1      18.691  -0.987  53.141  1.00  0.00     0.290 C 
HETATM   11  O1  UNL     1      19.218   0.216  52.762  1.00  0.00    -0.367 OA
HETATM   12  C8  UNL     1      20.603   0.061  52.661  1.00  0.00     0.216 C 
HETATM   13  C9  UNL     1      21.232  -0.349  53.933  1.00  0.00     0.117 C 
HETATM   14  N2  UNL     1      22.484  -0.512  53.735  1.00  0.00    -0.256 N 
HETATM   15  C10 UNL     1      23.399  -0.903  54.722  1.00  0.00     0.231 A 
HETATM   16  N3  UNL     1      23.895  -0.643  53.539  1.00  0.00    -0.254 N 
HETATM   17  C11 UNL     1      25.279  -0.761  53.308  1.00  0.00     0.118 C 
HETATM   18  C12 UNL     1      26.055   0.271  53.083  1.00  0.00     0.021 C 
HETATM   19  C13 UNL     1      25.677   1.664  53.025  1.00  0.00     0.025 C 
HETATM   20  C14 UNL     1      24.715   2.548  53.112  1.00  0.00     0.134 C 
HETATM   21  O2  UNL     1      23.745   3.526  53.192  1.00  0.00    -0.363 OA
HETATM   22  C15 UNL     1      23.355   4.062  51.911  1.00  0.00     0.174 C 
HETATM   23  C16 UNL     1      22.148   4.914  52.062  1.00  0.00     0.027 C 
HETATM   24  C17 UNL     1      21.662   5.523  50.791  1.00  0.00     0.006 C 
HETATM   25  C18 UNL     1      21.297   4.535  49.734  1.00  0.00     0.033 C 
HETATM   26  P1  UNL     1      19.964   3.373  50.255  1.00  0.00    -0.104 P 
HETATM   27  C19 UNL     1      18.398   4.326  50.507  1.00  0.00     0.198 C 
HETATM   28  O3  UNL     1      17.573   3.681  51.429  1.00  0.00    -0.387 OA
HETATM   29  C20 UNL     1      17.224   2.395  50.972  1.00  0.00     0.172 C 
HETATM   30  C21 UNL     1      16.356   1.800  52.037  1.00  0.00     0.067 C 
HETATM   31  H3  UNL     1      16.628  -1.221  54.092  1.00  0.00     0.161 HD
HETATM   32  H22 UNL     1      19.815   2.317  49.275  1.00  0.00     0.059 HD
ENDROOT
TORSDOF 0
ENDMDL
MODEL 4
REMARK VINA RESULT:      -8.2      5.257      7.655
REMARK  0 active torsions:
REMARK  status: ('A' for Active; 'I' for Inactive)
ROOT
HETATM    1  F1  UNL     1      22.605  -1.578  53.065  1.00  0.00    -0.204 F 
HETATM    2  C1  UNL     1      22.940  -0.275  52.892  1.00  0.00     0.138 A 
HETATM    3  C2  UNL     1      22.170   0.640  52.203  1.00  0.00     0.053 A 
HETATM    4  C3  UNL     1      22.505   1.964  52.026  1.00  0.00    -0.027 A 
HETATM    5  C4  UNL     1      23.690   2.411  52.568  1.00  0.00     0.037 A 
HETATM    6  C5  UNL     1      24.453   1.465  53.262  1.00  0.00     0.056 A 
HETATM    7  C6  UNL     1      24.135   0.114  53.458  1.00  0.00     0.074 A 
HETATM    8 CL1  UNL     1      25.242  -0.892  54.360  1.00  0.00    -0.081 Cl
HETATM    9  N1  UNL     1      24.255   3.716  52.516  1.00  0.00    -0.368 N 
HETATM   10  C7  UNL     1      24.899   4.385  51.404  1.00  0.00     0.290 C 
HETATM   11  O1  UNL     1      24.112   4.570  50.302  1.00  0.00    -0.367 OA
HETATM   12  C8  UNL     1      24.887   5.205  49.328  1.00  0.00     0.216 C 
HETATM   13  C9  UNL     1      25.402   6.518  49.764  1.00  0.00     0.117 C 
HETATM   14  N2  UNL     1      26.134   7.000  48.834  1.00  0.00    -0.256 N 
HETATM   15  C10 UNL     1      26.791   8.236  48.901  1.00  0.00     0.231 A 
HETATM   16  N3  UNL     1      26.908   7.575  47.777  1.00  0.00    -0.254 N 
HETATM   17  C11 UNL     1      27.664   8.107  46.715  1.00  0.00     0.118 C 
HETATM   18  C12 UNL     1      27.124   8.523  45.595  1.00  0.00     0.021 C 
HETATM   19  C13 UNL     1      25.725   8.520  45.234  1.00  0.00     0.025 C 
HETATM   20  C14 UNL     1      24.498   8.231  45.587  1.00  0.00     0.134 C 
HETATM   21  O2  UNL     1      23.184   7.949  45.903  1.00  0.00    -0.363 OA
HETATM   22  C15 UNL     1      22.667   6.779  45.236  1.00  0.00     0.174 C 
HETATM   23  C16 UNL     1      21.350   6.405  45.813  1.00  0.00     0.027 C 
HETATM   24  C17 UNL     1      20.724   5.205  45.189  1.00  0.00     0.006 C 
HETATM   25  C18 UNL     1      21.544   3.962  45.285  1.00  0.00     0.033 C 
HETATM   26  P1  UNL     1      21.916   3.467  47.021  1.00  0.00    -0.104 P 
HETATM   27  C19 UNL     1      20.336   3.002  47.866  1.00  0.00     0.198 C 
HETATM   28  O3  UNL     1      20.438   3.203  49.244  1.00  0.00    -0.387 OA
HETATM   29  C20 UNL     1      21.466   2.410  49.789  1.00  0.00     0.172 C 
HETATM   30  C21 UNL     1      21.490   2.715  51.254  1.00  0.00     0.067 C 
HETATM   31  H3  UNL     1      24.074   4.017  53.501  1.00  0.00     0.161 HD
HETATM   32  H22 UNL     1      22.886   2.392  47.035  1.00  0.00     0.059 HD
ENDROOT
TORSDOF 0
ENDMDL
MODEL 5
REMARK VINA RESULT:      -8.1      5.231      9.514
REMARK  0 active torsions:
REMARK  status: ('A' for Active; 'I' for Inactive)
ROOT
HETATM    1  F1  UNL     1      26.573   6.748  48.369  1.00  0.00    -0.204 F 
HETATM    2  C1  UNL     1      25.325   6.541  48.858  1.00  0.00     0.138 A 
HETATM    3  C2  UNL     1      25.055   5.935  50.069  1.00  0.00     0.053 A 
HETATM    4  C3  UNL     1      23.790   5.723  50.569  1.00  0.00    -0.027 A 
HETATM    5  C4  UNL     1      22.716   6.140  49.814  1.00  0.00     0.037 A 
HETATM    6  C5  UNL     1      23.015   6.751  48.591  1.00  0.00     0.056 A 
HETATM    7  C6  UNL     1      24.291   6.979  48.059  1.00  0.00     0.074 A 
HETATM    8 CL1  UNL     1      24.431   7.762  46.503  1.00  0.00    -0.081 Cl
HETATM    9  N1  UNL     1      21.328   6.029  50.105  1.00  0.00    -0.368 N 
HETATM   10  C7  UNL     1      20.478   4.856  50.059  1.00  0.00     0.290 C 
HETATM   11  O1  UNL     1      20.841   3.841  50.899  1.00  0.00    -0.367 OA
HETATM   12  C8  UNL     1      19.938   2.792  50.714  1.00  0.00     0.216 C 
HETATM   13  C9  UNL     1      18.542   3.173  51.011  1.00  0.00     0.117 C 
HETATM   14  N2  UNL     1      17.786   2.171  50.768  1.00  0.00    -0.256 N 
HETATM   15  C10 UNL     1      16.394   2.169  50.936  1.00  0.00     0.231 A 
HETATM   16  N3  UNL     1      16.936   1.039  50.557  1.00  0.00    -0.254 N 
HETATM   17  C11 UNL     1      16.132  -0.095  50.336  1.00  0.00     0.118 C 
HETATM   18  C12 UNL     1      16.167  -1.153  51.109  1.00  0.00     0.021 C 
HETATM   19  C13 UNL     1      16.988  -1.367  52.278  1.00  0.00     0.025 C 
HETATM   20  C14 UNL     1      17.903  -0.889  53.083  1.00  0.00     0.134 C 
HETATM   21  O2  UNL     1      18.864  -0.439  53.965  1.00  0.00    -0.363 OA
HETATM   22  C15 UNL     1      20.158  -1.048  53.772  1.00  0.00     0.174 C 
HETATM   23  C16 UNL     1      21.180  -0.337  54.583  1.00  0.00     0.027 C 
HETATM   24  C17 UNL     1      22.558  -0.893  54.458  1.00  0.00     0.006 C 
HETATM   25  C18 UNL     1      23.104  -0.883  53.069  1.00  0.00     0.033 C 
HETATM   26  P1  UNL     1      23.193   0.806  52.335  1.00  0.00    -0.104 P 
HETATM   27  C19 UNL     1      24.425   1.811  53.284  1.00  0.00     0.198 C 
HETATM   28  O3  UNL     1      24.119   3.170  53.200  1.00  0.00    -0.387 OA
HETATM   29  C20 UNL     1      24.151   3.606  51.861  1.00  0.00     0.172 C 
HETATM   30  C21 UNL     1      23.799   5.061  51.893  1.00  0.00     0.067 C 
HETATM   31  H3  UNL     1      21.125   7.028  50.342  1.00  0.00     0.161 HD
HETATM   32  H22 UNL     1      23.521   0.719  50.927  1.00  0.00     0.059 HD
ENDROOT
TORSDOF 0
ENDMDL
MODEL 6
REMARK VINA RESULT:      -7.6      5.380      8.315
REMARK  0 active torsions:
REMARK  status: ('A' for Active; 'I' for Inactive)
ROOT
HETATM    1  F1  UNL     1      23.903  -1.118  53.655  1.00  0.00    -0.204 F 
HETATM    2  C1  UNL     1      23.945   0.186  53.285  1.00  0.00     0.138 A 
HETATM    3  C2  UNL     1      22.848   0.909  52.861  1.00  0.00     0.053 A 
HETATM    4  C3  UNL     1      22.885   2.233  52.485  1.00  0.00    -0.027 A 
HETATM    5  C4  UNL     1      24.096   2.886  52.531  1.00  0.00     0.037 A 
HETATM    6  C5  UNL     1      25.194   2.133  52.964  1.00  0.00     0.056 A 
HETATM    7  C6  UNL     1      25.184   0.786  53.352  1.00  0.00     0.074 A 
HETATM    8 CL1  UNL     1      26.681   0.041  53.859  1.00  0.00    -0.081 Cl
HETATM    9  N1  UNL     1      24.393   4.235  52.190  1.00  0.00    -0.368 N 
HETATM   10  C7  UNL     1      24.495   4.841  50.877  1.00  0.00     0.290 C 
HETATM   11  O1  UNL     1      23.355   4.793  50.124  1.00  0.00    -0.367 OA
HETATM   12  C8  UNL     1      23.631   5.397  48.895  1.00  0.00     0.216 C 
HETATM   13  C9  UNL     1      24.049   6.807  49.026  1.00  0.00     0.117 C 
HETATM   14  N2  UNL     1      24.325   7.260  47.863  1.00  0.00    -0.256 N 
HETATM   15  C10 UNL     1      24.758   8.568  47.604  1.00  0.00     0.231 A 
HETATM   16  N3  UNL     1      24.581   7.796  46.562  1.00  0.00    -0.254 N 
HETATM   17  C11 UNL     1      24.825   8.288  45.265  1.00  0.00     0.118 C 
HETATM   18  C12 UNL     1      23.871   8.495  44.391  1.00  0.00     0.021 C 
HETATM   19  C13 UNL     1      22.453   8.274  44.561  1.00  0.00     0.025 C 
HETATM   20  C14 UNL     1      21.489   7.879  45.353  1.00  0.00     0.134 C 
HETATM   21  O2  UNL     1      20.429   7.476  46.141  1.00  0.00    -0.363 OA
HETATM   22  C15 UNL     1      19.907   6.179  45.787  1.00  0.00     0.174 C 
HETATM   23  C16 UNL     1      18.949   5.716  46.825  1.00  0.00     0.027 C 
HETATM   24  C17 UNL     1      18.345   4.381  46.553  1.00  0.00     0.006 C 
HETATM   25  C18 UNL     1      19.334   3.270  46.429  1.00  0.00     0.033 C 
HETATM   26  P1  UNL     1      20.361   3.038  47.943  1.00  0.00    -0.104 P 
HETATM   27  C19 UNL     1      19.269   2.484  49.331  1.00  0.00     0.198 C 
HETATM   28  O3  UNL     1      19.810   2.861  50.562  1.00  0.00    -0.387 OA
HETATM   29  C20 UNL     1      21.076   2.273  50.750  1.00  0.00     0.172 C 
HETATM   30  C21 UNL     1      21.559   2.753  52.084  1.00  0.00     0.067 C 
HETATM   31  H3  UNL     1      24.520   4.628  53.151  1.00  0.00     0.161 HD
HETATM   32  H22 UNL     1      21.433   2.101  47.677  1.00  0.00     0.059 HD
ENDROOT
TORSDOF 0
ENDMDL
MODEL 7
REMARK VINA RESULT:      -7.6      5.244      8.773
REMARK  0 active torsions:
REMARK  status: ('A' for Active; 'I' for Inactive)
ROOT
HETATM    1  F1  UNL     1      24.404  -0.366  54.170  1.00  0.00    -0.204 F 
HETATM    2  C1  UNL     1      24.262   0.591  53.219  1.00  0.00     0.138 A 
HETATM    3  C2  UNL     1      23.165   1.422  53.110  1.00  0.00     0.053 A 
HETATM    4  C3  UNL     1      23.017   2.395  52.147  1.00  0.00    -0.027 A 
HETATM    5  C4  UNL     1      24.028   2.553  51.225  1.00  0.00     0.037 A 
HETATM    6  C5  UNL     1      25.129   1.699  51.355  1.00  0.00     0.056 A 
HETATM    7  C6  UNL     1      25.305   0.703  52.325  1.00  0.00     0.074 A 
HETATM    8 CL1  UNL     1      26.767  -0.254  52.299  1.00  0.00    -0.081 Cl
HETATM    9  N1  UNL     1      24.107   3.471  50.141  1.00  0.00    -0.368 N 
HETATM   10  C7  UNL     1      23.408   3.445  48.872  1.00  0.00     0.290 C 
HETATM   11  O1  UNL     1      22.045   3.504  48.958  1.00  0.00    -0.367 OA
HETATM   12  C8  UNL     1      21.534   3.448  47.659  1.00  0.00     0.216 C 
HETATM   13  C9  UNL     1      22.000   4.560  46.807  1.00  0.00     0.117 C 
HETATM   14  N2  UNL     1      21.524   4.401  45.631  1.00  0.00    -0.256 N 
HETATM   15  C10 UNL     1      21.759   5.269  44.556  1.00  0.00     0.231 A 
HETATM   16  N3  UNL     1      20.950   4.266  44.328  1.00  0.00    -0.254 N 
HETATM   17  C11 UNL     1      20.368   4.098  43.057  1.00  0.00     0.118 C 
HETATM   18  C12 UNL     1      19.087   4.264  42.833  1.00  0.00     0.021 C 
HETATM   19  C13 UNL     1      18.064   4.631  43.785  1.00  0.00     0.025 C 
HETATM   20  C14 UNL     1      17.772   4.934  45.024  1.00  0.00     0.134 C 
HETATM   21  O2  UNL     1      17.402   5.260  46.314  1.00  0.00    -0.363 OA
HETATM   22  C15 UNL     1      16.721   4.194  47.007  1.00  0.00     0.174 C 
HETATM   23  C16 UNL     1      16.583   4.532  48.448  1.00  0.00     0.027 C 
HETATM   24  C17 UNL     1      15.886   3.494  49.259  1.00  0.00     0.006 C 
HETATM   25  C18 UNL     1      16.546   2.155  49.246  1.00  0.00     0.033 C 
HETATM   26  P1  UNL     1      18.274   2.191  49.886  1.00  0.00    -0.104 P 
HETATM   27  C19 UNL     1      18.241   2.633  51.684  1.00  0.00     0.198 C 
HETATM   28  O3  UNL     1      19.437   3.246  52.061  1.00  0.00    -0.387 OA
HETATM   29  C20 UNL     1      20.529   2.380  51.851  1.00  0.00     0.172 C 
HETATM   30  C21 UNL     1      21.746   3.142  52.276  1.00  0.00     0.067 C 
HETATM   31  H3  UNL     1      24.812   4.136  50.534  1.00  0.00     0.161 HD
HETATM   32  H22 UNL     1      18.920   0.917  49.644  1.00  0.00     0.059 HD
ENDROOT
TORSDOF 0
ENDMDL
MODEL 8
REMARK VINA RESULT:      -7.6      4.649      6.357
REMARK  0 active torsions:
REMARK  status: ('A' for Active; 'I' for Inactive)
ROOT
HETATM    1  F1  UNL     1      18.586  -0.975  52.031  1.00  0.00    -0.204 F 
HETATM    2  C1  UNL     1      19.239   0.212  52.089  1.00  0.00     0.138 A 
HETATM    3  C2  UNL     1      18.978   1.283  51.258  1.00  0.00     0.053 A 
HETATM    4  C3  UNL     1      19.637   2.491  51.314  1.00  0.00    -0.027 A 
HETATM    5  C4  UNL     1      20.626   2.647  52.260  1.00  0.00     0.037 A 
HETATM    6  C5  UNL     1      20.872   1.548  53.090  1.00  0.00     0.056 A 
HETATM    7  C6  UNL     1      20.217   0.309  53.055  1.00  0.00     0.074 A 
HETATM    8 CL1  UNL     1      20.691  -0.930  54.192  1.00  0.00    -0.081 Cl
HETATM    9  N1  UNL     1      21.447   3.782  52.509  1.00  0.00    -0.368 N 
HETATM   10  C7  UNL     1      22.568   4.282  51.739  1.00  0.00     0.290 C 
HETATM   11  O1  UNL     1      22.275   4.647  50.455  1.00  0.00    -0.367 OA
HETATM   12  C8  UNL     1      23.459   5.082  49.855  1.00  0.00     0.216 C 
HETATM   13  C9  UNL     1      24.066   6.237  50.546  1.00  0.00     0.117 C 
HETATM   14  N2  UNL     1      25.163   6.533  49.960  1.00  0.00    -0.256 N 
HETATM   15  C10 UNL     1      26.011   7.581  50.346  1.00  0.00     0.231 A 
HETATM   16  N3  UNL     1      26.363   6.911  49.278  1.00  0.00    -0.254 N 
HETATM   17  C11 UNL     1      27.538   7.252  48.581  1.00  0.00     0.118 C 
HETATM   18  C12 UNL     1      27.526   7.783  47.383  1.00  0.00     0.021 C 
HETATM   19  C13 UNL     1      26.376   8.109  46.572  1.00  0.00     0.025 C 
HETATM   20  C14 UNL     1      25.072   8.117  46.465  1.00  0.00     0.134 C 
HETATM   21  O2  UNL     1      23.702   8.152  46.294  1.00  0.00    -0.363 OA
HETATM   22  C15 UNL     1      23.205   7.136  45.399  1.00  0.00     0.174 C 
HETATM   23  C16 UNL     1      21.721   7.082  45.464  1.00  0.00     0.027 C 
HETATM   24  C17 UNL     1      21.103   6.064  44.569  1.00  0.00     0.006 C 
HETATM   25  C18 UNL     1      21.543   4.662  44.833  1.00  0.00     0.033 C 
HETATM   26  P1  UNL     1      21.170   4.093  46.546  1.00  0.00    -0.104 P 
HETATM   27  C19 UNL     1      19.334   4.012  46.767  1.00  0.00     0.198 C 
HETATM   28  O3  UNL     1      18.992   4.183  48.109  1.00  0.00    -0.387 OA
HETATM   29  C20 UNL     1      19.566   3.170  48.902  1.00  0.00     0.172 C 
HETATM   30  C21 UNL     1      19.145   3.460  50.310  1.00  0.00     0.067 C 
HETATM   31  H3  UNL     1      21.006   4.117  53.396  1.00  0.00     0.161 HD
HETATM   32  H22 UNL     1      21.812   2.820  46.798  1.00  0.00     0.059 HD
ENDROOT
TORSDOF 0
ENDMDL
MODEL 9
REMARK VINA RESULT:      -7.2      7.815     11.149
REMARK  0 active torsions:
REMARK  status: ('A' for Active; 'I' for Inactive)
ROOT
HETATM    1  F1  UNL     1      26.613   1.903  52.198  1.00  0.00    -0.204 F 
HETATM    2  C1  UNL     1      25.768   2.666  51.461  1.00  0.00     0.138 A 
HETATM    3  C2  UNL     1      26.168   3.502  50.438  1.00  0.00     0.053 A 
HETATM    4  C3  UNL     1      25.314   4.278  49.687  1.00  0.00    -0.027 A 
HETATM    5  C4  UNL     1      23.967   4.222  49.971  1.00  0.00     0.037 A 
HETATM    6  C5  UNL     1      23.586   3.367  51.012  1.00  0.00     0.056 A 
HETATM    7  C6  UNL     1      24.433   2.567  51.791  1.00  0.00     0.074 A 
HETATM    8 CL1  UNL     1      23.737   1.571  53.046  1.00  0.00    -0.081 Cl
HETATM    9  N1  UNL     1      22.897   4.925  49.351  1.00  0.00    -0.368 N 
HETATM   10  C7  UNL     1      22.526   6.319  49.482  1.00  0.00     0.290 C 
HETATM   11  O1  UNL     1      23.480   7.215  49.088  1.00  0.00    -0.367 OA
HETATM   12  C8  UNL     1      22.971   8.499  49.298  1.00  0.00     0.216 C 
HETATM   13  C9  UNL     1      21.735   8.762  48.535  1.00  0.00     0.117 C 
HETATM   14  N2  UNL     1      21.318   9.935  48.825  1.00  0.00    -0.256 N 
HETATM   15  C10 UNL     1      20.165  10.523  48.288  1.00  0.00     0.231 A 
HETATM   16  N3  UNL     1      20.874  11.267  49.098  1.00  0.00    -0.254 N 
HETATM   17  C11 UNL     1      20.467  12.583  49.392  1.00  0.00     0.118 C 
HETATM   18  C12 UNL     1      21.124  13.640  48.981  1.00  0.00     0.021 C 
HETATM   19  C13 UNL     1      22.333  13.677  48.189  1.00  0.00     0.025 C 
HETATM   20  C14 UNL     1      23.263  12.996  47.569  1.00  0.00     0.134 C 
HETATM   21  O2  UNL     1      24.271  12.334  46.898  1.00  0.00    -0.363 OA
HETATM   22  C15 UNL     1      25.531  12.334  47.600  1.00  0.00     0.174 C 
HETATM   23  C16 UNL     1      26.481  11.401  46.940  1.00  0.00     0.027 C 
HETATM   24  C17 UNL     1      27.821  11.329  47.587  1.00  0.00     0.006 C 
HETATM   25  C18 UNL     1      27.794  10.893  49.014  1.00  0.00     0.033 C 
HETATM   26  P1  UNL     1      27.051   9.222  49.250  1.00  0.00    -0.104 P 
HETATM   27  C19 UNL     1      28.136   7.960  48.439  1.00  0.00     0.198 C 
HETATM   28  O3  UNL     1      27.391   6.843  48.057  1.00  0.00    -0.387 OA
HETATM   29  C20 UNL     1      26.792   6.237  49.180  1.00  0.00     0.172 C 
HETATM   30  C21 UNL     1      26.017   5.070  48.653  1.00  0.00     0.067 C 
HETATM   31  H3  UNL     1      22.476   4.140  48.802  1.00  0.00     0.161 HD
HETATM   32  H22 UNL     1      26.859   8.958  50.661  1.00  0.00     0.059 HD
ENDROOT
TORSDOF 0
ENDMDL
