MODEL 1
REMARK VINA RESULT:      -7.6      0.000      0.000
REMARK  6 active torsions:
REMARK  status: ('A' for Active; 'I' for Inactive)
REMARK    1  A    between atoms: N1_1  and  C1_2 
REMARK    2  A    between atoms: C1_2  and  C2_3 
REMARK    3  A    between atoms: C3_4  and  N2_5 
REMARK    4  A    between atoms: C3_4  and  C10_13 
REMARK    5  A    between atoms: N2_5  and  C4_6 
REMARK    6  A    between atoms: C4_6  and  C5_7 
ROOT
HETATM    1  C2  UNL     1      21.922  -0.142  53.990  1.00  0.00     0.049 C 
HETATM    2  C3  UNL     1      22.989   0.344  53.384  1.00  0.00     0.049 C 
ENDROOT
BRANCH   2   3
HETATM    3  N2  UNL     1      24.233  -0.095  53.855  1.00  0.00    -0.384 N 
HETATM    4  H4  UNL     1      24.279   0.139  54.876  1.00  0.00     0.160 HD
BRANCH   3   5
HETATM    5  C4  UNL     1      25.171  -0.738  52.965  1.00  0.00     0.160 C 
BRANCH   5   6
HETATM    6  C5  UNL     1      26.580  -0.551  53.408  1.00  0.00    -0.023 A 
HETATM    7  C6  UNL     1      27.695  -1.188  52.956  1.00  0.00     0.012 A 
HETATM    8  C7  UNL     1      28.916  -0.843  53.522  1.00  0.00     0.020 A 
HETATM    9  C8  UNL     1      28.983   0.124  54.519  1.00  0.00     0.116 A 
HETATM   10  N3  UNL     1      27.876   0.751  54.961  1.00  0.00    -0.273 NA
HETATM   11  C9  UNL     1      26.678   0.411  54.404  1.00  0.00     0.124 A 
ENDBRANCH   5   6
ENDBRANCH   3   5
ENDBRANCH   2   3
BRANCH   2  12
HETATM   12  C10 UNL     1      23.243   1.273  52.297  1.00  0.00     0.051 C 
HETATM   13  C11 UNL     1      24.067   2.387  52.089  1.00  0.00     0.072 C 
HETATM   14  S1  UNL     1      23.504   3.930  51.574  1.00  0.00    -0.112 SA
HETATM   15  C12 UNL     1      22.469   3.844  50.204  1.00  0.00     0.049 C 
HETATM   16  C13 UNL     1      22.071   3.618  48.882  1.00  0.00     0.008 C 
HETATM   17  C14 UNL     1      21.907   2.379  48.318  1.00  0.00     0.009 C 
HETATM   18  C15 UNL     1      21.527   1.216  48.938  1.00  0.00     0.065 C 
HETATM   19  C16 UNL     1      22.116   1.213  50.098  1.00  0.00    -0.073 C 
HETATM   20  C17 UNL     1      22.641   1.230  51.119  1.00  0.00    -0.059 C 
ENDBRANCH   2  12
BRANCH   1  21
HETATM   21  C1  UNL     1      22.407  -1.039  55.023  1.00  0.00     0.109 C 
BRANCH  21  22
HETATM   22  N1  UNL     1      22.977  -1.880  55.807  1.00  0.00    -0.312 NA
HETATM   23  H1  UNL     1      23.915  -1.646  56.245  1.00  0.00     0.186 HD
ENDBRANCH  21  22
ENDBRANCH   1  21
TORSDOF 6
ENDMDL
MODEL 2
REMARK VINA RESULT:      -7.5      2.314      4.694
REMARK  6 active torsions:
REMARK  status: ('A' for Active; 'I' for Inactive)
REMARK    1  A    between atoms: N1_1  and  C1_2 
REMARK    2  A    between atoms: C1_2  and  C2_3 
REMARK    3  A    between atoms: C3_4  and  N2_5 
REMARK    4  A    between atoms: C3_4  and  C10_13 
REMARK    5  A    between atoms: N2_5  and  C4_6 
REMARK    6  A    between atoms: C4_6  and  C5_7 
ROOT
HETATM    1  C2  UNL     1      28.661  -0.432  52.867  1.00  0.00     0.049 C 
HETATM    2  C3  UNL     1      27.433   0.050  52.928  1.00  0.00     0.049 C 
ENDROOT
BRANCH   2   3
HETATM    3  N2  UNL     1      26.410  -0.869  53.193  1.00  0.00    -0.384 N 
HETATM    4  H4  UNL     1      26.354  -1.517  52.371  1.00  0.00     0.160 HD
BRANCH   3   5
HETATM    5  C4  UNL     1      25.661  -0.800  54.425  1.00  0.00     0.160 C 
BRANCH   5   6
HETATM    6  C5  UNL     1      24.193  -0.891  54.193  1.00  0.00    -0.023 A 
HETATM    7  C6  UNL     1      23.495  -0.537  53.079  1.00  0.00     0.012 A 
HETATM    8  C7  UNL     1      22.117  -0.716  53.091  1.00  0.00     0.020 A 
HETATM    9  C8  UNL     1      21.484  -1.242  54.212  1.00  0.00     0.116 A 
HETATM   10  N3  UNL     1      22.182  -1.589  55.310  1.00  0.00    -0.273 NA
HETATM   11  C9  UNL     1      23.534  -1.413  55.297  1.00  0.00     0.124 A 
ENDBRANCH   5   6
ENDBRANCH   3   5
ENDBRANCH   2   3
BRANCH   2  12
HETATM   12  C10 UNL     1      26.814   1.356  52.781  1.00  0.00     0.051 C 
HETATM   13  C11 UNL     1      26.204   2.287  53.631  1.00  0.00     0.072 C 
HETATM   14  S1  UNL     1      24.624   2.929  53.395  1.00  0.00    -0.112 SA
HETATM   15  C12 UNL     1      24.366   3.506  51.796  1.00  0.00     0.049 C 
HETATM   16  C13 UNL     1      24.509   4.309  50.660  1.00  0.00     0.008 C 
HETATM   17  C14 UNL     1      25.594   4.284  49.820  1.00  0.00     0.009 C 
HETATM   18  C15 UNL     1      26.408   3.220  49.528  1.00  0.00     0.065 C 
HETATM   19  C16 UNL     1      26.567   2.568  50.641  1.00  0.00    -0.073 C 
HETATM   20  C17 UNL     1      26.692   2.002  51.633  1.00  0.00    -0.059 C 
ENDBRANCH   2  12
BRANCH   1  21
HETATM   21  C1  UNL     1      28.555  -1.859  53.110  1.00  0.00     0.109 C 
BRANCH  21  22
HETATM   22  N1  UNL     1      28.287  -3.107  53.236  1.00  0.00    -0.312 NA
HETATM   23  H1  UNL     1      28.497  -3.779  52.441  1.00  0.00     0.186 HD
ENDBRANCH  21  22
ENDBRANCH   1  21
TORSDOF 6
ENDMDL
MODEL 3
REMARK VINA RESULT:      -7.5      3.129      5.753
REMARK  6 active torsions:
REMARK  status: ('A' for Active; 'I' for Inactive)
REMARK    1  A    between atoms: N1_1  and  C1_2 
REMARK    2  A    between atoms: C1_2  and  C2_3 
REMARK    3  A    between atoms: C3_4  and  N2_5 
REMARK    4  A    between atoms: C3_4  and  C10_13 
REMARK    5  A    between atoms: N2_5  and  C4_6 
REMARK    6  A    between atoms: C4_6  and  C5_7 
ROOT
HETATM    1  C2  UNL     1      26.872   1.279  53.654  1.00  0.00     0.049 C 
HETATM    2  C3  UNL     1      25.879   1.655  52.869  1.00  0.00     0.049 C 
ENDROOT
BRANCH   2   3
HETATM    3  N2  UNL     1      26.108   2.774  52.059  1.00  0.00    -0.384 N 
HETATM    4  H4  UNL     1      26.044   3.621  52.672  1.00  0.00     0.160 HD
BRANCH   3   5
HETATM    5  C4  UNL     1      26.372   2.618  50.648  1.00  0.00     0.160 C 
BRANCH   5   6
HETATM    6  C5  UNL     1      26.359   3.922  49.929  1.00  0.00    -0.023 A 
HETATM    7  C6  UNL     1      27.271   4.401  49.040  1.00  0.00     0.012 A 
HETATM    8  C7  UNL     1      27.045   5.657  48.488  1.00  0.00     0.020 A 
HETATM    9  C8  UNL     1      25.917   6.390  48.843  1.00  0.00     0.116 A 
HETATM   10  N3  UNL     1      25.019   5.909  49.723  1.00  0.00    -0.273 NA
HETATM   11  C9  UNL     1      25.243   4.676  50.263  1.00  0.00     0.124 A 
ENDBRANCH   5   6
ENDBRANCH   3   5
ENDBRANCH   2   3
BRANCH   2  12
HETATM   12  C10 UNL     1      24.527   1.198  52.602  1.00  0.00     0.051 C 
HETATM   13  C11 UNL     1      23.549   1.444  51.630  1.00  0.00     0.072 C 
HETATM   14  S1  UNL     1      21.941   1.952  51.976  1.00  0.00    -0.112 SA
HETATM   15  C12 UNL     1      21.179   0.992  53.182  1.00  0.00     0.049 C 
HETATM   16  C13 UNL     1      20.607  -0.133  53.785  1.00  0.00     0.008 C 
HETATM   17  C14 UNL     1      21.314  -1.219  54.238  1.00  0.00     0.009 C 
HETATM   18  C15 UNL     1      22.594  -1.244  54.730  1.00  0.00     0.065 C 
HETATM   19  C16 UNL     1      23.279  -0.412  54.003  1.00  0.00    -0.073 C 
HETATM   20  C17 UNL     1      23.867   0.329  53.353  1.00  0.00    -0.059 C 
ENDBRANCH   2  12
BRANCH   1  21
HETATM   21  C1  UNL     1      27.961   2.209  53.414  1.00  0.00     0.109 C 
BRANCH  21  22
HETATM   22  N1  UNL     1      28.983   2.901  53.066  1.00  0.00    -0.312 NA
HETATM   23  H1  UNL     1      29.422   3.583  53.752  1.00  0.00     0.186 HD
ENDBRANCH  21  22
ENDBRANCH   1  21
TORSDOF 6
ENDMDL
MODEL 4
REMARK VINA RESULT:      -7.4      3.966      6.742
REMARK  6 active torsions:
REMARK  status: ('A' for Active; 'I' for Inactive)
REMARK    1  A    between atoms: N1_1  and  C1_2 
REMARK    2  A    between atoms: C1_2  and  C2_3 
REMARK    3  A    between atoms: C3_4  and  N2_5 
REMARK    4  A    between atoms: C3_4  and  C10_13 
REMARK    5  A    between atoms: N2_5  and  C4_6 
REMARK    6  A    between atoms: C4_6  and  C5_7 
ROOT
HETATM    1  C2  UNL     1      22.904   3.452  52.737  1.00  0.00     0.049 C 
HETATM    2  C3  UNL     1      24.141   3.130  52.407  1.00  0.00     0.049 C 
ENDROOT
BRANCH   2   3
HETATM    3  N2  UNL     1      24.826   4.031  51.582  1.00  0.00    -0.384 N 
HETATM    4  H4  UNL     1      25.042   4.879  52.158  1.00  0.00     0.160 HD
BRANCH   3   5
HETATM    5  C4  UNL     1      25.105   3.698  50.205  1.00  0.00     0.160 C 
BRANCH   5   6
HETATM    6  C5  UNL     1      26.060   4.656  49.581  1.00  0.00    -0.023 A 
HETATM    7  C6  UNL     1      27.236   4.381  48.953  1.00  0.00     0.012 A 
HETATM    8  C7  UNL     1      27.965   5.448  48.441  1.00  0.00     0.020 A 
HETATM    9  C8  UNL     1      27.495   6.751  48.573  1.00  0.00     0.116 A 
HETATM   10  N3  UNL     1      26.330   7.014  49.196  1.00  0.00    -0.273 NA
HETATM   11  C9  UNL     1      25.617   5.966  49.698  1.00  0.00     0.124 A 
ENDBRANCH   5   6
ENDBRANCH   3   5
ENDBRANCH   2   3
BRANCH   2  12
HETATM   12  C10 UNL     1      25.042   2.024  52.681  1.00  0.00     0.051 C 
HETATM   13  C11 UNL     1      24.947   0.627  52.713  1.00  0.00     0.072 C 
HETATM   14  S1  UNL     1      25.398  -0.347  54.059  1.00  0.00    -0.112 SA
HETATM   15  C12 UNL     1      26.957   0.037  54.673  1.00  0.00     0.049 C 
HETATM   16  C13 UNL     1      28.350   0.162  54.711  1.00  0.00     0.008 C 
HETATM   17  C14 UNL     1      29.068   1.098  54.011  1.00  0.00     0.009 C 
HETATM   18  C15 UNL     1      28.673   2.359  53.644  1.00  0.00     0.065 C 
HETATM   19  C16 UNL     1      27.423   2.263  53.300  1.00  0.00    -0.073 C 
HETATM   20  C17 UNL     1      26.318   2.159  53.005  1.00  0.00    -0.059 C 
ENDBRANCH   2  12
BRANCH   1  21
HETATM   21  C1  UNL     1      22.625   4.724  52.095  1.00  0.00     0.109 C 
BRANCH  21  22
HETATM   22  N1  UNL     1      22.265   5.885  51.685  1.00  0.00    -0.312 NA
HETATM   23  H1  UNL     1      22.998   6.621  51.464  1.00  0.00     0.186 HD
ENDBRANCH  21  22
ENDBRANCH   1  21
TORSDOF 6
ENDMDL
MODEL 5
REMARK VINA RESULT:      -7.4      2.430      4.641
REMARK  6 active torsions:
REMARK  status: ('A' for Active; 'I' for Inactive)
REMARK    1  A    between atoms: N1_1  and  C1_2 
REMARK    2  A    between atoms: C1_2  and  C2_3 
REMARK    3  A    between atoms: C3_4  and  N2_5 
REMARK    4  A    between atoms: C3_4  and  C10_13 
REMARK    5  A    between atoms: N2_5  and  C4_6 
REMARK    6  A    between atoms: C4_6  and  C5_7 
ROOT
HETATM    1  C2  UNL     1      22.221   4.479  51.859  1.00  0.00     0.049 C 
HETATM    2  C3  UNL     1      22.618   3.244  52.109  1.00  0.00     0.049 C 
ENDROOT
BRANCH   2   3
HETATM    3  N2  UNL     1      23.959   3.078  52.475  1.00  0.00    -0.384 N 
HETATM    4  H4  UNL     1      24.094   3.568  53.392  1.00  0.00     0.160 HD
BRANCH   3   5
HETATM    5  C4  UNL     1      24.866   2.337  51.630  1.00  0.00     0.160 C 
BRANCH   5   6
HETATM    6  C5  UNL     1      25.780   1.467  52.419  1.00  0.00    -0.023 A 
HETATM    7  C6  UNL     1      26.397   0.319  52.025  1.00  0.00     0.012 A 
HETATM    8  C7  UNL     1      27.217  -0.327  52.942  1.00  0.00     0.020 A 
HETATM    9  C8  UNL     1      27.393   0.192  54.220  1.00  0.00     0.116 A 
HETATM   10  N3  UNL     1      26.779   1.329  54.603  1.00  0.00    -0.273 NA
HETATM   11  C9  UNL     1      25.975   1.962  53.701  1.00  0.00     0.124 A 
ENDBRANCH   5   6
ENDBRANCH   3   5
ENDBRANCH   2   3
BRANCH   2  12
HETATM   12  C10 UNL     1      22.005   1.928  52.101  1.00  0.00     0.051 C 
HETATM   13  C11 UNL     1      21.112   1.232  51.277  1.00  0.00     0.072 C 
HETATM   14  S1  UNL     1      19.651   0.503  51.823  1.00  0.00    -0.112 SA
HETATM   15  C12 UNL     1      19.872  -0.479  53.217  1.00  0.00     0.049 C 
HETATM   16  C13 UNL     1      20.318  -1.547  54.004  1.00  0.00     0.008 C 
HETATM   17  C14 UNL     1      21.610  -1.709  54.437  1.00  0.00     0.009 C 
HETATM   18  C15 UNL     1      22.530  -0.733  54.722  1.00  0.00     0.065 C 
HETATM   19  C16 UNL     1      22.370   0.192  53.823  1.00  0.00    -0.073 C 
HETATM   20  C17 UNL     1      22.211   1.000  53.023  1.00  0.00    -0.059 C 
ENDBRANCH   2  12
BRANCH   1  21
HETATM   21  C1  UNL     1      23.380   5.331  52.057  1.00  0.00     0.109 C 
BRANCH  21  22
HETATM   22  N1  UNL     1      24.275   6.216  52.302  1.00  0.00    -0.312 NA
HETATM   23  H1  UNL     1      24.553   6.428  53.305  1.00  0.00     0.186 HD
ENDBRANCH  21  22
ENDBRANCH   1  21
TORSDOF 6
ENDMDL
MODEL 6
REMARK VINA RESULT:      -7.3      2.505      6.221
REMARK  6 active torsions:
REMARK  status: ('A' for Active; 'I' for Inactive)
REMARK    1  A    between atoms: N1_1  and  C1_2 
REMARK    2  A    between atoms: C1_2  and  C2_3 
REMARK    3  A    between atoms: C3_4  and  N2_5 
REMARK    4  A    between atoms: C3_4  and  C10_13 
REMARK    5  A    between atoms: N2_5  and  C4_6 
REMARK    6  A    between atoms: C4_6  and  C5_7 
ROOT
HETATM    1  C2  UNL     1      25.092   3.135  50.365  1.00  0.00     0.049 C 
HETATM    2  C3  UNL     1      25.013   2.225  51.318  1.00  0.00     0.049 C 
ENDROOT
BRANCH   2   3
HETATM    3  N2  UNL     1      23.757   1.642  51.526  1.00  0.00    -0.384 N 
HETATM    4  H4  UNL     1      23.550   1.044  50.690  1.00  0.00     0.160 HD
BRANCH   3   5
HETATM    5  C4  UNL     1      23.010   1.916  52.731  1.00  0.00     0.160 C 
BRANCH   5   6
HETATM    6  C5  UNL     1      22.403   0.683  53.304  1.00  0.00    -0.023 A 
HETATM    7  C6  UNL     1      23.037  -0.395  53.840  1.00  0.00     0.012 A 
HETATM    8  C7  UNL     1      22.255  -1.438  54.322  1.00  0.00     0.020 A 
HETATM    9  C8  UNL     1      20.867  -1.369  54.252  1.00  0.00     0.116 A 
HETATM   10  N3  UNL     1      20.247  -0.298  53.721  1.00  0.00    -0.273 NA
HETATM   11  C9  UNL     1      21.017   0.724  53.249  1.00  0.00     0.124 A 
ENDBRANCH   5   6
ENDBRANCH   3   5
ENDBRANCH   2   3
BRANCH   2  12
HETATM   12  C10 UNL     1      25.930   1.631  52.275  1.00  0.00     0.051 C 
HETATM   13  C11 UNL     1      26.667   2.075  53.380  1.00  0.00     0.072 C 
HETATM   14  S1  UNL     1      28.367   1.871  53.559  1.00  0.00    -0.112 SA
HETATM   15  C12 UNL     1      28.886   0.260  53.260  1.00  0.00     0.049 C 
HETATM   16  C13 UNL     1      29.029  -1.120  53.443  1.00  0.00     0.008 C 
HETATM   17  C14 UNL     1      28.043  -2.044  53.206  1.00  0.00     0.009 C 
HETATM   18  C15 UNL     1      27.031  -1.977  52.284  1.00  0.00     0.065 C 
HETATM   19  C16 UNL     1      26.632  -0.740  52.271  1.00  0.00    -0.073 C 
HETATM   20  C17 UNL     1      26.295   0.358  52.271  1.00  0.00    -0.059 C 
ENDBRANCH   2  12
BRANCH   1  21
HETATM   21  C1  UNL     1      23.762   3.251  49.795  1.00  0.00     0.109 C 
BRANCH  21  22
HETATM   22  N1  UNL     1      22.618   3.172  49.220  1.00  0.00    -0.312 NA
HETATM   23  H1  UNL     1      22.426   3.734  48.339  1.00  0.00     0.186 HD
ENDBRANCH  21  22
ENDBRANCH   1  21
TORSDOF 6
ENDMDL
MODEL 7
REMARK VINA RESULT:      -7.2      2.345      4.637
REMARK  6 active torsions:
REMARK  status: ('A' for Active; 'I' for Inactive)
REMARK    1  A    between atoms: N1_1  and  C1_2 
REMARK    2  A    between atoms: C1_2  and  C2_3 
REMARK    3  A    between atoms: C3_4  and  N2_5 
REMARK    4  A    between atoms: C3_4  and  C10_13 
REMARK    5  A    between atoms: N2_5  and  C4_6 
REMARK    6  A    between atoms: C4_6  and  C5_7 
ROOT
HETATM    1  C2  UNL     1      23.995   3.681  50.132  1.00  0.00     0.049 C 
HETATM    2  C3  UNL     1      24.089   2.679  50.987  1.00  0.00     0.049 C 
ENDROOT
BRANCH   2   3
HETATM    3  N2  UNL     1      25.288   2.575  51.703  1.00  0.00    -0.384 N 
HETATM    4  H4  UNL     1      25.221   3.228  52.520  1.00  0.00     0.160 HD
BRANCH   3   5
HETATM    5  C4  UNL     1      26.332   1.680  51.261  1.00  0.00     0.160 C 
BRANCH   5   6
HETATM    6  C5  UNL     1      27.140   1.160  52.398  1.00  0.00    -0.023 A 
HETATM    7  C6  UNL     1      27.330  -0.135  52.772  1.00  0.00     0.012 A 
HETATM    8  C7  UNL     1      28.137  -0.383  53.876  1.00  0.00     0.020 A 
HETATM    9  C8  UNL     1      28.726   0.670  54.569  1.00  0.00     0.116 A 
HETATM   10  N3  UNL     1      28.534   1.949  54.193  1.00  0.00    -0.273 NA
HETATM   11  C9  UNL     1      27.741   2.189  53.109  1.00  0.00     0.124 A 
ENDBRANCH   5   6
ENDBRANCH   3   5
ENDBRANCH   2   3
BRANCH   2  12
HETATM   12  C10 UNL     1      23.235   1.583  51.412  1.00  0.00     0.051 C 
HETATM   13  C11 UNL     1      22.045   0.996  50.964  1.00  0.00     0.072 C 
HETATM   14  S1  UNL     1      20.643   0.777  51.939  1.00  0.00    -0.112 SA
HETATM   15  C12 UNL     1      20.988   0.049  53.458  1.00  0.00     0.049 C 
HETATM   16  C13 UNL     1      21.383  -0.930  54.376  1.00  0.00     0.008 C 
HETATM   17  C14 UNL     1      22.679  -1.331  54.579  1.00  0.00     0.009 C 
HETATM   18  C15 UNL     1      23.821  -0.586  54.441  1.00  0.00     0.065 C 
HETATM   19  C16 UNL     1      23.642   0.165  53.395  1.00  0.00    -0.073 C 
HETATM   20  C17 UNL     1      23.463   0.823  52.471  1.00  0.00    -0.059 C 
ENDBRANCH   2  12
BRANCH   1  21
HETATM   21  C1  UNL     1      25.250   4.406  50.209  1.00  0.00     0.109 C 
BRANCH  21  22
HETATM   22  N1  UNL     1      26.368   5.021  50.081  1.00  0.00    -0.312 NA
HETATM   23  H1  UNL     1      26.432   5.886  49.469  1.00  0.00     0.186 HD
ENDBRANCH  21  22
ENDBRANCH   1  21
TORSDOF 6
ENDMDL
MODEL 8
REMARK VINA RESULT:      -7.1      4.213      6.714
REMARK  6 active torsions:
REMARK  status: ('A' for Active; 'I' for Inactive)
REMARK    1  A    between atoms: N1_1  and  C1_2 
REMARK    2  A    between atoms: C1_2  and  C2_3 
REMARK    3  A    between atoms: C3_4  and  N2_5 
REMARK    4  A    between atoms: C3_4  and  C10_13 
REMARK    5  A    between atoms: N2_5  and  C4_6 
REMARK    6  A    between atoms: C4_6  and  C5_7 
ROOT
HETATM    1  C2  UNL     1      23.063   5.093  51.981  1.00  0.00     0.049 C 
HETATM    2  C3  UNL     1      23.937   4.185  51.588  1.00  0.00     0.049 C 
ENDROOT
BRANCH   2   3
HETATM    3  N2  UNL     1      25.073   4.656  50.917  1.00  0.00    -0.384 N 
HETATM    4  H4  UNL     1      25.692   5.108  51.631  1.00  0.00     0.160 HD
BRANCH   3   5
HETATM    5  C4  UNL     1      25.213   4.471  49.491  1.00  0.00     0.160 C 
BRANCH   5   6
HETATM    6  C5  UNL     1      26.340   5.268  48.933  1.00  0.00    -0.023 A 
HETATM    7  C6  UNL     1      26.329   6.564  48.518  1.00  0.00     0.012 A 
HETATM    8  C7  UNL     1      27.515   7.102  48.031  1.00  0.00     0.020 A 
HETATM    9  C8  UNL     1      28.669   6.328  47.975  1.00  0.00     0.116 A 
HETATM   10  N3  UNL     1      28.672   5.046  48.388  1.00  0.00    -0.273 NA
HETATM   11  C9  UNL     1      27.507   4.520  48.865  1.00  0.00     0.124 A 
ENDBRANCH   5   6
ENDBRANCH   3   5
ENDBRANCH   2   3
BRANCH   2  12
HETATM   12  C10 UNL     1      24.048   2.739  51.663  1.00  0.00     0.051 C 
HETATM   13  C11 UNL     1      23.171   1.651  51.562  1.00  0.00     0.072 C 
HETATM   14  S1  UNL     1      23.009   0.420  52.755  1.00  0.00    -0.112 SA
HETATM   15  C12 UNL     1      24.519  -0.232  53.255  1.00  0.00     0.049 C 
HETATM   16  C13 UNL     1      25.733  -0.923  53.174  1.00  0.00     0.008 C 
HETATM   17  C14 UNL     1      26.844  -0.471  52.507  1.00  0.00     0.009 C 
HETATM   18  C15 UNL     1      27.235   0.828  52.308  1.00  0.00     0.065 C 
HETATM   19  C16 UNL     1      26.148   1.503  52.075  1.00  0.00    -0.073 C 
HETATM   20  C17 UNL     1      25.178   2.084  51.876  1.00  0.00    -0.059 C 
ENDBRANCH   2  12
BRANCH   1  21
HETATM   21  C1  UNL     1      23.591   6.380  51.564  1.00  0.00     0.109 C 
BRANCH  21  22
HETATM   22  N1  UNL     1      24.168   7.507  51.357  1.00  0.00    -0.312 NA
HETATM   23  H1  UNL     1      25.226   7.579  51.408  1.00  0.00     0.186 HD
ENDBRANCH  21  22
ENDBRANCH   1  21
TORSDOF 6
ENDMDL
MODEL 9
REMARK VINA RESULT:      -7.0      1.875      2.355
REMARK  6 active torsions:
REMARK  status: ('A' for Active; 'I' for Inactive)
REMARK    1  A    between atoms: N1_1  and  C1_2 
REMARK    2  A    between atoms: C1_2  and  C2_3 
REMARK    3  A    between atoms: C3_4  and  N2_5 
REMARK    4  A    between atoms: C3_4  and  C10_13 
REMARK    5  A    between atoms: N2_5  and  C4_6 
REMARK    6  A    between atoms: C4_6  and  C5_7 
ROOT
HETATM    1  C2  UNL     1      22.011   0.879  52.836  1.00  0.00     0.049 C 
HETATM    2  C3  UNL     1      23.230   1.382  52.903  1.00  0.00     0.049 C 
ENDROOT
BRANCH   2   3
HETATM    3  N2  UNL     1      24.199   0.597  53.540  1.00  0.00    -0.384 N 
HETATM    4  H4  UNL     1      24.122   0.782  54.569  1.00  0.00     0.160 HD
BRANCH   3   5
HETATM    5  C4  UNL     1      25.070  -0.262  52.774  1.00  0.00     0.160 C 
BRANCH   5   6
HETATM    6  C5  UNL     1      26.464  -0.255  53.296  1.00  0.00    -0.023 A 
HETATM    7  C6  UNL     1      27.531  -0.977  52.855  1.00  0.00     0.012 A 
HETATM    8  C7  UNL     1      28.748  -0.801  53.502  1.00  0.00     0.020 A 
HETATM    9  C8  UNL     1      28.859   0.088  54.567  1.00  0.00     0.116 A 
HETATM   10  N3  UNL     1      27.798   0.798  54.997  1.00  0.00    -0.273 NA
HETATM   11  C9  UNL     1      26.605   0.624  54.360  1.00  0.00     0.124 A 
ENDBRANCH   5   6
ENDBRANCH   3   5
ENDBRANCH   2   3
BRANCH   2  12
HETATM   12  C10 UNL     1      23.881   2.607  52.473  1.00  0.00     0.051 C 
HETATM   13  C11 UNL     1      23.827   3.961  52.832  1.00  0.00     0.072 C 
HETATM   14  S1  UNL     1      23.522   5.246  51.728  1.00  0.00    -0.112 SA
HETATM   15  C12 UNL     1      24.503   5.168  50.319  1.00  0.00     0.049 C 
HETATM   16  C13 UNL     1      25.658   5.197  49.529  1.00  0.00     0.008 C 
HETATM   17  C14 UNL     1      26.609   4.209  49.502  1.00  0.00     0.009 C 
HETATM   18  C15 UNL     1      26.431   2.864  49.707  1.00  0.00     0.065 C 
HETATM   19  C16 UNL     1      25.559   2.755  50.664  1.00  0.00    -0.073 C 
HETATM   20  C17 UNL     1      24.785   2.677  51.509  1.00  0.00    -0.059 C 
ENDBRANCH   2  12
BRANCH   1  21
HETATM   21  C1  UNL     1      22.064  -0.417  53.489  1.00  0.00     0.109 C 
BRANCH  21  22
HETATM   22  N1  UNL     1      21.915  -1.560  54.051  1.00  0.00    -0.312 NA
HETATM   23  H1  UNL     1      21.545  -1.619  55.044  1.00  0.00     0.186 HD
ENDBRANCH  21  22
ENDBRANCH   1  21
TORSDOF 6
ENDMDL
