MODEL 1
REMARK VINA RESULT:      -8.8      0.000      0.000
REMARK  3 active torsions:
REMARK  status: ('A' for Active; 'I' for Inactive)
REMARK    1  A    between atoms: C3_3  and  O1_4 
REMARK    2  A    between atoms: C6_8  and  C7_9 
REMARK    3  A    between atoms: C16_18  and  O2_19 
ROOT
HETATM    1  C1  UNL     1      26.183  -1.541  53.097  1.00  0.00     0.050 C 
HETATM    2  C2  UNL     1      25.792  -0.312  53.255  1.00  0.00     0.024 C 
HETATM    3  C3  UNL     1      26.649   0.838  52.912  1.00  0.00     0.170 C 
HETATM    4  N1  UNL     1      26.545   2.103  52.954  1.00  0.00    -0.237 NA
HETATM    5  C4  UNL     1      25.388   2.754  53.416  1.00  0.00     0.116 C 
HETATM    6  C5  UNL     1      24.306   3.485  53.094  1.00  0.00     0.007 C 
HETATM    7  C6  UNL     1      23.656   4.087  51.915  1.00  0.00     0.075 C 
HETATM    8  C13 UNL     1      22.601   3.173  51.408  1.00  0.00    -0.044 A 
HETATM    9  C14 UNL     1      21.942   3.259  50.200  1.00  0.00     0.011 A 
HETATM   10  C15 UNL     1      20.996   2.326  49.830  1.00  0.00     0.039 A 
HETATM   11  C16 UNL     1      20.659   1.262  50.638  1.00  0.00     0.095 A 
HETATM   12  C18 UNL     1      21.302   1.157  51.844  1.00  0.00     0.083 A 
HETATM   13  C19 UNL     1      22.244   2.099  52.199  1.00  0.00     0.041 A 
HETATM   14  N2  UNL     1      21.045   0.069  52.755  1.00  0.00    -0.185 N 
HETATM   15  C20 UNL     1      22.194  -0.363  53.520  1.00  0.00     0.727 A 
HETATM   16  N3  UNL     1      21.905  -0.942  54.700  1.00  0.00    -0.075 NA
HETATM   17  C21 UNL     1      22.918  -1.363  55.487  1.00  0.00     0.139 A 
HETATM   18  C22 UNL     1      24.224  -1.169  55.021  1.00  0.00     0.053 A 
HETATM   19  C23 UNL     1      24.476  -0.562  53.788  1.00  0.00     0.087 A 
HETATM   20  N4  UNL     1      23.435  -0.163  53.045  1.00  0.00    -0.062 NA
HETATM   21  H18 UNL     1      20.097  -0.307  52.794  1.00  0.00     0.184 HD
ENDROOT
BRANCH   7  22
HETATM   22  C7  UNL     1      24.646   4.453  50.913  1.00  0.00    -0.046 A 
HETATM   23  C8  UNL     1      25.505   3.604  50.258  1.00  0.00     0.008 A 
HETATM   24  C9  UNL     1      26.442   3.963  49.324  1.00  0.00     0.001 A 
HETATM   25  C10 UNL     1      26.553   5.301  48.994  1.00  0.00     0.000 A 
HETATM   26  C11 UNL     1      25.741   6.242  49.589  1.00  0.00     0.001 A 
HETATM   27  C12 UNL     1      24.830   5.786  50.516  1.00  0.00     0.008 A 
ENDBRANCH   7  22
BRANCH   3  28
HETATM   28  O1  UNL     1      27.871   0.395  52.424  1.00  0.00    -0.344 OA
HETATM   29  H3  UNL     1      27.896  -0.078  51.518  1.00  0.00     0.219 HD
ENDBRANCH   3  28
BRANCH  11  30
HETATM   30  O2  UNL     1      19.724   0.275  50.354  1.00  0.00    -0.354 OA
HETATM   31  C17 UNL     1      18.352   0.601  50.209  1.00  0.00     0.210 C 
ENDBRANCH  11  30
TORSDOF 3
ENDMDL
MODEL 2
REMARK VINA RESULT:      -8.6      1.645      1.868
REMARK  3 active torsions:
REMARK  status: ('A' for Active; 'I' for Inactive)
REMARK    1  A    between atoms: C3_3  and  O1_4 
REMARK    2  A    between atoms: C6_8  and  C7_9 
REMARK    3  A    between atoms: C16_18  and  O2_19 
ROOT
HETATM    1  C1  UNL     1      26.115  -1.108  52.463  1.00  0.00     0.050 C 
HETATM    2  C2  UNL     1      25.519   0.017  52.725  1.00  0.00     0.024 C 
HETATM    3  C3  UNL     1      25.899   1.282  52.068  1.00  0.00     0.170 C 
HETATM    4  N1  UNL     1      25.515   2.491  52.118  1.00  0.00    -0.237 NA
HETATM    5  C4  UNL     1      24.470   2.921  52.955  1.00  0.00     0.116 C 
HETATM    6  C5  UNL     1      23.201   3.361  53.031  1.00  0.00     0.007 C 
HETATM    7  C6  UNL     1      22.056   3.676  52.157  1.00  0.00     0.075 C 
HETATM    8  C13 UNL     1      21.145   2.507  52.089  1.00  0.00    -0.044 A 
HETATM    9  C14 UNL     1      20.107   2.317  51.202  1.00  0.00     0.011 A 
HETATM   10  C15 UNL     1      19.347   1.166  51.222  1.00  0.00     0.039 A 
HETATM   11  C16 UNL     1      19.579   0.148  52.121  1.00  0.00     0.095 A 
HETATM   12  C18 UNL     1      20.607   0.315  53.012  1.00  0.00     0.083 A 
HETATM   13  C19 UNL     1      21.356   1.472  52.979  1.00  0.00     0.041 A 
HETATM   14  N2  UNL     1      20.953  -0.697  53.978  1.00  0.00    -0.185 N 
HETATM   15  C20 UNL     1      22.364  -0.785  54.282  1.00  0.00     0.727 A 
HETATM   16  N3  UNL     1      22.653  -1.282  55.498  1.00  0.00    -0.075 NA
HETATM   17  C21 UNL     1      23.946  -1.387  55.872  1.00  0.00     0.139 A 
HETATM   18  C22 UNL     1      24.920  -0.965  54.958  1.00  0.00     0.053 A 
HETATM   19  C23 UNL     1      24.573  -0.454  53.706  1.00  0.00     0.087 A 
HETATM   20  N4  UNL     1      23.276  -0.373  53.384  1.00  0.00    -0.062 NA
HETATM   21  H18 UNL     1      20.199  -1.264  54.367  1.00  0.00     0.184 HD
ENDROOT
BRANCH   7  22
HETATM   22  C7  UNL     1      22.517   4.139  50.856  1.00  0.00    -0.046 A 
HETATM   23  C8  UNL     1      22.919   3.356  49.801  1.00  0.00     0.008 A 
HETATM   24  C9  UNL     1      23.363   3.804  48.583  1.00  0.00     0.001 A 
HETATM   25  C10 UNL     1      23.418   5.170  48.374  1.00  0.00     0.000 A 
HETATM   26  C11 UNL     1      23.037   6.050  49.362  1.00  0.00     0.001 A 
HETATM   27  C12 UNL     1      22.606   5.506  50.553  1.00  0.00     0.008 A 
ENDBRANCH   7  22
BRANCH   3  28
HETATM   28  O1  UNL     1      26.943   1.064  51.180  1.00  0.00    -0.344 OA
HETATM   29  H3  UNL     1      27.037   1.683  50.371  1.00  0.00     0.219 HD
ENDBRANCH   3  28
BRANCH  11  30
HETATM   30  O2  UNL     1      18.872  -1.042  52.218  1.00  0.00    -0.354 OA
HETATM   31  C17 UNL     1      17.511  -1.043  52.617  1.00  0.00     0.210 C 
ENDBRANCH  11  30
TORSDOF 3
ENDMDL
MODEL 3
REMARK VINA RESULT:      -8.4      8.675     12.421
REMARK  3 active torsions:
REMARK  status: ('A' for Active; 'I' for Inactive)
REMARK    1  A    between atoms: C3_3  and  O1_4 
REMARK    2  A    between atoms: C6_8  and  C7_9 
REMARK    3  A    between atoms: C16_18  and  O2_19 
ROOT
HETATM    1  C1  UNL     1      27.986   7.364  47.424  1.00  0.00     0.050 C 
HETATM    2  C2  UNL     1      29.235   7.076  47.645  1.00  0.00     0.024 C 
HETATM    3  C3  UNL     1      29.644   5.916  48.458  1.00  0.00     0.170 C 
HETATM    4  N1  UNL     1      30.743   5.402  48.833  1.00  0.00    -0.237 NA
HETATM    5  C4  UNL     1      31.992   5.940  48.476  1.00  0.00     0.116 C 
HETATM    6  C5  UNL     1      33.107   5.795  47.739  1.00  0.00     0.007 C 
HETATM    7  C6  UNL     1      33.711   4.863  46.768  1.00  0.00     0.075 C 
HETATM    8  C13 UNL     1      33.429   5.330  45.388  1.00  0.00    -0.044 A 
HETATM    9  C14 UNL     1      33.610   4.620  44.220  1.00  0.00     0.011 A 
HETATM   10  C15 UNL     1      33.281   5.159  42.994  1.00  0.00     0.039 A 
HETATM   11  C16 UNL     1      32.756   6.427  42.865  1.00  0.00     0.095 A 
HETATM   12  C18 UNL     1      32.568   7.151  44.013  1.00  0.00     0.083 A 
HETATM   13  C19 UNL     1      32.904   6.598  45.231  1.00  0.00     0.041 A 
HETATM   14  N2  UNL     1      32.002   8.477  43.996  1.00  0.00    -0.185 N 
HETATM   15  C20 UNL     1      31.184   8.800  45.145  1.00  0.00     0.727 A 
HETATM   16  N3  UNL     1      31.106  10.111  45.435  1.00  0.00    -0.075 NA
HETATM   17  C21 UNL     1      30.375  10.502  46.500  1.00  0.00     0.139 A 
HETATM   18  C22 UNL     1      29.736   9.506  47.248  1.00  0.00     0.053 A 
HETATM   19  C23 UNL     1      29.847   8.156  46.910  1.00  0.00     0.087 A 
HETATM   20  N4  UNL     1      30.583   7.820  45.842  1.00  0.00    -0.062 NA
HETATM   21  H18 UNL     1      32.212   9.076  43.197  1.00  0.00     0.184 HD
ENDROOT
BRANCH   7  22
HETATM   22  C7  UNL     1      33.275   3.498  47.027  1.00  0.00    -0.046 A 
HETATM   23  C8  UNL     1      32.278   2.817  46.371  1.00  0.00     0.008 A 
HETATM   24  C9  UNL     1      31.867   1.536  46.632  1.00  0.00     0.001 A 
HETATM   25  C10 UNL     1      32.502   0.843  47.646  1.00  0.00     0.000 A 
HETATM   26  C11 UNL     1      33.517   1.428  48.370  1.00  0.00     0.001 A 
HETATM   27  C12 UNL     1      33.860   2.720  48.036  1.00  0.00     0.008 A 
ENDBRANCH   7  22
BRANCH   3  28
HETATM   28  O1  UNL     1      28.525   5.235  48.917  1.00  0.00    -0.344 OA
HETATM   29  H3  UNL     1      28.595   4.229  49.082  1.00  0.00     0.219 HD
ENDBRANCH   3  28
BRANCH  11  30
HETATM   30  O2  UNL     1      32.395   7.052  41.680  1.00  0.00    -0.354 OA
HETATM   31  C17 UNL     1      32.195   6.297  40.496  1.00  0.00     0.210 C 
ENDBRANCH  11  30
TORSDOF 3
ENDMDL
MODEL 4
REMARK VINA RESULT:      -8.3      3.376      6.186
REMARK  3 active torsions:
REMARK  status: ('A' for Active; 'I' for Inactive)
REMARK    1  A    between atoms: C3_3  and  O1_4 
REMARK    2  A    between atoms: C6_8  and  C7_9 
REMARK    3  A    between atoms: C16_18  and  O2_19 
ROOT
HETATM    1  C1  UNL     1      23.727   8.295  50.226  1.00  0.00     0.050 C 
HETATM    2  C2  UNL     1      23.874   7.039  49.922  1.00  0.00     0.024 C 
HETATM    3  C3  UNL     1      25.089   6.280  50.274  1.00  0.00     0.170 C 
HETATM    4  N1  UNL     1      25.502   5.089  50.117  1.00  0.00    -0.237 NA
HETATM    5  C4  UNL     1      24.742   4.103  49.466  1.00  0.00     0.116 C 
HETATM    6  C5  UNL     1      24.020   2.975  49.593  1.00  0.00     0.007 C 
HETATM    7  C6  UNL     1      23.571   2.028  50.631  1.00  0.00     0.075 C 
HETATM    8  C13 UNL     1      22.203   2.391  51.077  1.00  0.00    -0.044 A 
HETATM    9  C14 UNL     1      21.538   1.908  52.183  1.00  0.00     0.011 A 
HETATM   10  C15 UNL     1      20.271   2.348  52.508  1.00  0.00     0.039 A 
HETATM   11  C16 UNL     1      19.603   3.287  51.754  1.00  0.00     0.095 A 
HETATM   12  C18 UNL     1      20.246   3.781  50.648  1.00  0.00     0.083 A 
HETATM   13  C19 UNL     1      21.511   3.330  50.337  1.00  0.00     0.041 A 
HETATM   14  N2  UNL     1      19.651   4.786  49.803  1.00  0.00    -0.185 N 
HETATM   15  C20 UNL     1      20.589   5.721  49.222  1.00  0.00     0.727 A 
HETATM   16  N3  UNL     1      20.189   6.282  48.067  1.00  0.00    -0.075 NA
HETATM   17  C21 UNL     1      21.009   7.157  47.447  1.00  0.00     0.139 A 
HETATM   18  C22 UNL     1      22.242   7.429  48.052  1.00  0.00     0.053 A 
HETATM   19  C23 UNL     1      22.615   6.822  49.253  1.00  0.00     0.087 A 
HETATM   20  N4  UNL     1      21.764   5.963  49.828  1.00  0.00    -0.062 NA
HETATM   21  H18 UNL     1      18.637   4.766  49.679  1.00  0.00     0.184 HD
ENDROOT
BRANCH   7  22
HETATM   22  C7  UNL     1      24.542   1.955  51.714  1.00  0.00    -0.046 A 
HETATM   23  C8  UNL     1      24.567   2.731  52.847  1.00  0.00     0.008 A 
HETATM   24  C9  UNL     1      25.494   2.662  53.855  1.00  0.00     0.001 A 
HETATM   25  C10 UNL     1      26.508   1.729  53.742  1.00  0.00     0.000 A 
HETATM   26  C11 UNL     1      26.580   0.896  52.647  1.00  0.00     0.001 A 
HETATM   27  C12 UNL     1      25.605   1.041  51.686  1.00  0.00     0.008 A 
ENDBRANCH   7  22
BRANCH   3  28
HETATM   28  O1  UNL     1      25.988   7.099  50.942  1.00  0.00    -0.344 OA
HETATM   29  H3  UNL     1      25.809   7.330  51.921  1.00  0.00     0.219 HD
ENDBRANCH   3  28
BRANCH  11  30
HETATM   30  O2  UNL     1      18.333   3.790  52.000  1.00  0.00    -0.354 OA
HETATM   31  C17 UNL     1      17.180   3.044  51.647  1.00  0.00     0.210 C 
ENDBRANCH  11  30
TORSDOF 3
ENDMDL
MODEL 5
REMARK VINA RESULT:      -8.0      2.625      5.642
REMARK  3 active torsions:
REMARK  status: ('A' for Active; 'I' for Inactive)
REMARK    1  A    between atoms: C3_3  and  O1_4 
REMARK    2  A    between atoms: C6_8  and  C7_9 
REMARK    3  A    between atoms: C16_18  and  O2_19 
ROOT
HETATM    1  C1  UNL     1      17.363   4.076  51.351  1.00  0.00     0.050 C 
HETATM    2  C2  UNL     1      18.366   3.620  50.662  1.00  0.00     0.024 C 
HETATM    3  C3  UNL     1      19.257   4.504  49.887  1.00  0.00     0.170 C 
HETATM    4  N1  UNL     1      20.279   4.354  49.148  1.00  0.00    -0.237 NA
HETATM    5  C4  UNL     1      20.849   3.095  48.888  1.00  0.00     0.116 C 
HETATM    6  C5  UNL     1      21.886   2.266  49.103  1.00  0.00     0.007 C 
HETATM    7  C6  UNL     1      23.168   2.220  49.830  1.00  0.00     0.075 C 
HETATM    8  C13 UNL     1      22.973   1.550  51.140  1.00  0.00    -0.044 A 
HETATM    9  C14 UNL     1      23.859   1.525  52.196  1.00  0.00     0.011 A 
HETATM   10  C15 UNL     1      23.547   0.888  53.379  1.00  0.00     0.039 A 
HETATM   11  C16 UNL     1      22.343   0.246  53.573  1.00  0.00     0.095 A 
HETATM   12  C18 UNL     1      21.448   0.258  52.535  1.00  0.00     0.083 A 
HETATM   13  C19 UNL     1      21.776   0.898  51.359  1.00  0.00     0.041 A 
HETATM   14  N2  UNL     1      20.149  -0.360  52.639  1.00  0.00    -0.185 N 
HETATM   15  C20 UNL     1      19.099   0.314  51.909  1.00  0.00     0.727 A 
HETATM   16  N3  UNL     1      18.074  -0.473  51.534  1.00  0.00    -0.075 NA
HETATM   17  C21 UNL     1      17.054   0.071  50.835  1.00  0.00     0.139 A 
HETATM   18  C22 UNL     1      17.129   1.437  50.539  1.00  0.00     0.053 A 
HETATM   19  C23 UNL     1      18.214   2.215  50.949  1.00  0.00     0.087 A 
HETATM   20  N4  UNL     1      19.198   1.627  51.641  1.00  0.00    -0.062 NA
HETATM   21  H18 UNL     1      20.067  -1.207  53.205  1.00  0.00     0.184 HD
ENDROOT
BRANCH   7  22
HETATM   22  C7  UNL     1      23.748   3.551  49.932  1.00  0.00    -0.046 A 
HETATM   23  C8  UNL     1      23.301   4.584  50.719  1.00  0.00     0.008 A 
HETATM   24  C9  UNL     1      23.848   5.838  50.798  1.00  0.00     0.001 A 
HETATM   25  C10 UNL     1      24.959   6.113  50.020  1.00  0.00     0.000 A 
HETATM   26  C11 UNL     1      25.494   5.151  49.193  1.00  0.00     0.001 A 
HETATM   27  C12 UNL     1      24.874   3.920  49.181  1.00  0.00     0.008 A 
ENDBRANCH   7  22
BRANCH   3  28
HETATM   28  O1  UNL     1      18.852   5.824  50.018  1.00  0.00    -0.344 OA
HETATM   29  H3  UNL     1      18.512   6.318  49.189  1.00  0.00     0.219 HD
ENDBRANCH   3  28
BRANCH  11  30
HETATM   30  O2  UNL     1      21.940  -0.420  54.722  1.00  0.00    -0.354 OA
HETATM   31  C17 UNL     1      22.731  -1.463  55.268  1.00  0.00     0.210 C 
ENDBRANCH  11  30
TORSDOF 3
ENDMDL
MODEL 6
REMARK VINA RESULT:      -7.9      8.457     12.411
REMARK  3 active torsions:
REMARK  status: ('A' for Active; 'I' for Inactive)
REMARK    1  A    between atoms: C3_3  and  O1_4 
REMARK    2  A    between atoms: C6_8  and  C7_9 
REMARK    3  A    between atoms: C16_18  and  O2_19 
ROOT
HETATM    1  C1  UNL     1      27.594   7.066  47.798  1.00  0.00     0.050 C 
HETATM    2  C2  UNL     1      28.818   7.083  48.234  1.00  0.00     0.024 C 
HETATM    3  C3  UNL     1      29.575   5.846  48.506  1.00  0.00     0.170 C 
HETATM    4  N1  UNL     1      30.740   5.558  48.922  1.00  0.00    -0.237 NA
HETATM    5  C4  UNL     1      31.690   6.539  49.254  1.00  0.00     0.116 C 
HETATM    6  C5  UNL     1      32.841   7.148  48.916  1.00  0.00     0.007 C 
HETATM    7  C6  UNL     1      33.875   7.114  47.866  1.00  0.00     0.075 C 
HETATM    8  C13 UNL     1      33.579   8.148  46.842  1.00  0.00    -0.044 A 
HETATM    9  C14 UNL     1      34.161   8.272  45.599  1.00  0.00     0.011 A 
HETATM   10  C15 UNL     1      33.777   9.266  44.722  1.00  0.00     0.039 A 
HETATM   11  C16 UNL     1      32.797  10.182  45.035  1.00  0.00     0.095 A 
HETATM   12  C18 UNL     1      32.205  10.077  46.266  1.00  0.00     0.083 A 
HETATM   13  C19 UNL     1      32.602   9.080  47.131  1.00  0.00     0.041 A 
HETATM   14  N2  UNL     1      31.151  10.968  46.686  1.00  0.00    -0.185 N 
HETATM   15  C20 UNL     1      30.153  10.363  47.540  1.00  0.00     0.727 A 
HETATM   16  N3  UNL     1      29.513  11.218  48.359  1.00  0.00    -0.075 NA
HETATM   17  C21 UNL     1      28.574  10.737  49.202  1.00  0.00     0.139 A 
HETATM   18  C22 UNL     1      28.322   9.360  49.172  1.00  0.00     0.053 A 
HETATM   19  C23 UNL     1      29.012   8.510  48.305  1.00  0.00     0.087 A 
HETATM   20  N4  UNL     1      29.932   9.038  47.488  1.00  0.00    -0.062 NA
HETATM   21  H18 UNL     1      31.184  11.935  46.359  1.00  0.00     0.184 HD
ENDROOT
BRANCH   7  22
HETATM   22  C7  UNL     1      34.009   5.771  47.321  1.00  0.00    -0.046 A 
HETATM   23  C8  UNL     1      33.423   5.286  46.177  1.00  0.00     0.008 A 
HETATM   24  C9  UNL     1      33.547   4.014  45.680  1.00  0.00     0.001 A 
HETATM   25  C10 UNL     1      34.333   3.116  46.380  1.00  0.00     0.000 A 
HETATM   26  C11 UNL     1      34.970   3.495  47.541  1.00  0.00     0.001 A 
HETATM   27  C12 UNL     1      34.785   4.794  47.962  1.00  0.00     0.008 A 
ENDBRANCH   7  22
BRANCH   3  28
HETATM   28  O1  UNL     1      28.789   4.736  48.232  1.00  0.00    -0.344 OA
HETATM   29  H3  UNL     1      28.125   4.782  47.456  1.00  0.00     0.219 HD
ENDBRANCH   3  28
BRANCH  11  30
HETATM   30  O2  UNL     1      32.343  11.213  44.223  1.00  0.00    -0.354 OA
HETATM   31  C17 UNL     1      31.653  10.931  43.017  1.00  0.00     0.210 C 
ENDBRANCH  11  30
TORSDOF 3
ENDMDL
MODEL 7
REMARK VINA RESULT:      -7.9      2.278      7.133
REMARK  3 active torsions:
REMARK  status: ('A' for Active; 'I' for Inactive)
REMARK    1  A    between atoms: C3_3  and  O1_4 
REMARK    2  A    between atoms: C6_8  and  C7_9 
REMARK    3  A    between atoms: C16_18  and  O2_19 
ROOT
HETATM    1  C1  UNL     1      22.261   3.068  47.086  1.00  0.00     0.050 C 
HETATM    2  C2  UNL     1      21.844   3.189  48.311  1.00  0.00     0.024 C 
HETATM    3  C3  UNL     1      20.460   2.867  48.708  1.00  0.00     0.170 C 
HETATM    4  N1  UNL     1      19.789   2.885  49.786  1.00  0.00    -0.237 NA
HETATM    5  C4  UNL     1      20.340   3.283  51.016  1.00  0.00     0.116 C 
HETATM    6  C5  UNL     1      20.761   2.901  52.234  1.00  0.00     0.007 C 
HETATM    7  C6  UNL     1      20.891   1.684  53.058  1.00  0.00     0.075 C 
HETATM    8  C13 UNL     1      22.269   1.145  52.935  1.00  0.00    -0.044 A 
HETATM    9  C14 UNL     1      22.713  -0.092  53.349  1.00  0.00     0.011 A 
HETATM   10  C15 UNL     1      24.019  -0.490  53.150  1.00  0.00     0.039 A 
HETATM   11  C16 UNL     1      24.947   0.319  52.530  1.00  0.00     0.095 A 
HETATM   12  C18 UNL     1      24.526   1.554  52.110  1.00  0.00     0.083 A 
HETATM   13  C19 UNL     1      23.218   1.936  52.318  1.00  0.00     0.041 A 
HETATM   14  N2  UNL     1      25.407   2.469  51.428  1.00  0.00    -0.185 N 
HETATM   15  C20 UNL     1      24.765   3.292  50.426  1.00  0.00     0.727 A 
HETATM   16  N3  UNL     1      25.374   4.466  50.181  1.00  0.00    -0.075 NA
HETATM   17  C21 UNL     1      24.835   5.305  49.270  1.00  0.00     0.139 A 
HETATM   18  C22 UNL     1      23.660   4.895  48.629  1.00  0.00     0.053 A 
HETATM   19  C23 UNL     1      23.062   3.666  48.916  1.00  0.00     0.087 A 
HETATM   20  N4  UNL     1      23.638   2.870  49.827  1.00  0.00    -0.062 NA
HETATM   21  H18 UNL     1      26.393   2.471  51.693  1.00  0.00     0.184 HD
ENDROOT
BRANCH   7  22
HETATM   22  C7  UNL     1      19.851   0.723  52.722  1.00  0.00    -0.046 A 
HETATM   23  C8  UNL     1      19.086   0.707  51.581  1.00  0.00     0.008 A 
HETATM   24  C9  UNL     1      18.100  -0.197  51.280  1.00  0.00     0.001 A 
HETATM   25  C10 UNL     1      17.834  -1.198  52.197  1.00  0.00     0.000 A 
HETATM   26  C11 UNL     1      18.542  -1.279  53.376  1.00  0.00     0.001 A 
HETATM   27  C12 UNL     1      19.513  -0.325  53.590  1.00  0.00     0.008 A 
ENDBRANCH   7  22
BRANCH   3  28
HETATM   28  O1  UNL     1      19.733   2.442  47.605  1.00  0.00    -0.344 OA
HETATM   29  H3  UNL     1      20.108   2.620  46.670  1.00  0.00     0.219 HD
ENDBRANCH   3  28
BRANCH  11  30
HETATM   30  O2  UNL     1      26.277   0.008  52.286  1.00  0.00    -0.354 OA
HETATM   31  C17 UNL     1      27.179  -0.203  53.360  1.00  0.00     0.210 C 
ENDBRANCH  11  30
TORSDOF 3
ENDMDL
MODEL 8
REMARK VINA RESULT:      -7.9      2.766      6.122
REMARK  3 active torsions:
REMARK  status: ('A' for Active; 'I' for Inactive)
REMARK    1  A    between atoms: C3_3  and  O1_4 
REMARK    2  A    between atoms: C6_8  and  C7_9 
REMARK    3  A    between atoms: C16_18  and  O2_19 
ROOT
HETATM    1  C1  UNL     1      23.022   1.081  53.280  1.00  0.00     0.050 C 
HETATM    2  C2  UNL     1      22.964   1.214  51.988  1.00  0.00     0.024 C 
HETATM    3  C3  UNL     1      21.726   0.969  51.225  1.00  0.00     0.170 C 
HETATM    4  N1  UNL     1      21.377   1.017  50.005  1.00  0.00    -0.237 NA
HETATM    5  C4  UNL     1      22.265   1.379  48.976  1.00  0.00     0.116 C 
HETATM    6  C5  UNL     1      22.617   2.311  48.073  1.00  0.00     0.007 C 
HETATM    7  C6  UNL     1      22.206   3.648  47.605  1.00  0.00     0.075 C 
HETATM    8  C13 UNL     1      23.018   4.686  48.289  1.00  0.00    -0.044 A 
HETATM    9  C14 UNL     1      22.780   6.044  48.307  1.00  0.00     0.011 A 
HETATM   10  C15 UNL     1      23.597   6.907  49.008  1.00  0.00     0.039 A 
HETATM   11  C16 UNL     1      24.688   6.466  49.725  1.00  0.00     0.095 A 
HETATM   12  C18 UNL     1      24.943   5.119  49.720  1.00  0.00     0.083 A 
HETATM   13  C19 UNL     1      24.117   4.271  49.014  1.00  0.00     0.041 A 
HETATM   14  N2  UNL     1      26.042   4.548  50.458  1.00  0.00    -0.185 N 
HETATM   15  C20 UNL     1      25.788   3.230  50.998  1.00  0.00     0.727 A 
HETATM   16  N3  UNL     1      26.884   2.474  51.189  1.00  0.00    -0.075 NA
HETATM   17  C21 UNL     1      26.739   1.224  51.677  1.00  0.00     0.139 A 
HETATM   18  C22 UNL     1      25.439   0.785  51.958  1.00  0.00     0.053 A 
HETATM   19  C23 UNL     1      24.330   1.606  51.742  1.00  0.00     0.087 A 
HETATM   20  N4  UNL     1      24.529   2.839  51.258  1.00  0.00    -0.062 NA
HETATM   21  H18 UNL     1      26.898   5.098  50.543  1.00  0.00     0.184 HD
ENDROOT
BRANCH   7  22
HETATM   22  C7  UNL     1      20.770   3.828  47.762  1.00  0.00    -0.046 A 
HETATM   23  C8  UNL     1      20.110   4.210  48.904  1.00  0.00     0.008 A 
HETATM   24  C9  UNL     1      18.755   4.364  49.044  1.00  0.00     0.001 A 
HETATM   25  C10 UNL     1      17.956   4.117  47.942  1.00  0.00     0.000 A 
HETATM   26  C11 UNL     1      18.511   3.729  46.743  1.00  0.00     0.001 A 
HETATM   27  C12 UNL     1      19.882   3.600  46.700  1.00  0.00     0.008 A 
ENDBRANCH   7  22
BRANCH   3  28
HETATM   28  O1  UNL     1      20.703   0.591  52.083  1.00  0.00    -0.344 OA
HETATM   29  H3  UNL     1      19.891   0.104  51.696  1.00  0.00     0.219 HD
ENDBRANCH   3  28
BRANCH  11  30
HETATM   30  O2  UNL     1      25.564   7.253  50.458  1.00  0.00    -0.354 OA
HETATM   31  C17 UNL     1      26.418   8.181  49.808  1.00  0.00     0.210 C 
ENDBRANCH  11  30
TORSDOF 3
ENDMDL
MODEL 9
REMARK VINA RESULT:      -7.7      2.462      6.123
REMARK  3 active torsions:
REMARK  status: ('A' for Active; 'I' for Inactive)
REMARK    1  A    between atoms: C3_3  and  O1_4 
REMARK    2  A    between atoms: C6_8  and  C7_9 
REMARK    3  A    between atoms: C16_18  and  O2_19 
ROOT
HETATM    1  C1  UNL     1      21.596  -0.189  54.931  1.00  0.00     0.050 C 
HETATM    2  C2  UNL     1      21.317   0.000  53.676  1.00  0.00     0.024 C 
HETATM    3  C3  UNL     1      19.959  -0.191  53.133  1.00  0.00     0.170 C 
HETATM    4  N1  UNL     1      19.404  -0.086  51.995  1.00  0.00    -0.237 NA
HETATM    5  C4  UNL     1      20.107   0.303  50.842  1.00  0.00     0.116 C 
HETATM    6  C5  UNL     1      20.319   1.266  49.927  1.00  0.00     0.007 C 
HETATM    7  C6  UNL     1      19.866   2.628  49.589  1.00  0.00     0.075 C 
HETATM    8  C13 UNL     1      20.809   3.622  50.160  1.00  0.00    -0.044 A 
HETATM    9  C14 UNL     1      20.611   4.982  50.271  1.00  0.00     0.011 A 
HETATM   10  C15 UNL     1      21.559   5.800  50.850  1.00  0.00     0.039 A 
HETATM   11  C16 UNL     1      22.747   5.311  51.348  1.00  0.00     0.095 A 
HETATM   12  C18 UNL     1      22.965   3.962  51.247  1.00  0.00     0.083 A 
HETATM   13  C19 UNL     1      22.008   3.158  50.665  1.00  0.00     0.041 A 
HETATM   14  N2  UNL     1      24.162   3.341  51.758  1.00  0.00    -0.185 N 
HETATM   15  C20 UNL     1      23.973   2.006  52.284  1.00  0.00     0.727 A 
HETATM   16  N3  UNL     1      25.067   1.224  52.251  1.00  0.00    -0.075 NA
HETATM   17  C21 UNL     1      24.979  -0.043  52.709  1.00  0.00     0.139 A 
HETATM   18  C22 UNL     1      23.737  -0.470  53.196  1.00  0.00     0.053 A 
HETATM   19  C23 UNL     1      22.628   0.378  53.209  1.00  0.00     0.087 A 
HETATM   20  N4  UNL     1      22.769   1.626  52.745  1.00  0.00    -0.062 NA
HETATM   21  H18 UNL     1      25.032   3.872  51.713  1.00  0.00     0.184 HD
ENDROOT
BRANCH   7  22
HETATM   22  C7  UNL     1      18.484   2.826  50.002  1.00  0.00    -0.046 A 
HETATM   23  C8  UNL     1      18.044   3.188  51.252  1.00  0.00     0.008 A 
HETATM   24  C9  UNL     1      16.738   3.360  51.632  1.00  0.00     0.001 A 
HETATM   25  C10 UNL     1      15.752   3.155  50.684  1.00  0.00     0.000 A 
HETATM   26  C11 UNL     1      16.079   2.789  49.397  1.00  0.00     0.001 A 
HETATM   27  C12 UNL     1      17.418   2.640  49.110  1.00  0.00     0.008 A 
ENDBRANCH   7  22
BRANCH   3  28
HETATM   28  O1  UNL     1      19.092  -0.587  54.141  1.00  0.00    -0.344 OA
HETATM   29  H3  UNL     1      18.672  -1.518  54.092  1.00  0.00     0.219 HD
ENDBRANCH   3  28
BRANCH  11  30
HETATM   30  O2  UNL     1      23.757   6.052  51.946  1.00  0.00    -0.354 OA
HETATM   31  C17 UNL     1      24.462   7.038  51.209  1.00  0.00     0.210 C 
ENDBRANCH  11  30
TORSDOF 3
ENDMDL
