MODEL 1
REMARK VINA RESULT:      -8.1      0.000      0.000
REMARK  6 active torsions:
REMARK  status: ('A' for Active; 'I' for Inactive)
REMARK    1  A    between atoms: C3_3  and  O1_4 
REMARK    2  A    between atoms: O1_4  and  C4_5 
REMARK    3  A    between atoms: C4_5  and  C5_6 
REMARK    4  A    between atoms: C5_6  and  C6_7 
REMARK    5  A    between atoms: C6_7  and  C7_8 
REMARK    6  A    between atoms: C12_13  and  C13_14 
ROOT
HETATM    1  C1  UNL     1      26.411   3.414  50.475  1.00  0.00     0.018 C 
HETATM    2  C2  UNL     1      25.506   2.435  51.119  1.00  0.00     0.054 C 
HETATM    3  C3  UNL     1      24.126   2.967  51.346  1.00  0.00     0.047 C 
HETATM    4  C14 UNL     1      23.871   2.997  52.644  1.00  0.00     0.007 C 
HETATM    5  C15 UNL     1      25.049   2.489  53.423  1.00  0.00     0.048 C 
HETATM    6  C16 UNL     1      25.950   1.837  52.403  1.00  0.00     0.010 A 
HETATM    7  C17 UNL     1      27.342   2.073  52.792  1.00  0.00    -0.010 A 
HETATM    8  C18 UNL     1      28.203   1.096  53.118  1.00  0.00     0.033 A 
HETATM    9  C19 UNL     1      27.838  -0.316  53.120  1.00  0.00     0.104 A 
HETATM   10  N2  UNL     1      28.082  -1.574  53.288  1.00  0.00    -0.172 NA
HETATM   11  N3  UNL     1      26.818  -2.062  52.957  1.00  0.00    -0.276 N 
HETATM   12  C20 UNL     1      26.463  -0.710  52.750  1.00  0.00     0.077 A 
HETATM   13  C21 UNL     1      25.706   0.352  52.447  1.00  0.00     0.021 A 
HETATM   14  H22 UNL     1      26.160  -2.869  52.827  1.00  0.00     0.189 HD
ENDROOT
BRANCH   3  15
HETATM   15  O1  UNL     1      23.373   3.325  50.238  1.00  0.00    -0.355 OA
BRANCH  15  16
HETATM   16  C4  UNL     1      22.171   2.718  49.870  1.00  0.00     0.175 C 
BRANCH  16  17
HETATM   17  C5  UNL     1      22.299   1.192  49.876  1.00  0.00     0.031 C 
BRANCH  17  18
HETATM   18  C6  UNL     1      20.994   0.642  50.449  1.00  0.00     0.041 C 
BRANCH  18  19
HETATM   19  C7  UNL     1      21.304   0.291  51.878  1.00  0.00    -0.046 A 
HETATM   20  C8  UNL     1      22.204  -0.697  52.240  1.00  0.00     0.008 A 
HETATM   21  C9  UNL     1      22.433  -0.965  53.593  1.00  0.00     0.001 A 
HETATM   22  C10 UNL     1      21.774  -0.258  54.591  1.00  0.00     0.001 A 
HETATM   23  C11 UNL     1      20.872   0.731  54.239  1.00  0.00     0.013 A 
HETATM   24  C12 UNL     1      20.691   0.947  52.902  1.00  0.00    -0.013 A 
BRANCH  24  25
HETATM   25  C13 UNL     1      19.741   1.992  52.562  1.00  0.00     0.119 C 
HETATM   26  N1  UNL     1      19.830   3.261  52.547  1.00  0.00    -0.311 NA
HETATM   27  H16 UNL     1      20.720   3.730  52.818  1.00  0.00     0.186 HD
ENDBRANCH  24  25
ENDBRANCH  18  19
ENDBRANCH  17  18
ENDBRANCH  16  17
ENDBRANCH  15  16
ENDBRANCH   3  15
TORSDOF 6
ENDMDL
MODEL 2
REMARK VINA RESULT:      -7.9      2.879      5.546
REMARK  6 active torsions:
REMARK  status: ('A' for Active; 'I' for Inactive)
REMARK    1  A    between atoms: C3_3  and  O1_4 
REMARK    2  A    between atoms: O1_4  and  C4_5 
REMARK    3  A    between atoms: C4_5  and  C5_6 
REMARK    4  A    between atoms: C5_6  and  C6_7 
REMARK    5  A    between atoms: C6_7  and  C7_8 
REMARK    6  A    between atoms: C12_13  and  C13_14 
ROOT
HETATM    1  C1  UNL     1      26.917   2.417  51.457  1.00  0.00     0.018 C 
HETATM    2  C2  UNL     1      26.198   1.167  51.791  1.00  0.00     0.054 C 
HETATM    3  C3  UNL     1      24.720   1.355  51.933  1.00  0.00     0.047 C 
HETATM    4  C14 UNL     1      24.354   1.068  53.172  1.00  0.00     0.007 C 
HETATM    5  C15 UNL     1      25.543   0.656  53.988  1.00  0.00     0.048 C 
HETATM    6  C16 UNL     1      26.650   0.419  52.991  1.00  0.00     0.010 A 
HETATM    7  C17 UNL     1      27.917   0.843  53.590  1.00  0.00    -0.010 A 
HETATM    8  C18 UNL     1      28.941   0.011  53.841  1.00  0.00     0.033 A 
HETATM    9  C19 UNL     1      28.897  -1.415  53.539  1.00  0.00     0.104 A 
HETATM   10  N2  UNL     1      29.396  -2.606  53.506  1.00  0.00    -0.172 NA
HETATM   11  N3  UNL     1      28.304  -3.258  52.933  1.00  0.00    -0.276 N 
HETATM   12  C20 UNL     1      27.679  -1.991  52.931  1.00  0.00     0.077 A 
HETATM   13  C21 UNL     1      26.736  -1.061  52.733  1.00  0.00     0.021 A 
HETATM   14  H22 UNL     1      27.853  -4.136  52.576  1.00  0.00     0.189 HD
ENDROOT
BRANCH   3  15
HETATM   15  O1  UNL     1      24.005   1.776  50.822  1.00  0.00    -0.355 OA
BRANCH  15  16
HETATM   16  C4  UNL     1      23.627   3.099  50.580  1.00  0.00     0.175 C 
BRANCH  16  17
HETATM   17  C5  UNL     1      24.255   3.624  49.285  1.00  0.00     0.031 C 
BRANCH  17  18
HETATM   18  C6  UNL     1      24.343   5.142  49.422  1.00  0.00     0.041 C 
BRANCH  18  19
HETATM   19  C7  UNL     1      25.723   5.506  48.949  1.00  0.00    -0.046 A 
HETATM   20  C8  UNL     1      26.798   4.635  49.000  1.00  0.00     0.008 A 
HETATM   21  C9  UNL     1      28.051   5.052  48.542  1.00  0.00     0.001 A 
HETATM   22  C10 UNL     1      28.246   6.330  48.033  1.00  0.00     0.001 A 
HETATM   23  C11 UNL     1      27.177   7.208  47.978  1.00  0.00     0.013 A 
HETATM   24  C12 UNL     1      25.978   6.743  48.439  1.00  0.00    -0.013 A 
BRANCH  24  25
HETATM   25  C13 UNL     1      24.874   7.684  48.367  1.00  0.00     0.119 C 
HETATM   26  N1  UNL     1      24.620   8.758  49.000  1.00  0.00    -0.311 NA
HETATM   27  H16 UNL     1      25.274   9.106  49.732  1.00  0.00     0.186 HD
ENDBRANCH  24  25
ENDBRANCH  18  19
ENDBRANCH  17  18
ENDBRANCH  16  17
ENDBRANCH  15  16
ENDBRANCH   3  15
TORSDOF 6
ENDMDL
MODEL 3
REMARK VINA RESULT:      -7.9      1.941      5.580
REMARK  6 active torsions:
REMARK  status: ('A' for Active; 'I' for Inactive)
REMARK    1  A    between atoms: C3_3  and  O1_4 
REMARK    2  A    between atoms: O1_4  and  C4_5 
REMARK    3  A    between atoms: C4_5  and  C5_6 
REMARK    4  A    between atoms: C5_6  and  C6_7 
REMARK    5  A    between atoms: C6_7  and  C7_8 
REMARK    6  A    between atoms: C12_13  and  C13_14 
ROOT
HETATM    1  C1  UNL     1      21.447   3.585  52.302  1.00  0.00     0.018 C 
HETATM    2  C2  UNL     1      22.309   2.444  51.915  1.00  0.00     0.054 C 
HETATM    3  C3  UNL     1      22.754   2.497  50.487  1.00  0.00     0.047 C 
HETATM    4  C14 UNL     1      22.277   1.449  49.835  1.00  0.00     0.007 C 
HETATM    5  C15 UNL     1      21.465   0.584  50.754  1.00  0.00     0.048 C 
HETATM    6  C16 UNL     1      21.776   1.078  52.146  1.00  0.00     0.010 A 
HETATM    7  C17 UNL     1      20.563   0.975  52.960  1.00  0.00    -0.010 A 
HETATM    8  C18 UNL     1      20.452   0.186  54.041  1.00  0.00     0.033 A 
HETATM    9  C19 UNL     1      21.540  -0.658  54.521  1.00  0.00     0.104 A 
HETATM   10  N2  UNL     1      22.067  -1.515  55.332  1.00  0.00    -0.172 NA
HETATM   11  N3  UNL     1      23.325  -1.598  54.734  1.00  0.00    -0.276 N 
HETATM   12  C20 UNL     1      22.830  -0.661  53.800  1.00  0.00     0.077 A 
HETATM   13  C21 UNL     1      22.810   0.164  52.745  1.00  0.00     0.021 A 
HETATM   14  H22 UNL     1      24.294  -1.999  54.706  1.00  0.00     0.189 HD
ENDROOT
BRANCH   3  15
HETATM   15  O1  UNL     1      23.544   3.564  50.088  1.00  0.00    -0.355 OA
BRANCH  15  16
HETATM   16  C4  UNL     1      24.786   3.878  50.644  1.00  0.00     0.175 C 
BRANCH  16  17
HETATM   17  C5  UNL     1      25.764   2.707  50.506  1.00  0.00     0.031 C 
BRANCH  17  18
HETATM   18  C6  UNL     1      26.788   2.854  51.629  1.00  0.00     0.041 C 
BRANCH  18  19
HETATM   19  C7  UNL     1      26.971   1.468  52.185  1.00  0.00    -0.046 A 
HETATM   20  C8  UNL     1      26.225   0.378  51.770  1.00  0.00     0.008 A 
HETATM   21  C9  UNL     1      26.455  -0.877  52.339  1.00  0.00     0.001 A 
HETATM   22  C10 UNL     1      27.424  -1.060  53.319  1.00  0.00     0.001 A 
HETATM   23  C11 UNL     1      28.176   0.023  53.739  1.00  0.00     0.013 A 
HETATM   24  C12 UNL     1      27.904   1.224  53.146  1.00  0.00    -0.013 A 
BRANCH  24  25
HETATM   25  C13 UNL     1      28.710   2.343  53.605  1.00  0.00     0.119 C 
HETATM   26  N1  UNL     1      29.512   2.478  54.583  1.00  0.00    -0.311 NA
HETATM   27  H16 UNL     1      29.686   1.685  55.236  1.00  0.00     0.186 HD
ENDBRANCH  24  25
ENDBRANCH  18  19
ENDBRANCH  17  18
ENDBRANCH  16  17
ENDBRANCH  15  16
ENDBRANCH   3  15
TORSDOF 6
ENDMDL
MODEL 4
REMARK VINA RESULT:      -7.9      1.791      2.025
REMARK  6 active torsions:
REMARK  status: ('A' for Active; 'I' for Inactive)
REMARK    1  A    between atoms: C3_3  and  O1_4 
REMARK    2  A    between atoms: O1_4  and  C4_5 
REMARK    3  A    between atoms: C4_5  and  C5_6 
REMARK    4  A    between atoms: C5_6  and  C6_7 
REMARK    5  A    between atoms: C6_7  and  C7_8 
REMARK    6  A    between atoms: C12_13  and  C13_14 
ROOT
HETATM    1  C1  UNL     1      26.790   2.393  51.219  1.00  0.00     0.018 C 
HETATM    2  C2  UNL     1      26.084   1.189  51.712  1.00  0.00     0.054 C 
HETATM    3  C3  UNL     1      24.629   1.422  51.975  1.00  0.00     0.047 C 
HETATM    4  C14 UNL     1      24.375   1.237  53.260  1.00  0.00     0.007 C 
HETATM    5  C15 UNL     1      25.629   0.859  53.993  1.00  0.00     0.048 C 
HETATM    6  C16 UNL     1      26.634   0.522  52.919  1.00  0.00     0.010 A 
HETATM    7  C17 UNL     1      27.958   0.960  53.365  1.00  0.00    -0.010 A 
HETATM    8  C18 UNL     1      28.987   0.125  53.583  1.00  0.00     0.033 A 
HETATM    9  C19 UNL     1      28.891  -1.318  53.398  1.00  0.00     0.104 A 
HETATM   10  N2  UNL     1      29.366  -2.520  53.410  1.00  0.00    -0.172 NA
HETATM   11  N3  UNL     1      28.214  -3.187  52.991  1.00  0.00    -0.276 N 
HETATM   12  C20 UNL     1      27.613  -1.909  52.950  1.00  0.00     0.077 A 
HETATM   13  C21 UNL     1      26.670  -0.975  52.768  1.00  0.00     0.021 A 
HETATM   14  H22 UNL     1      27.718  -4.078  52.745  1.00  0.00     0.189 HD
ENDROOT
BRANCH   3  15
HETATM   15  O1  UNL     1      23.821   1.776  50.905  1.00  0.00    -0.355 OA
BRANCH  15  16
HETATM   16  C4  UNL     1      23.048   2.937  50.849  1.00  0.00     0.175 C 
BRANCH  16  17
HETATM   17  C5  UNL     1      21.581   2.640  51.178  1.00  0.00     0.031 C 
BRANCH  17  18
HETATM   18  C6  UNL     1      21.238   1.315  50.500  1.00  0.00     0.041 C 
BRANCH  18  19
HETATM   19  C7  UNL     1      20.548   0.495  51.555  1.00  0.00    -0.046 A 
HETATM   20  C8  UNL     1      21.216  -0.104  52.610  1.00  0.00     0.008 A 
HETATM   21  C9  UNL     1      20.501  -0.853  53.548  1.00  0.00     0.001 A 
HETATM   22  C10 UNL     1      19.124  -1.013  53.448  1.00  0.00     0.001 A 
HETATM   23  C11 UNL     1      18.447  -0.418  52.397  1.00  0.00     0.013 A 
HETATM   24  C12 UNL     1      19.201   0.302  51.513  1.00  0.00    -0.013 A 
BRANCH  24  25
HETATM   25  C13 UNL     1      18.465   0.917  50.422  1.00  0.00     0.119 C 
HETATM   26  N1  UNL     1      17.735   0.433  49.499  1.00  0.00    -0.311 NA
HETATM   27  H16 UNL     1      17.579  -0.594  49.435  1.00  0.00     0.186 HD
ENDBRANCH  24  25
ENDBRANCH  18  19
ENDBRANCH  17  18
ENDBRANCH  16  17
ENDBRANCH  15  16
ENDBRANCH   3  15
TORSDOF 6
ENDMDL
MODEL 5
REMARK VINA RESULT:      -7.9      3.062      6.591
REMARK  6 active torsions:
REMARK  status: ('A' for Active; 'I' for Inactive)
REMARK    1  A    between atoms: C3_3  and  O1_4 
REMARK    2  A    between atoms: O1_4  and  C4_5 
REMARK    3  A    between atoms: C4_5  and  C5_6 
REMARK    4  A    between atoms: C5_6  and  C6_7 
REMARK    5  A    between atoms: C6_7  and  C7_8 
REMARK    6  A    between atoms: C12_13  and  C13_14 
ROOT
HETATM    1  C1  UNL     1      26.443   2.500  50.541  1.00  0.00     0.018 C 
HETATM    2  C2  UNL     1      25.192   3.276  50.698  1.00  0.00     0.054 C 
HETATM    3  C3  UNL     1      23.959   2.435  50.599  1.00  0.00     0.047 C 
HETATM    4  C14 UNL     1      23.240   2.823  49.558  1.00  0.00     0.007 C 
HETATM    5  C15 UNL     1      23.913   3.962  48.851  1.00  0.00     0.048 C 
HETATM    6  C16 UNL     1      24.991   4.436  49.793  1.00  0.00     0.010 A 
HETATM    7  C17 UNL     1      26.149   4.861  49.003  1.00  0.00    -0.010 A 
HETATM    8  C18 UNL     1      26.618   6.119  48.980  1.00  0.00     0.033 A 
HETATM    9  C19 UNL     1      26.017   7.204  49.748  1.00  0.00     0.104 A 
HETATM   10  N2  UNL     1      25.933   8.430  50.148  1.00  0.00    -0.172 NA
HETATM   11  N3  UNL     1      24.822   8.287  50.979  1.00  0.00    -0.276 N 
HETATM   12  C20 UNL     1      24.838   6.927  50.595  1.00  0.00     0.077 A 
HETATM   13  C21 UNL     1      24.470   5.641  50.530  1.00  0.00     0.021 A 
HETATM   14  H22 UNL     1      24.122   8.702  51.641  1.00  0.00     0.189 HD
ENDROOT
BRANCH   3  15
HETATM   15  O1  UNL     1      23.767   1.442  51.548  1.00  0.00    -0.355 OA
BRANCH  15  16
HETATM   16  C4  UNL     1      23.926   1.624  52.924  1.00  0.00     0.175 C 
BRANCH  16  17
HETATM   17  C5  UNL     1      24.856   0.561  53.517  1.00  0.00     0.031 C 
BRANCH  17  18
HETATM   18  C6  UNL     1      26.181   1.256  53.822  1.00  0.00     0.041 C 
BRANCH  18  19
HETATM   19  C7  UNL     1      27.241   0.217  53.581  1.00  0.00    -0.046 A 
HETATM   20  C8  UNL     1      26.957  -1.085  53.205  1.00  0.00     0.008 A 
HETATM   21  C9  UNL     1      28.000  -1.993  53.004  1.00  0.00     0.001 A 
HETATM   22  C10 UNL     1      29.328  -1.617  53.174  1.00  0.00     0.001 A 
HETATM   23  C11 UNL     1      29.622  -0.318  53.550  1.00  0.00     0.013 A 
HETATM   24  C12 UNL     1      28.559   0.523  53.731  1.00  0.00    -0.013 A 
BRANCH  24  25
HETATM   25  C13 UNL     1      28.897   1.880  54.122  1.00  0.00     0.119 C 
HETATM   26  N1  UNL     1      29.864   2.364  54.793  1.00  0.00    -0.311 NA
HETATM   27  H16 UNL     1      30.604   1.739  55.177  1.00  0.00     0.186 HD
ENDBRANCH  24  25
ENDBRANCH  18  19
ENDBRANCH  17  18
ENDBRANCH  16  17
ENDBRANCH  15  16
ENDBRANCH   3  15
TORSDOF 6
ENDMDL
MODEL 6
REMARK VINA RESULT:      -7.8      2.887      5.365
REMARK  6 active torsions:
REMARK  status: ('A' for Active; 'I' for Inactive)
REMARK    1  A    between atoms: C3_3  and  O1_4 
REMARK    2  A    between atoms: O1_4  and  C4_5 
REMARK    3  A    between atoms: C4_5  and  C5_6 
REMARK    4  A    between atoms: C5_6  and  C6_7 
REMARK    5  A    between atoms: C6_7  and  C7_8 
REMARK    6  A    between atoms: C12_13  and  C13_14 
ROOT
HETATM    1  C1  UNL     1      26.757   2.382  51.228  1.00  0.00     0.018 C 
HETATM    2  C2  UNL     1      26.068   1.148  51.669  1.00  0.00     0.054 C 
HETATM    3  C3  UNL     1      24.597   1.331  51.870  1.00  0.00     0.047 C 
HETATM    4  C14 UNL     1      24.291   1.115  53.139  1.00  0.00     0.007 C 
HETATM    5  C15 UNL     1      25.522   0.764  53.922  1.00  0.00     0.048 C 
HETATM    6  C16 UNL     1      26.584   0.478  52.889  1.00  0.00     0.010 A 
HETATM    7  C17 UNL     1      27.873   0.948  53.402  1.00  0.00    -0.010 A 
HETATM    8  C18 UNL     1      28.917   0.142  53.653  1.00  0.00     0.033 A 
HETATM    9  C19 UNL     1      28.876  -1.299  53.440  1.00  0.00     0.104 A 
HETATM   10  N2  UNL     1      29.388  -2.486  53.454  1.00  0.00    -0.172 NA
HETATM   11  N3  UNL     1      28.278  -3.181  52.972  1.00  0.00    -0.276 N 
HETATM   12  C20 UNL     1      27.639  -1.922  52.924  1.00  0.00     0.077 A 
HETATM   13  C21 UNL     1      26.676  -1.015  52.716  1.00  0.00     0.021 A 
HETATM   14  H22 UNL     1      27.822  -4.082  52.689  1.00  0.00     0.189 HD
ENDROOT
BRANCH   3  15
HETATM   15  O1  UNL     1      23.826   1.678  50.770  1.00  0.00    -0.355 OA
BRANCH  15  16
HETATM   16  C4  UNL     1      22.889   2.713  50.758  1.00  0.00     0.175 C 
BRANCH  16  17
HETATM   17  C5  UNL     1      23.567   4.074  50.948  1.00  0.00     0.031 C 
BRANCH  17  18
HETATM   18  C6  UNL     1      24.174   4.455  49.599  1.00  0.00     0.041 C 
BRANCH  18  19
HETATM   19  C7  UNL     1      24.641   5.875  49.760  1.00  0.00    -0.046 A 
HETATM   20  C8  UNL     1      23.831   6.893  50.235  1.00  0.00     0.008 A 
HETATM   21  C9  UNL     1      24.341   8.189  50.352  1.00  0.00     0.001 A 
HETATM   22  C10 UNL     1      25.653   8.483  50.000  1.00  0.00     0.001 A 
HETATM   23  C11 UNL     1      26.471   7.473  49.525  1.00  0.00     0.013 A 
HETATM   24  C12 UNL     1      25.915   6.228  49.433  1.00  0.00    -0.013 A 
BRANCH  24  25
HETATM   25  C13 UNL     1      26.797   5.187  48.933  1.00  0.00     0.119 C 
HETATM   26  N1  UNL     1      28.054   5.012  49.022  1.00  0.00    -0.311 NA
HETATM   27  H16 UNL     1      28.647   5.698  49.534  1.00  0.00     0.186 HD
ENDBRANCH  24  25
ENDBRANCH  18  19
ENDBRANCH  17  18
ENDBRANCH  16  17
ENDBRANCH  15  16
ENDBRANCH   3  15
TORSDOF 6
ENDMDL
MODEL 7
REMARK VINA RESULT:      -7.6      3.901      6.579
REMARK  6 active torsions:
REMARK  status: ('A' for Active; 'I' for Inactive)
REMARK    1  A    between atoms: C3_3  and  O1_4 
REMARK    2  A    between atoms: O1_4  and  C4_5 
REMARK    3  A    between atoms: C4_5  and  C5_6 
REMARK    4  A    between atoms: C5_6  and  C6_7 
REMARK    5  A    between atoms: C6_7  and  C7_8 
REMARK    6  A    between atoms: C12_13  and  C13_14 
ROOT
HETATM    1  C1  UNL     1      26.652   3.578  49.633  1.00  0.00     0.018 C 
HETATM    2  C2  UNL     1      25.799   4.714  50.051  1.00  0.00     0.054 C 
HETATM    3  C3  UNL     1      24.348   4.358  50.151  1.00  0.00     0.047 C 
HETATM    4  C14 UNL     1      23.656   5.072  49.278  1.00  0.00     0.007 C 
HETATM    5  C15 UNL     1      24.565   5.980  48.504  1.00  0.00     0.048 C 
HETATM    6  C16 UNL     1      25.878   5.959  49.247  1.00  0.00     0.010 A 
HETATM    7  C17 UNL     1      26.968   6.043  48.272  1.00  0.00    -0.010 A 
HETATM    8  C18 UNL     1      27.841   7.062  48.213  1.00  0.00     0.033 A 
HETATM    9  C19 UNL     1      27.794   8.201  49.122  1.00  0.00     0.104 A 
HETATM   10  N2  UNL     1      28.215   9.334  49.579  1.00  0.00    -0.172 NA
HETATM   11  N3  UNL     1      27.274   9.493  50.596  1.00  0.00    -0.276 N 
HETATM   12  C20 UNL     1      26.746   8.257  50.162  1.00  0.00     0.077 A 
HETATM   13  C21 UNL     1      25.942   7.187  50.116  1.00  0.00     0.021 A 
HETATM   14  H22 UNL     1      26.882  10.052  51.393  1.00  0.00     0.189 HD
ENDROOT
BRANCH   3  15
HETATM   15  O1  UNL     1      23.974   3.398  51.078  1.00  0.00    -0.355 OA
BRANCH  15  16
HETATM   16  C4  UNL     1      23.581   2.098  50.754  1.00  0.00     0.175 C 
BRANCH  16  17
HETATM   17  C5  UNL     1      24.007   1.105  51.841  1.00  0.00     0.031 C 
BRANCH  17  18
HETATM   18  C6  UNL     1      25.189   1.736  52.573  1.00  0.00     0.041 C 
BRANCH  18  19
HETATM   19  C7  UNL     1      26.195   0.630  52.733  1.00  0.00    -0.046 A 
HETATM   20  C8  UNL     1      25.867  -0.713  52.650  1.00  0.00     0.008 A 
HETATM   21  C9  UNL     1      26.861  -1.682  52.814  1.00  0.00     0.001 A 
HETATM   22  C10 UNL     1      28.182  -1.327  53.060  1.00  0.00     0.001 A 
HETATM   23  C11 UNL     1      28.520   0.013  53.145  1.00  0.00     0.013 A 
HETATM   24  C12 UNL     1      27.505   0.912  52.975  1.00  0.00    -0.013 A 
BRANCH  24  25
HETATM   25  C13 UNL     1      27.888   2.310  53.067  1.00  0.00     0.119 C 
HETATM   26  N1  UNL     1      29.017   2.884  53.193  1.00  0.00    -0.311 NA
HETATM   27  H16 UNL     1      29.891   2.320  53.252  1.00  0.00     0.186 HD
ENDBRANCH  24  25
ENDBRANCH  18  19
ENDBRANCH  17  18
ENDBRANCH  16  17
ENDBRANCH  15  16
ENDBRANCH   3  15
TORSDOF 6
ENDMDL
MODEL 8
REMARK VINA RESULT:      -7.6      1.809      2.516
REMARK  6 active torsions:
REMARK  status: ('A' for Active; 'I' for Inactive)
REMARK    1  A    between atoms: C3_3  and  O1_4 
REMARK    2  A    between atoms: O1_4  and  C4_5 
REMARK    3  A    between atoms: C4_5  and  C5_6 
REMARK    4  A    between atoms: C5_6  and  C6_7 
REMARK    5  A    between atoms: C6_7  and  C7_8 
REMARK    6  A    between atoms: C12_13  and  C13_14 
ROOT
HETATM    1  C1  UNL     1      26.724   2.350  51.211  1.00  0.00     0.018 C 
HETATM    2  C2  UNL     1      26.049   1.114  51.668  1.00  0.00     0.054 C 
HETATM    3  C3  UNL     1      24.578   1.289  51.882  1.00  0.00     0.047 C 
HETATM    4  C14 UNL     1      24.287   1.081  53.156  1.00  0.00     0.007 C 
HETATM    5  C15 UNL     1      25.529   0.744  53.929  1.00  0.00     0.048 C 
HETATM    6  C16 UNL     1      26.582   0.457  52.888  1.00  0.00     0.010 A 
HETATM    7  C17 UNL     1      27.872   0.940  53.384  1.00  0.00    -0.010 A 
HETATM    8  C18 UNL     1      28.925   0.144  53.630  1.00  0.00     0.033 A 
HETATM    9  C19 UNL     1      28.891  -1.300  53.428  1.00  0.00     0.104 A 
HETATM   10  N2  UNL     1      29.412  -2.483  53.445  1.00  0.00    -0.172 NA
HETATM   11  N3  UNL     1      28.302  -3.189  52.980  1.00  0.00    -0.276 N 
HETATM   12  C20 UNL     1      27.653  -1.935  52.930  1.00  0.00     0.077 A 
HETATM   13  C21 UNL     1      26.682  -1.036  52.724  1.00  0.00     0.021 A 
HETATM   14  H22 UNL     1      27.849  -4.096  52.709  1.00  0.00     0.189 HD
ENDROOT
BRANCH   3  15
HETATM   15  O1  UNL     1      23.794   1.623  50.788  1.00  0.00    -0.355 OA
BRANCH  15  16
HETATM   16  C4  UNL     1      23.012   2.776  50.699  1.00  0.00     0.175 C 
BRANCH  16  17
HETATM   17  C5  UNL     1      21.531   2.426  50.523  1.00  0.00     0.031 C 
BRANCH  17  18
HETATM   18  C6  UNL     1      20.938   2.302  51.925  1.00  0.00     0.041 C 
BRANCH  18  19
HETATM   19  C7  UNL     1      19.798   1.330  51.791  1.00  0.00    -0.046 A 
HETATM   20  C8  UNL     1      18.817   1.440  50.819  1.00  0.00     0.008 A 
HETATM   21  C9  UNL     1      17.788   0.497  50.763  1.00  0.00     0.001 A 
HETATM   22  C10 UNL     1      17.724  -0.558  51.667  1.00  0.00     0.001 A 
HETATM   23  C11 UNL     1      18.700  -0.676  52.641  1.00  0.00     0.013 A 
HETATM   24  C12 UNL     1      19.680   0.276  52.644  1.00  0.00    -0.013 A 
BRANCH  24  25
HETATM   25  C13 UNL     1      20.692   0.127  53.676  1.00  0.00     0.119 C 
HETATM   26  N1  UNL     1      20.632   0.152  54.947  1.00  0.00    -0.311 NA
HETATM   27  H16 UNL     1      19.721   0.306  55.429  1.00  0.00     0.186 HD
ENDBRANCH  24  25
ENDBRANCH  18  19
ENDBRANCH  17  18
ENDBRANCH  16  17
ENDBRANCH  15  16
ENDBRANCH   3  15
TORSDOF 6
ENDMDL
MODEL 9
REMARK VINA RESULT:      -7.4      2.273      7.457
REMARK  6 active torsions:
REMARK  status: ('A' for Active; 'I' for Inactive)
REMARK    1  A    between atoms: C3_3  and  O1_4 
REMARK    2  A    between atoms: O1_4  and  C4_5 
REMARK    3  A    between atoms: C4_5  and  C5_6 
REMARK    4  A    between atoms: C5_6  and  C6_7 
REMARK    5  A    between atoms: C6_7  and  C7_8 
REMARK    6  A    between atoms: C12_13  and  C13_14 
ROOT
HETATM    1  C1  UNL     1      22.197  -1.121  52.937  1.00  0.00     0.018 C 
HETATM    2  C2  UNL     1      21.610  -0.072  52.072  1.00  0.00     0.054 C 
HETATM    3  C3  UNL     1      22.468   1.149  51.960  1.00  0.00     0.047 C 
HETATM    4  C14 UNL     1      21.823   2.190  52.461  1.00  0.00     0.007 C 
HETATM    5  C15 UNL     1      20.469   1.779  52.960  1.00  0.00     0.048 C 
HETATM    6  C16 UNL     1      20.241   0.396  52.401  1.00  0.00     0.010 A 
HETATM    7  C17 UNL     1      19.497  -0.389  53.389  1.00  0.00    -0.010 A 
HETATM    8  C18 UNL     1      18.266  -0.883  53.178  1.00  0.00     0.033 A 
HETATM    9  C19 UNL     1      17.535  -0.685  51.932  1.00  0.00     0.104 A 
HETATM   10  N2  UNL     1      16.512  -0.831  51.156  1.00  0.00    -0.172 NA
HETATM   11  N3  UNL     1      16.999  -0.119  50.059  1.00  0.00    -0.276 N 
HETATM   12  C20 UNL     1      18.158   0.090  50.839  1.00  0.00     0.077 A 
HETATM   13  C21 UNL     1      19.380   0.525  51.173  1.00  0.00     0.021 A 
HETATM   14  H22 UNL     1      16.873   0.248  49.085  1.00  0.00     0.189 HD
ENDROOT
BRANCH   3  15
HETATM   15  O1  UNL     1      23.724   1.015  51.389  1.00  0.00    -0.355 OA
BRANCH  15  16
HETATM   16  C4  UNL     1      24.910   1.459  51.977  1.00  0.00     0.175 C 
BRANCH  16  17
HETATM   17  C5  UNL     1      25.093   0.855  53.373  1.00  0.00     0.031 C 
BRANCH  17  18
HETATM   18  C6  UNL     1      25.887  -0.437  53.193  1.00  0.00     0.041 C 
BRANCH  18  19
HETATM   19  C7  UNL     1      27.322  -0.060  53.441  1.00  0.00    -0.046 A 
HETATM   20  C8  UNL     1      27.714   1.196  53.872  1.00  0.00     0.008 A 
HETATM   21  C9  UNL     1      29.070   1.468  54.076  1.00  0.00     0.001 A 
HETATM   22  C10 UNL     1      30.042   0.499  53.854  1.00  0.00     0.001 A 
HETATM   23  C11 UNL     1      29.660  -0.759  53.423  1.00  0.00     0.013 A 
HETATM   24  C12 UNL     1      28.321  -0.964  53.242  1.00  0.00    -0.013 A 
BRANCH  24  25
HETATM   25  C13 UNL     1      27.948  -2.294  52.792  1.00  0.00     0.119 C 
HETATM   26  N1  UNL     1      28.416  -3.449  53.050  1.00  0.00    -0.311 NA
HETATM   27  H16 UNL     1      29.223  -3.558  53.699  1.00  0.00     0.186 HD
ENDBRANCH  24  25
ENDBRANCH  18  19
ENDBRANCH  17  18
ENDBRANCH  16  17
ENDBRANCH  15  16
ENDBRANCH   3  15
TORSDOF 6
ENDMDL
