MODEL 1
REMARK VINA RESULT:      -7.9      0.000      0.000
REMARK  6 active torsions:
REMARK  status: ('A' for Active; 'I' for Inactive)
REMARK    1  A    between atoms: C2_2  and  C3_3 
REMARK    2  A    between atoms: C4_5  and  C5_6 
REMARK    3  A    between atoms: C5_6  and  C6_7 
REMARK    4  A    between atoms: C7_8  and  C8_9 
REMARK       I    between atoms: C8_9  and  N1_11 
REMARK    5  A    between atoms: N1_11  and  C9_12 
REMARK    6  A    between atoms: C12_15  and  N2_16 
ROOT
HETATM    1  C9  UNL     1      24.977   0.137  53.699  1.00  0.00     0.131 A 
HETATM    2  C10 UNL     1      25.891  -0.882  53.481  1.00  0.00     0.068 A 
HETATM    3  C11 UNL     1      27.224  -0.625  53.432  1.00  0.00     0.043 A 
HETATM    4  C12 UNL     1      28.192  -1.587  53.220  1.00  0.00     0.135 A 
HETATM    5  N3  UNL     1      29.512  -1.256  53.182  1.00  0.00    -0.224 NA
HETATM    6  C13 UNL     1      29.889   0.045  53.356  1.00  0.00     0.236 A 
HETATM    7  N4  UNL     1      28.935   0.979  53.564  1.00  0.00    -0.240 NA
HETATM    8  C14 UNL     1      27.616   0.705  53.609  1.00  0.00     0.089 A 
HETATM    9  C15 UNL     1      26.719   1.730  53.826  1.00  0.00     0.151 A 
HETATM   10  N5  UNL     1      25.432   1.397  53.861  1.00  0.00    -0.241 NA
ENDROOT
BRANCH   1  11
HETATM   11  N1  UNL     1      23.599  -0.207  53.738  1.00  0.00    -0.301 N 
HETATM   12  C8  UNL     1      22.679  -0.929  54.576  1.00  0.00     0.302 C 
HETATM   13  O1  UNL     1      23.042  -1.487  55.637  1.00  0.00    -0.258 OA
HETATM   14  H7  UNL     1      23.296   0.265  52.839  1.00  0.00     0.171 HD
BRANCH  12  15
HETATM   15  C7  UNL     1      21.328  -0.956  54.102  1.00  0.00    -0.005 C 
HETATM   16  C6  UNL     1      20.169  -0.972  53.710  1.00  0.00    -0.093 C 
BRANCH  16  17
HETATM   17  C5  UNL     1      18.765  -0.972  53.247  1.00  0.00     0.122 C 
BRANCH  17  18
HETATM   18  C4  UNL     1      18.163  -2.295  53.531  1.00  0.00     0.004 C 
HETATM   19  C3  UNL     1      17.000  -2.813  53.173  1.00  0.00     0.007 C 
HETATM   20 BR1  UNL     1      16.624  -4.582  53.770  1.00  0.00    -0.051 Br
BRANCH  19  21
HETATM   21  C2  UNL     1      16.061  -2.056  52.358  1.00  0.00     0.008 C 
HETATM   22  C1  UNL     1      14.786  -2.391  52.322  1.00  0.00     0.012 C 
ENDBRANCH  19  21
ENDBRANCH  17  18
ENDBRANCH  16  17
ENDBRANCH  12  15
ENDBRANCH   1  11
BRANCH   4  23
HETATM   23  N2  UNL     1      27.767  -2.929  53.042  1.00  0.00    -0.383 N 
HETATM   24  H9  UNL     1      26.733  -2.944  52.797  1.00  0.00     0.157 HD
HETATM   25  H10 UNL     1      28.202  -3.893  53.090  1.00  0.00     0.157 HD
ENDBRANCH   4  23
TORSDOF 6
ENDMDL
MODEL 2
REMARK VINA RESULT:      -7.5      2.609      3.291
REMARK  6 active torsions:
REMARK  status: ('A' for Active; 'I' for Inactive)
REMARK    1  A    between atoms: C2_2  and  C3_3 
REMARK    2  A    between atoms: C4_5  and  C5_6 
REMARK    3  A    between atoms: C5_6  and  C6_7 
REMARK    4  A    between atoms: C7_8  and  C8_9 
REMARK       I    between atoms: C8_9  and  N1_11 
REMARK    5  A    between atoms: N1_11  and  C9_12 
REMARK    6  A    between atoms: C12_15  and  N2_16 
ROOT
HETATM    1  C9  UNL     1      25.147   0.403  53.356  1.00  0.00     0.131 A 
HETATM    2  C10 UNL     1      25.988  -0.690  53.215  1.00  0.00     0.068 A 
HETATM    3  C11 UNL     1      27.335  -0.552  53.318  1.00  0.00     0.043 A 
HETATM    4  C12 UNL     1      28.233  -1.593  53.189  1.00  0.00     0.135 A 
HETATM    5  N3  UNL     1      29.573  -1.381  53.304  1.00  0.00    -0.224 NA
HETATM    6  C13 UNL     1      30.040  -0.122  53.550  1.00  0.00     0.236 A 
HETATM    7  N4  UNL     1      29.154   0.891  53.675  1.00  0.00    -0.240 NA
HETATM    8  C14 UNL     1      27.819   0.735  53.569  1.00  0.00     0.089 A 
HETATM    9  C15 UNL     1      26.996   1.832  53.712  1.00  0.00     0.151 A 
HETATM   10  N5  UNL     1      25.689   1.615  53.598  1.00  0.00    -0.241 NA
ENDROOT
BRANCH   1  11
HETATM   11  N1  UNL     1      23.748   0.182  53.235  1.00  0.00    -0.301 N 
HETATM   12  C8  UNL     1      22.697  -0.533  53.906  1.00  0.00     0.302 C 
HETATM   13  O1  UNL     1      22.908  -1.224  54.930  1.00  0.00    -0.258 OA
HETATM   14  H7  UNL     1      23.574   0.768  52.370  1.00  0.00     0.171 HD
BRANCH  12  15
HETATM   15  C7  UNL     1      21.400  -0.390  53.315  1.00  0.00    -0.005 C 
HETATM   16  C6  UNL     1      20.288  -0.262  52.822  1.00  0.00    -0.093 C 
BRANCH  16  17
HETATM   17  C5  UNL     1      18.941  -0.087  52.238  1.00  0.00     0.122 C 
BRANCH  17  18
HETATM   18  C4  UNL     1      19.061   0.654  50.961  1.00  0.00     0.004 C 
HETATM   19  C3  UNL     1      19.207   1.946  50.718  1.00  0.00     0.007 C 
HETATM   20 BR1  UNL     1      19.321   2.472  48.891  1.00  0.00    -0.051 Br
BRANCH  19  21
HETATM   21  C2  UNL     1      19.276   2.910  51.807  1.00  0.00     0.008 C 
HETATM   22  C1  UNL     1      20.432   3.435  52.161  1.00  0.00     0.012 C 
ENDBRANCH  19  21
ENDBRANCH  17  18
ENDBRANCH  16  17
ENDBRANCH  12  15
ENDBRANCH   1  11
BRANCH   4  23
HETATM   23  N2  UNL     1      27.715  -2.889  52.934  1.00  0.00    -0.383 N 
HETATM   24  H9  UNL     1      27.522  -2.995  51.894  1.00  0.00     0.157 HD
HETATM   25  H10 UNL     1      27.478  -3.754  53.496  1.00  0.00     0.157 HD
ENDBRANCH   4  23
TORSDOF 6
ENDMDL
MODEL 3
REMARK VINA RESULT:      -7.4      6.463     10.417
REMARK  6 active torsions:
REMARK  status: ('A' for Active; 'I' for Inactive)
REMARK    1  A    between atoms: C2_2  and  C3_3 
REMARK    2  A    between atoms: C4_5  and  C5_6 
REMARK    3  A    between atoms: C5_6  and  C6_7 
REMARK    4  A    between atoms: C7_8  and  C8_9 
REMARK       I    between atoms: C8_9  and  N1_11 
REMARK    5  A    between atoms: N1_11  and  C9_12 
REMARK    6  A    between atoms: C12_15  and  N2_16 
ROOT
HETATM    1  C9  UNL     1      25.840   2.264  51.501  1.00  0.00     0.131 A 
HETATM    2  C10 UNL     1      26.609   1.808  52.560  1.00  0.00     0.068 A 
HETATM    3  C11 UNL     1      26.111   0.905  53.444  1.00  0.00     0.043 A 
HETATM    4  C12 UNL     1      26.817   0.405  54.522  1.00  0.00     0.135 A 
HETATM    5  N3  UNL     1      26.253  -0.499  55.370  1.00  0.00    -0.224 NA
HETATM    6  C13 UNL     1      24.973  -0.921  55.155  1.00  0.00     0.236 A 
HETATM    7  N4  UNL     1      24.290  -0.427  54.099  1.00  0.00    -0.240 NA
HETATM    8  C14 UNL     1      24.800   0.470  53.231  1.00  0.00     0.089 A 
HETATM    9  C15 UNL     1      24.023   0.915  52.183  1.00  0.00     0.151 A 
HETATM   10  N5  UNL     1      24.582   1.797  51.359  1.00  0.00    -0.241 NA
ENDROOT
BRANCH   1  11
HETATM   11  N1  UNL     1      26.427   3.209  50.616  1.00  0.00    -0.301 N 
HETATM   12  C8  UNL     1      26.040   4.079  49.538  1.00  0.00     0.302 C 
HETATM   13  O1  UNL     1      24.857   4.148  49.130  1.00  0.00    -0.258 OA
HETATM   14  H7  UNL     1      27.426   3.147  50.964  1.00  0.00     0.171 HD
BRANCH  12  15
HETATM   15  C7  UNL     1      27.106   4.853  48.978  1.00  0.00    -0.005 C 
HETATM   16  C6  UNL     1      28.024   5.501  48.494  1.00  0.00    -0.093 C 
BRANCH  16  17
HETATM   17  C5  UNL     1      29.134   6.270  47.892  1.00  0.00     0.122 C 
BRANCH  17  18
HETATM   18  C4  UNL     1      30.303   5.376  47.720  1.00  0.00     0.004 C 
HETATM   19  C3  UNL     1      31.494   5.387  48.293  1.00  0.00     0.007 C 
HETATM   20 BR1  UNL     1      32.717   4.025  47.765  1.00  0.00    -0.051 Br
BRANCH  19  21
HETATM   21  C2  UNL     1      31.842   6.398  49.281  1.00  0.00     0.008 C 
HETATM   22  C1  UNL     1      32.570   7.443  48.939  1.00  0.00     0.012 C 
ENDBRANCH  19  21
ENDBRANCH  17  18
ENDBRANCH  16  17
ENDBRANCH  12  15
ENDBRANCH   1  11
BRANCH   4  23
HETATM   23  N2  UNL     1      28.145   0.864  54.716  1.00  0.00    -0.383 N 
HETATM   24  H9  UNL     1      28.197   1.902  54.495  1.00  0.00     0.157 HD
HETATM   25  H10 UNL     1      29.072   0.451  55.016  1.00  0.00     0.157 HD
ENDBRANCH   4  23
TORSDOF 6
ENDMDL
MODEL 4
REMARK VINA RESULT:      -7.4      6.860     10.718
REMARK  6 active torsions:
REMARK  status: ('A' for Active; 'I' for Inactive)
REMARK    1  A    between atoms: C2_2  and  C3_3 
REMARK    2  A    between atoms: C4_5  and  C5_6 
REMARK    3  A    between atoms: C5_6  and  C6_7 
REMARK    4  A    between atoms: C7_8  and  C8_9 
REMARK       I    between atoms: C8_9  and  N1_11 
REMARK    5  A    between atoms: N1_11  and  C9_12 
REMARK    6  A    between atoms: C12_15  and  N2_16 
ROOT
HETATM    1  C9  UNL     1      26.052   2.321  51.383  1.00  0.00     0.131 A 
HETATM    2  C10 UNL     1      26.785   1.850  52.460  1.00  0.00     0.068 A 
HETATM    3  C11 UNL     1      26.240   0.976  53.346  1.00  0.00     0.043 A 
HETATM    4  C12 UNL     1      26.909   0.464  54.442  1.00  0.00     0.135 A 
HETATM    5  N3  UNL     1      26.299  -0.408  55.290  1.00  0.00    -0.224 NA
HETATM    6  C13 UNL     1      25.007  -0.786  55.057  1.00  0.00     0.236 A 
HETATM    7  N4  UNL     1      24.361  -0.281  53.984  1.00  0.00    -0.240 NA
HETATM    8  C14 UNL     1      24.918   0.586  53.115  1.00  0.00     0.089 A 
HETATM    9  C15 UNL     1      24.176   1.046  52.048  1.00  0.00     0.151 A 
HETATM   10  N5  UNL     1      24.781   1.899  51.225  1.00  0.00    -0.241 NA
ENDROOT
BRANCH   1  11
HETATM   11  N1  UNL     1      26.688   3.233  50.498  1.00  0.00    -0.301 N 
HETATM   12  C8  UNL     1      26.337   4.200  49.493  1.00  0.00     0.302 C 
HETATM   13  O1  UNL     1      25.146   4.434  49.180  1.00  0.00    -0.258 OA
HETATM   14  H7  UNL     1      27.694   3.033  50.765  1.00  0.00     0.171 HD
BRANCH  12  15
HETATM   15  C7  UNL     1      27.449   4.868  48.886  1.00  0.00    -0.005 C 
HETATM   16  C6  UNL     1      28.405   5.441  48.382  1.00  0.00    -0.093 C 
BRANCH  16  17
HETATM   17  C5  UNL     1      29.574   6.124  47.789  1.00  0.00     0.122 C 
BRANCH  17  18
HETATM   18  C4  UNL     1      29.565   7.546  48.203  1.00  0.00     0.004 C 
HETATM   19  C3  UNL     1      30.429   8.246  48.919  1.00  0.00     0.007 C 
HETATM   20 BR1  UNL     1      30.013  10.081  49.217  1.00  0.00    -0.051 Br
BRANCH  19  21
HETATM   21  C2  UNL     1      31.637   7.630  49.448  1.00  0.00     0.008 C 
HETATM   22  C1  UNL     1      32.792   7.791  48.833  1.00  0.00     0.012 C 
ENDBRANCH  19  21
ENDBRANCH  17  18
ENDBRANCH  16  17
ENDBRANCH  12  15
ENDBRANCH   1  11
BRANCH   4  23
HETATM   23  N2  UNL     1      28.250   0.877  54.654  1.00  0.00    -0.383 N 
HETATM   24  H9  UNL     1      28.596   0.494  55.582  1.00  0.00     0.157 HD
HETATM   25  H10 UNL     1      28.974   1.453  54.140  1.00  0.00     0.157 HD
ENDBRANCH   4  23
TORSDOF 6
ENDMDL
MODEL 5
REMARK VINA RESULT:      -7.4      1.499      2.103
REMARK  6 active torsions:
REMARK  status: ('A' for Active; 'I' for Inactive)
REMARK    1  A    between atoms: C2_2  and  C3_3 
REMARK    2  A    between atoms: C4_5  and  C5_6 
REMARK    3  A    between atoms: C5_6  and  C6_7 
REMARK    4  A    between atoms: C7_8  and  C8_9 
REMARK       I    between atoms: C8_9  and  N1_11 
REMARK    5  A    between atoms: N1_11  and  C9_12 
REMARK    6  A    between atoms: C12_15  and  N2_16 
ROOT
HETATM    1  C9  UNL     1      24.699  -0.090  54.242  1.00  0.00     0.131 A 
HETATM    2  C10 UNL     1      25.194   0.866  53.369  1.00  0.00     0.068 A 
HETATM    3  C11 UNL     1      26.493   1.256  53.426  1.00  0.00     0.043 A 
HETATM    4  C12 UNL     1      27.056   2.201  52.590  1.00  0.00     0.135 A 
HETATM    5  N3  UNL     1      28.368   2.544  52.703  1.00  0.00    -0.224 NA
HETATM    6  C13 UNL     1      29.144   1.946  53.656  1.00  0.00     0.236 A 
HETATM    7  N4  UNL     1      28.586   1.023  54.469  1.00  0.00    -0.240 NA
HETATM    8  C14 UNL     1      27.292   0.648  54.399  1.00  0.00     0.089 A 
HETATM    9  C15 UNL     1      26.815  -0.304  55.274  1.00  0.00     0.151 A 
HETATM   10  N5  UNL     1      25.532  -0.632  55.155  1.00  0.00    -0.241 NA
ENDROOT
BRANCH   1  11
HETATM   11  N1  UNL     1      23.329  -0.448  54.125  1.00  0.00    -0.301 N 
HETATM   12  C8  UNL     1      22.367  -1.304  54.767  1.00  0.00     0.302 C 
HETATM   13  O1  UNL     1      22.667  -2.023  55.749  1.00  0.00    -0.258 OA
HETATM   14  H7  UNL     1      23.080   0.161  53.295  1.00  0.00     0.171 HD
BRANCH  12  15
HETATM   15  C7  UNL     1      21.054  -1.266  54.198  1.00  0.00    -0.005 C 
HETATM   16  C6  UNL     1      19.926  -1.237  53.726  1.00  0.00    -0.093 C 
BRANCH  16  17
HETATM   17  C5  UNL     1      18.554  -1.195  53.175  1.00  0.00     0.122 C 
BRANCH  17  18
HETATM   18  C4  UNL     1      17.879  -2.483  53.459  1.00  0.00     0.004 C 
HETATM   19  C3  UNL     1      16.685  -2.931  53.110  1.00  0.00     0.007 C 
HETATM   20 BR1  UNL     1      16.214  -4.678  53.703  1.00  0.00    -0.051 Br
BRANCH  19  21
HETATM   21  C2  UNL     1      15.783  -2.116  52.309  1.00  0.00     0.008 C 
HETATM   22  C1  UNL     1      14.497  -2.402  52.253  1.00  0.00     0.012 C 
ENDBRANCH  19  21
ENDBRANCH  17  18
ENDBRANCH  16  17
ENDBRANCH  12  15
ENDBRANCH   1  11
BRANCH   4  23
HETATM   23  N2  UNL     1      26.223   2.802  51.611  1.00  0.00    -0.383 N 
HETATM   24  H9  UNL     1      26.283   2.249  50.706  1.00  0.00     0.157 HD
HETATM   25  H10 UNL     1      25.575   3.637  51.552  1.00  0.00     0.157 HD
ENDBRANCH   4  23
TORSDOF 6
ENDMDL
MODEL 6
REMARK VINA RESULT:      -7.3      6.468     10.206
REMARK  6 active torsions:
REMARK  status: ('A' for Active; 'I' for Inactive)
REMARK    1  A    between atoms: C2_2  and  C3_3 
REMARK    2  A    between atoms: C4_5  and  C5_6 
REMARK    3  A    between atoms: C5_6  and  C6_7 
REMARK    4  A    between atoms: C7_8  and  C8_9 
REMARK       I    between atoms: C8_9  and  N1_11 
REMARK    5  A    between atoms: N1_11  and  C9_12 
REMARK    6  A    between atoms: C12_15  and  N2_16 
ROOT
HETATM    1  C9  UNL     1      25.037   1.755  51.710  1.00  0.00     0.131 A 
HETATM    2  C10 UNL     1      25.751   1.145  52.730  1.00  0.00     0.068 A 
HETATM    3  C11 UNL     1      25.138   0.306  53.605  1.00  0.00     0.043 A 
HETATM    4  C12 UNL     1      25.784  -0.337  54.644  1.00  0.00     0.135 A 
HETATM    5  N3  UNL     1      25.105  -1.164  55.485  1.00  0.00    -0.224 NA
HETATM    6  C13 UNL     1      23.767  -1.365  55.302  1.00  0.00     0.236 A 
HETATM    7  N4  UNL     1      23.143  -0.732  54.284  1.00  0.00    -0.240 NA
HETATM    8  C14 UNL     1      23.768   0.097  53.424  1.00  0.00     0.089 A 
HETATM    9  C15 UNL     1      23.044   0.697  52.416  1.00  0.00     0.151 A 
HETATM   10  N5  UNL     1      23.716   1.504  51.599  1.00  0.00    -0.241 NA
ENDROOT
BRANCH   1  11
HETATM   11  N1  UNL     1      25.745   2.620  50.832  1.00  0.00    -0.301 N 
HETATM   12  C8  UNL     1      25.481   3.515  49.738  1.00  0.00     0.302 C 
HETATM   13  O1  UNL     1      24.323   3.707  49.299  1.00  0.00    -0.258 OA
HETATM   14  H7  UNL     1      26.722   2.454  51.206  1.00  0.00     0.171 HD
BRANCH  12  15
HETATM   15  C7  UNL     1      26.638   4.162  49.198  1.00  0.00    -0.005 C 
HETATM   16  C6  UNL     1      27.621   4.729  48.741  1.00  0.00    -0.093 C 
BRANCH  16  17
HETATM   17  C5  UNL     1      28.809   5.428  48.206  1.00  0.00     0.122 C 
BRANCH  17  18
HETATM   18  C4  UNL     1      28.620   6.889  48.362  1.00  0.00     0.004 C 
HETATM   19  C3  UNL     1      29.500   7.872  48.460  1.00  0.00     0.007 C 
HETATM   20 BR1  UNL     1      28.806   9.634  48.652  1.00  0.00    -0.051 Br
BRANCH  19  21
HETATM   21  C2  UNL     1      30.930   7.603  48.419  1.00  0.00     0.008 C 
HETATM   22  C1  UNL     1      31.633   7.553  49.534  1.00  0.00     0.012 C 
ENDBRANCH  19  21
ENDBRANCH  17  18
ENDBRANCH  16  17
ENDBRANCH  12  15
ENDBRANCH   1  11
BRANCH   4  23
HETATM   23  N2  UNL     1      27.174  -0.106  54.805  1.00  0.00    -0.383 N 
HETATM   24  H9  UNL     1      27.714  -0.971  54.505  1.00  0.00     0.157 HD
HETATM   25  H10 UNL     1      27.796   0.683  55.139  1.00  0.00     0.157 HD
ENDBRANCH   4  23
TORSDOF 6
ENDMDL
MODEL 7
REMARK VINA RESULT:      -7.2      6.612     10.426
REMARK  6 active torsions:
REMARK  status: ('A' for Active; 'I' for Inactive)
REMARK    1  A    between atoms: C2_2  and  C3_3 
REMARK    2  A    between atoms: C4_5  and  C5_6 
REMARK    3  A    between atoms: C5_6  and  C6_7 
REMARK    4  A    between atoms: C7_8  and  C8_9 
REMARK       I    between atoms: C8_9  and  N1_11 
REMARK    5  A    between atoms: N1_11  and  C9_12 
REMARK    6  A    between atoms: C12_15  and  N2_16 
ROOT
HETATM    1  C9  UNL     1      26.664   2.088  52.162  1.00  0.00     0.131 A 
HETATM    2  C10 UNL     1      25.399   1.526  52.218  1.00  0.00     0.068 A 
HETATM    3  C11 UNL     1      25.071   0.640  53.193  1.00  0.00     0.043 A 
HETATM    4  C12 UNL     1      23.832   0.040  53.312  1.00  0.00     0.135 A 
HETATM    5  N3  UNL     1      23.574  -0.841  54.317  1.00  0.00    -0.224 NA
HETATM    6  C13 UNL     1      24.551  -1.138  55.224  1.00  0.00     0.236 A 
HETATM    7  N4  UNL     1      25.760  -0.548  55.100  1.00  0.00    -0.240 NA
HETATM    8  C14 UNL     1      26.068   0.330  54.124  1.00  0.00     0.089 A 
HETATM    9  C15 UNL     1      27.331   0.881  54.082  1.00  0.00     0.151 A 
HETATM   10  N5  UNL     1      27.573   1.741  53.096  1.00  0.00    -0.241 NA
ENDROOT
BRANCH   1  11
HETATM   11  N1  UNL     1      26.935   3.008  51.113  1.00  0.00    -0.301 N 
HETATM   12  C8  UNL     1      26.315   3.508  49.915  1.00  0.00     0.302 C 
HETATM   13  O1  UNL     1      25.187   3.116  49.536  1.00  0.00    -0.258 OA
HETATM   14  H7  UNL     1      27.889   3.336  51.437  1.00  0.00     0.171 HD
BRANCH  12  15
HETATM   15  C7  UNL     1      27.085   4.481  49.201  1.00  0.00    -0.005 C 
HETATM   16  C6  UNL     1      27.753   5.313  48.602  1.00  0.00    -0.093 C 
BRANCH  16  17
HETATM   17  C5  UNL     1      28.579   6.310  47.889  1.00  0.00     0.122 C 
BRANCH  17  18
HETATM   18  C4  UNL     1      30.008   6.050  48.179  1.00  0.00     0.004 C 
HETATM   19  C3  UNL     1      30.949   6.835  48.677  1.00  0.00     0.007 C 
HETATM   20 BR1  UNL     1      32.683   6.076  48.885  1.00  0.00    -0.051 Br
BRANCH  19  21
HETATM   21  C2  UNL     1      30.657   8.213  49.047  1.00  0.00     0.008 C 
HETATM   22  C1  UNL     1      30.929   9.199  48.215  1.00  0.00     0.012 C 
ENDBRANCH  19  21
ENDBRANCH  17  18
ENDBRANCH  16  17
ENDBRANCH  12  15
ENDBRANCH   1  11
BRANCH   4  23
HETATM   23  N2  UNL     1      22.840   0.372  52.354  1.00  0.00    -0.383 N 
HETATM   24  H9  UNL     1      23.202   1.144  51.720  1.00  0.00     0.157 HD
HETATM   25  H10 UNL     1      21.858   0.057  52.115  1.00  0.00     0.157 HD
ENDBRANCH   4  23
TORSDOF 6
ENDMDL
MODEL 8
REMARK VINA RESULT:      -7.1      2.231      2.416
REMARK  6 active torsions:
REMARK  status: ('A' for Active; 'I' for Inactive)
REMARK    1  A    between atoms: C2_2  and  C3_3 
REMARK    2  A    between atoms: C4_5  and  C5_6 
REMARK    3  A    between atoms: C5_6  and  C6_7 
REMARK    4  A    between atoms: C7_8  and  C8_9 
REMARK       I    between atoms: C8_9  and  N1_11 
REMARK    5  A    between atoms: N1_11  and  C9_12 
REMARK    6  A    between atoms: C12_15  and  N2_16 
ROOT
HETATM    1  C9  UNL     1      25.636   1.043  52.708  1.00  0.00     0.131 A 
HETATM    2  C10 UNL     1      26.182  -0.230  52.722  1.00  0.00     0.068 A 
HETATM    3  C11 UNL     1      27.485  -0.427  53.054  1.00  0.00     0.043 A 
HETATM    4  C12 UNL     1      28.097  -1.665  53.089  1.00  0.00     0.135 A 
HETATM    5  N3  UNL     1      29.409  -1.787  53.431  1.00  0.00    -0.224 NA
HETATM    6  C13 UNL     1      30.134  -0.673  53.743  1.00  0.00     0.236 A 
HETATM    7  N4  UNL     1      29.527   0.534  53.706  1.00  0.00    -0.240 NA
HETATM    8  C14 UNL     1      28.232   0.710  53.374  1.00  0.00     0.089 A 
HETATM    9  C15 UNL     1      27.703   1.983  53.365  1.00  0.00     0.151 A 
HETATM   10  N5  UNL     1      26.421   2.093  53.030  1.00  0.00    -0.241 NA
ENDROOT
BRANCH   1  11
HETATM   11  N1  UNL     1      24.266   1.173  52.351  1.00  0.00    -0.301 N 
HETATM   12  C8  UNL     1      23.246   2.184  52.295  1.00  0.00     0.302 C 
HETATM   13  O1  UNL     1      23.466   3.372  52.629  1.00  0.00    -0.258 OA
HETATM   14  H7  UNL     1      24.084   0.167  52.071  1.00  0.00     0.171 HD
BRANCH  12  15
HETATM   15  C7  UNL     1      21.971   1.727  51.831  1.00  0.00    -0.005 C 
HETATM   16  C6  UNL     1      20.882   1.325  51.444  1.00  0.00    -0.093 C 
BRANCH  16  17
HETATM   17  C5  UNL     1      19.561   0.834  50.998  1.00  0.00     0.122 C 
BRANCH  17  18
HETATM   18  C4  UNL     1      19.108  -0.235  51.919  1.00  0.00     0.004 C 
HETATM   19  C3  UNL     1      17.894  -0.673  52.207  1.00  0.00     0.007 C 
HETATM   20 BR1  UNL     1      17.768  -2.091  53.471  1.00  0.00    -0.051 Br
BRANCH  19  21
HETATM   21  C2  UNL     1      16.717  -0.089  51.579  1.00  0.00     0.008 C 
HETATM   22  C1  UNL     1      16.102  -0.719  50.598  1.00  0.00     0.012 C 
ENDBRANCH  19  21
ENDBRANCH  17  18
ENDBRANCH  16  17
ENDBRANCH  12  15
ENDBRANCH   1  11
BRANCH   4  23
HETATM   23  N2  UNL     1      27.316  -2.802  52.759  1.00  0.00    -0.383 N 
HETATM   24  H9  UNL     1      27.046  -2.761  51.732  1.00  0.00     0.157 HD
HETATM   25  H10 UNL     1      26.942  -3.657  53.258  1.00  0.00     0.157 HD
ENDBRANCH   4  23
TORSDOF 6
ENDMDL
MODEL 9
REMARK VINA RESULT:      -7.1      8.032     10.301
REMARK  6 active torsions:
REMARK  status: ('A' for Active; 'I' for Inactive)
REMARK    1  A    between atoms: C2_2  and  C3_3 
REMARK    2  A    between atoms: C4_5  and  C5_6 
REMARK    3  A    between atoms: C5_6  and  C6_7 
REMARK    4  A    between atoms: C7_8  and  C8_9 
REMARK       I    between atoms: C8_9  and  N1_11 
REMARK    5  A    between atoms: N1_11  and  C9_12 
REMARK    6  A    between atoms: C12_15  and  N2_16 
ROOT
HETATM    1  C9  UNL     1      30.712   6.566  48.775  1.00  0.00     0.131 A 
HETATM    2  C10 UNL     1      31.852   5.779  48.718  1.00  0.00     0.068 A 
HETATM    3  C11 UNL     1      33.082   6.342  48.597  1.00  0.00     0.043 A 
HETATM    4  C12 UNL     1      34.260   5.623  48.534  1.00  0.00     0.135 A 
HETATM    5  N3  UNL     1      35.460   6.254  48.412  1.00  0.00    -0.224 NA
HETATM    6  C13 UNL     1      35.504   7.618  48.353  1.00  0.00     0.236 A 
HETATM    7  N4  UNL     1      34.348   8.313  48.415  1.00  0.00    -0.240 NA
HETATM    8  C14 UNL     1      33.134   7.737  48.535  1.00  0.00     0.089 A 
HETATM    9  C15 UNL     1      32.010   8.533  48.591  1.00  0.00     0.151 A 
HETATM   10  N5  UNL     1      30.842   7.908  48.709  1.00  0.00    -0.241 NA
ENDROOT
BRANCH   1  11
HETATM   11  N1  UNL     1      29.459   5.908  48.901  1.00  0.00    -0.301 N 
HETATM   12  C8  UNL     1      28.122   6.001  48.380  1.00  0.00     0.302 C 
HETATM   13  O1  UNL     1      27.792   6.877  47.547  1.00  0.00    -0.258 OA
HETATM   14  H7  UNL     1      29.742   5.169  49.606  1.00  0.00     0.171 HD
BRANCH  12  15
HETATM   15  C7  UNL     1      27.209   5.021  48.885  1.00  0.00    -0.005 C 
HETATM   16  C6  UNL     1      26.438   4.182  49.330  1.00  0.00    -0.093 C 
BRANCH  16  17
HETATM   17  C5  UNL     1      25.508   3.178  49.889  1.00  0.00     0.122 C 
BRANCH  17  18
HETATM   18  C4  UNL     1      26.241   2.323  50.852  1.00  0.00     0.004 C 
HETATM   19  C3  UNL     1      25.973   2.006  52.107  1.00  0.00     0.007 C 
HETATM   20 BR1  UNL     1      27.210   0.856  52.987  1.00  0.00    -0.051 Br
BRANCH  19  21
HETATM   21  C2  UNL     1      24.784   2.518  52.773  1.00  0.00     0.008 C 
HETATM   22  C1  UNL     1      23.718   1.756  52.916  1.00  0.00     0.012 C 
ENDBRANCH  19  21
ENDBRANCH  17  18
ENDBRANCH  16  17
ENDBRANCH  12  15
ENDBRANCH   1  11
BRANCH   4  23
HETATM   23  N2  UNL     1      34.179   4.208  48.599  1.00  0.00    -0.383 N 
HETATM   24  H9  UNL     1      34.195   3.898  49.615  1.00  0.00     0.157 HD
HETATM   25  H10 UNL     1      34.109   3.403  47.915  1.00  0.00     0.157 HD
ENDBRANCH   4  23
TORSDOF 6
ENDMDL
