MODEL 1
REMARK VINA RESULT:      -8.2      0.000      0.000
REMARK  7 active torsions:
REMARK  status: ('A' for Active; 'I' for Inactive)
REMARK    1  A    between atoms: C5_7  and  C6_8 
REMARK    2  A    between atoms: C7_9  and  N1_11 
REMARK    3  A    between atoms: N1_11  and  C8_12 
REMARK    4  A    between atoms: N2_19  and  C14_20 
REMARK    5  A    between atoms: C14_20  and  C15_21 
REMARK    6  A    between atoms: C15_21  and  C16_22 
REMARK    7  A    between atoms: C16_22  and  N3_23 
ROOT
HETATM    1  O1  UNL     1      23.153  -1.481  55.738  1.00  0.00    -0.271 OA
HETATM    2  C1  UNL     1      22.536  -1.044  54.751  1.00  0.00     0.247 C 
HETATM    3  C2  UNL     1      21.229  -1.664  54.398  1.00  0.00     0.271 C 
HETATM    4  O2  UNL     1      20.518  -0.923  53.479  1.00  0.00    -0.376 OA
HETATM    5  C3  UNL     1      20.764   0.448  53.546  1.00  0.00     0.225 C 
HETATM    6  C4  UNL     1      22.146   0.808  53.212  1.00  0.00     0.038 C 
HETATM    7  C5  UNL     1      22.589   1.692  52.367  1.00  0.00     0.030 C 
HETATM    8  N2  UNL     1      23.066   0.031  53.969  1.00  0.00    -0.318 N 
ENDROOT
BRANCH   7   9
HETATM    9  C6  UNL     1      21.833   2.583  51.505  1.00  0.00     0.044 C 
HETATM   10  C7  UNL     1      22.253   3.734  50.972  1.00  0.00     0.103 C 
HETATM   11 CL1  UNL     1      21.198   4.687  49.952  1.00  0.00    -0.065 Cl
BRANCH  10  12
HETATM   12  N1  UNL     1      23.594   4.059  51.302  1.00  0.00    -0.347 N 
HETATM   13  H7  UNL     1      24.032   4.145  52.236  1.00  0.00     0.167 HD
BRANCH  12  14
HETATM   14  C8  UNL     1      24.742   4.363  50.491  1.00  0.00     0.033 A 
HETATM   15  C9  UNL     1      25.048   5.616  49.994  1.00  0.00     0.032 A 
HETATM   16  C10 UNL     1      26.190   5.733  49.230  1.00  0.00     0.044 A 
HETATM   17  C11 UNL     1      27.022   4.680  48.945  1.00  0.00     0.116 A 
HETATM   18  F1  UNL     1      28.135   4.776  48.203  1.00  0.00    -0.206 F 
HETATM   19  C12 UNL     1      26.683   3.434  49.459  1.00  0.00     0.044 A 
HETATM   20  C13 UNL     1      25.555   3.289  50.223  1.00  0.00     0.032 A 
ENDBRANCH  12  14
ENDBRANCH  10  12
ENDBRANCH   7   9
BRANCH   8  21
HETATM   21  C14 UNL     1      24.513   0.286  53.975  1.00  0.00     0.134 C 
BRANCH  21  22
HETATM   22  C15 UNL     1      25.276  -0.685  53.117  1.00  0.00     0.050 C 
BRANCH  22  23
HETATM   23  C16 UNL     1      25.952   0.152  52.040  1.00  0.00     0.274 C 
BRANCH  23  24
HETATM   24  N3  UNL     1      27.352   0.317  52.330  1.00  0.00     0.088 N 
HETATM   25  C17 UNL     1      27.731   1.632  52.735  1.00  0.00     0.272 C 
HETATM   26  C18 UNL     1      28.038   1.649  54.227  1.00  0.00     0.030 C 
HETATM   27  C19 UNL     1      29.299   0.837  54.433  1.00  0.00     0.003 C 
HETATM   28  C20 UNL     1      29.261  -0.435  53.637  1.00  0.00     0.030 C 
HETATM   29  C21 UNL     1      27.899  -0.755  53.106  1.00  0.00     0.272 C 
ENDBRANCH  23  24
ENDBRANCH  22  23
ENDBRANCH  21  22
ENDBRANCH   8  21
TORSDOF 7
ENDMDL
MODEL 2
REMARK VINA RESULT:      -8.0      2.931      5.921
REMARK  7 active torsions:
REMARK  status: ('A' for Active; 'I' for Inactive)
REMARK    1  A    between atoms: C5_7  and  C6_8 
REMARK    2  A    between atoms: C7_9  and  N1_11 
REMARK    3  A    between atoms: N1_11  and  C8_12 
REMARK    4  A    between atoms: N2_19  and  C14_20 
REMARK    5  A    between atoms: C14_20  and  C15_21 
REMARK    6  A    between atoms: C15_21  and  C16_22 
REMARK    7  A    between atoms: C16_22  and  N3_23 
ROOT
HETATM    1  O1  UNL     1      28.959   2.349  53.020  1.00  0.00    -0.271 OA
HETATM    2  C1  UNL     1      28.255   1.404  53.415  1.00  0.00     0.247 C 
HETATM    3  C2  UNL     1      28.763   0.555  54.528  1.00  0.00     0.271 C 
HETATM    4  O2  UNL     1      27.791  -0.263  55.061  1.00  0.00    -0.376 OA
HETATM    5  C3  UNL     1      26.501   0.258  54.975  1.00  0.00     0.225 C 
HETATM    6  C4  UNL     1      26.030   0.419  53.594  1.00  0.00     0.038 C 
HETATM    7  C5  UNL     1      24.923   0.014  53.046  1.00  0.00     0.030 C 
HETATM    8  N2  UNL     1      26.983   1.134  52.817  1.00  0.00    -0.318 N 
ENDROOT
BRANCH   7   9
HETATM    9  C6  UNL     1      23.827  -0.722  53.652  1.00  0.00     0.044 C 
HETATM   10  C7  UNL     1      22.568  -0.301  53.814  1.00  0.00     0.103 C 
HETATM   11 CL1  UNL     1      21.371  -1.327  54.571  1.00  0.00    -0.065 Cl
BRANCH  10  12
HETATM   12  N1  UNL     1      22.333   1.001  53.304  1.00  0.00    -0.347 N 
HETATM   13  H7  UNL     1      22.431   1.915  53.781  1.00  0.00     0.167 HD
BRANCH  12  14
HETATM   14  C8  UNL     1      21.902   1.471  52.014  1.00  0.00     0.033 A 
HETATM   15  C9  UNL     1      21.686   0.666  50.913  1.00  0.00     0.032 A 
HETATM   16  C10 UNL     1      21.275   1.281  49.749  1.00  0.00     0.044 A 
HETATM   17  C11 UNL     1      21.073   2.633  49.637  1.00  0.00     0.116 A 
HETATM   18  F1  UNL     1      20.674   3.247  48.513  1.00  0.00    -0.206 F 
HETATM   19  C12 UNL     1      21.300   3.413  50.764  1.00  0.00     0.044 A 
HETATM   20  C13 UNL     1      21.709   2.829  51.935  1.00  0.00     0.032 A 
ENDBRANCH  12  14
ENDBRANCH  10  12
ENDBRANCH   7   9
BRANCH   8  21
HETATM   21  C14 UNL     1      26.714   1.595  51.448  1.00  0.00     0.134 C 
BRANCH  21  22
HETATM   22  C15 UNL     1      26.022   2.930  51.412  1.00  0.00     0.050 C 
BRANCH  22  23
HETATM   23  C16 UNL     1      25.127   2.902  50.181  1.00  0.00     0.274 C 
BRANCH  23  24
HETATM   24  N3  UNL     1      25.418   4.016  49.317  1.00  0.00     0.088 N 
HETATM   25  C17 UNL     1      24.517   5.117  49.434  1.00  0.00     0.272 C 
HETATM   26  C18 UNL     1      25.199   6.273  50.154  1.00  0.00     0.030 C 
HETATM   27  C19 UNL     1      26.281   6.797  49.234  1.00  0.00     0.003 C 
HETATM   28  C20 UNL     1      27.056   5.670  48.613  1.00  0.00     0.030 C 
HETATM   29  C21 UNL     1      26.809   4.353  49.276  1.00  0.00     0.272 C 
ENDBRANCH  23  24
ENDBRANCH  22  23
ENDBRANCH  21  22
ENDBRANCH   8  21
TORSDOF 7
ENDMDL
MODEL 3
REMARK VINA RESULT:      -8.0      3.209      6.423
REMARK  7 active torsions:
REMARK  status: ('A' for Active; 'I' for Inactive)
REMARK    1  A    between atoms: C5_7  and  C6_8 
REMARK    2  A    between atoms: C7_9  and  N1_11 
REMARK    3  A    between atoms: N1_11  and  C8_12 
REMARK    4  A    between atoms: N2_19  and  C14_20 
REMARK    5  A    between atoms: C14_20  and  C15_21 
REMARK    6  A    between atoms: C15_21  and  C16_22 
REMARK    7  A    between atoms: C16_22  and  N3_23 
ROOT
HETATM    1  O1  UNL     1      28.757   2.478  53.072  1.00  0.00    -0.271 OA
HETATM    2  C1  UNL     1      28.096   1.490  53.438  1.00  0.00     0.247 C 
HETATM    3  C2  UNL     1      28.680   0.586  54.467  1.00  0.00     0.271 C 
HETATM    4  O2  UNL     1      27.756  -0.292  54.990  1.00  0.00    -0.376 OA
HETATM    5  C3  UNL     1      26.450   0.198  55.001  1.00  0.00     0.225 C 
HETATM    6  C4  UNL     1      25.907   0.435  53.659  1.00  0.00     0.038 C 
HETATM    7  C5  UNL     1      24.785   0.036  53.139  1.00  0.00     0.030 C 
HETATM    8  N2  UNL     1      26.803   1.225  52.885  1.00  0.00    -0.318 N 
ENDROOT
BRANCH   7   9
HETATM    9  C6  UNL     1      23.738  -0.768  53.747  1.00  0.00     0.044 C 
HETATM   10  C7  UNL     1      22.449  -0.441  53.879  1.00  0.00     0.103 C 
HETATM   11 CL1  UNL     1      21.321  -1.538  54.645  1.00  0.00    -0.065 Cl
BRANCH  10  12
HETATM   12  N1  UNL     1      22.123   0.827  53.333  1.00  0.00    -0.347 N 
HETATM   13  H7  UNL     1      22.398   1.768  53.663  1.00  0.00     0.167 HD
BRANCH  12  14
HETATM   14  C8  UNL     1      21.339   1.214  52.191  1.00  0.00     0.033 A 
HETATM   15  C9  UNL     1      20.206   2.002  52.242  1.00  0.00     0.032 A 
HETATM   16  C10 UNL     1      19.571   2.278  51.049  1.00  0.00     0.044 A 
HETATM   17  C11 UNL     1      20.006   1.813  49.834  1.00  0.00     0.116 A 
HETATM   18  F1  UNL     1      19.401   2.070  48.665  1.00  0.00    -0.206 F 
HETATM   19  C12 UNL     1      21.149   1.022  49.820  1.00  0.00     0.044 A 
HETATM   20  C13 UNL     1      21.801   0.733  50.990  1.00  0.00     0.032 A 
ENDBRANCH  12  14
ENDBRANCH  10  12
ENDBRANCH   7   9
BRANCH   8  21
HETATM   21  C14 UNL     1      26.455   1.765  51.565  1.00  0.00     0.134 C 
BRANCH  21  22
HETATM   22  C15 UNL     1      25.458   2.888  51.643  1.00  0.00     0.050 C 
BRANCH  22  23
HETATM   23  C16 UNL     1      25.396   3.489  50.245  1.00  0.00     0.274 C 
BRANCH  23  24
HETATM   24  N3  UNL     1      24.348   4.472  50.161  1.00  0.00     0.088 N 
HETATM   25  C17 UNL     1      23.994   4.860  48.834  1.00  0.00     0.272 C 
HETATM   26  C18 UNL     1      22.642   4.266  48.462  1.00  0.00     0.030 C 
HETATM   27  C19 UNL     1      21.600   4.951  49.321  1.00  0.00     0.003 C 
HETATM   28  C20 UNL     1      22.062   5.062  50.746  1.00  0.00     0.030 C 
HETATM   29  C21 UNL     1      23.253   4.208  51.045  1.00  0.00     0.272 C 
ENDBRANCH  23  24
ENDBRANCH  22  23
ENDBRANCH  21  22
ENDBRANCH   8  21
TORSDOF 7
ENDMDL
MODEL 4
REMARK VINA RESULT:      -8.0      3.060      5.974
REMARK  7 active torsions:
REMARK  status: ('A' for Active; 'I' for Inactive)
REMARK    1  A    between atoms: C5_7  and  C6_8 
REMARK    2  A    between atoms: C7_9  and  N1_11 
REMARK    3  A    between atoms: N1_11  and  C8_12 
REMARK    4  A    between atoms: N2_19  and  C14_20 
REMARK    5  A    between atoms: C14_20  and  C15_21 
REMARK    6  A    between atoms: C15_21  and  C16_22 
REMARK    7  A    between atoms: C16_22  and  N3_23 
ROOT
HETATM    1  O1  UNL     1      19.555   2.777  48.829  1.00  0.00    -0.271 OA
HETATM    2  C1  UNL     1      19.845   2.574  50.021  1.00  0.00     0.247 C 
HETATM    3  C2  UNL     1      19.074   3.293  51.072  1.00  0.00     0.271 C 
HETATM    4  O2  UNL     1      19.287   2.782  52.333  1.00  0.00    -0.376 OA
HETATM    5  C3  UNL     1      19.587   1.420  52.349  1.00  0.00     0.225 C 
HETATM    6  C4  UNL     1      20.852   1.096  51.680  1.00  0.00     0.038 C 
HETATM    7  C5  UNL     1      21.859   0.395  52.109  1.00  0.00     0.030 C 
HETATM    8  N2  UNL     1      20.895   1.670  50.379  1.00  0.00    -0.318 N 
ENDROOT
BRANCH   7   9
HETATM    9  C6  UNL     1      22.020  -0.274  53.389  1.00  0.00     0.044 C 
HETATM   10  C7  UNL     1      23.168  -0.639  53.966  1.00  0.00     0.103 C 
HETATM   11 CL1  UNL     1      23.173  -1.443  55.520  1.00  0.00    -0.065 Cl
BRANCH  10  12
HETATM   12  N1  UNL     1      24.320  -0.295  53.213  1.00  0.00    -0.347 N 
HETATM   13  H7  UNL     1      24.382   0.043  52.237  1.00  0.00     0.167 HD
BRANCH  12  14
HETATM   14  C8  UNL     1      25.722  -0.296  53.536  1.00  0.00     0.033 A 
HETATM   15  C9  UNL     1      26.287   0.376  54.602  1.00  0.00     0.032 A 
HETATM   16  C10 UNL     1      27.651   0.270  54.767  1.00  0.00     0.044 A 
HETATM   17  C11 UNL     1      28.461  -0.462  53.936  1.00  0.00     0.116 A 
HETATM   18  F1  UNL     1      29.789  -0.576  54.081  1.00  0.00    -0.206 F 
HETATM   19  C12 UNL     1      27.859  -1.125  52.873  1.00  0.00     0.044 A 
HETATM   20  C13 UNL     1      26.504  -1.038  52.684  1.00  0.00     0.032 A 
ENDBRANCH  12  14
ENDBRANCH  10  12
ENDBRANCH   7   9
BRANCH   8  21
HETATM   21  C14 UNL     1      21.959   1.376  49.409  1.00  0.00     0.134 C 
BRANCH  21  22
HETATM   22  C15 UNL     1      22.848   2.560  49.148  1.00  0.00     0.050 C 
BRANCH  22  23
HETATM   23  C16 UNL     1      23.803   2.633  50.331  1.00  0.00     0.274 C 
BRANCH  23  24
HETATM   24  N3  UNL     1      24.589   3.838  50.275  1.00  0.00     0.088 N 
HETATM   25  C17 UNL     1      25.969   3.669  50.600  1.00  0.00     0.272 C 
HETATM   26  C18 UNL     1      26.817   3.775  49.340  1.00  0.00     0.030 C 
HETATM   27  C19 UNL     1      26.737   5.210  48.865  1.00  0.00     0.003 C 
HETATM   28  C20 UNL     1      25.327   5.723  48.928  1.00  0.00     0.030 C 
HETATM   29  C21 UNL     1      24.316   4.638  49.120  1.00  0.00     0.272 C 
ENDBRANCH  23  24
ENDBRANCH  22  23
ENDBRANCH  21  22
ENDBRANCH   8  21
TORSDOF 7
ENDMDL
MODEL 5
REMARK VINA RESULT:      -7.9      3.676      6.241
REMARK  7 active torsions:
REMARK  status: ('A' for Active; 'I' for Inactive)
REMARK    1  A    between atoms: C5_7  and  C6_8 
REMARK    2  A    between atoms: C7_9  and  N1_11 
REMARK    3  A    between atoms: N1_11  and  C8_12 
REMARK    4  A    between atoms: N2_19  and  C14_20 
REMARK    5  A    between atoms: C14_20  and  C15_21 
REMARK    6  A    between atoms: C15_21  and  C16_22 
REMARK    7  A    between atoms: C16_22  and  N3_23 
ROOT
HETATM    1  O1  UNL     1      27.961   4.683  48.612  1.00  0.00    -0.271 OA
HETATM    2  C1  UNL     1      26.817   4.952  49.018  1.00  0.00     0.247 C 
HETATM    3  C2  UNL     1      26.398   6.380  49.069  1.00  0.00     0.271 C 
HETATM    4  O2  UNL     1      25.042   6.532  49.258  1.00  0.00    -0.376 OA
HETATM    5  C3  UNL     1      24.277   5.490  48.733  1.00  0.00     0.225 C 
HETATM    6  C4  UNL     1      24.525   4.200  49.387  1.00  0.00     0.038 C 
HETATM    7  C5  UNL     1      23.679   3.354  49.894  1.00  0.00     0.030 C 
HETATM    8  N2  UNL     1      25.919   3.916  49.427  1.00  0.00    -0.318 N 
ENDROOT
BRANCH   7   9
HETATM    9  C6  UNL     1      22.230   3.446  49.957  1.00  0.00     0.044 C 
HETATM   10  C7  UNL     1      21.444   3.060  50.966  1.00  0.00     0.103 C 
HETATM   11 CL1  UNL     1      19.707   3.245  50.869  1.00  0.00    -0.065 Cl
BRANCH  10  12
HETATM   12  N1  UNL     1      22.155   2.531  52.073  1.00  0.00    -0.347 N 
HETATM   13  H7  UNL     1      22.964   2.931  52.579  1.00  0.00     0.167 HD
BRANCH  12  14
HETATM   14  C8  UNL     1      22.000   1.318  52.831  1.00  0.00     0.033 A 
HETATM   15  C9  UNL     1      20.818   0.893  53.407  1.00  0.00     0.032 A 
HETATM   16  C10 UNL     1      20.844  -0.296  54.104  1.00  0.00     0.044 A 
HETATM   17  C11 UNL     1      21.970  -1.066  54.247  1.00  0.00     0.116 A 
HETATM   18  F1  UNL     1      22.013  -2.225  54.921  1.00  0.00    -0.206 F 
HETATM   19  C12 UNL     1      23.141  -0.609  53.655  1.00  0.00     0.044 A 
HETATM   20  C13 UNL     1      23.145   0.570  52.956  1.00  0.00     0.032 A 
ENDBRANCH  12  14
ENDBRANCH  10  12
ENDBRANCH   7   9
BRANCH   8  21
HETATM   21  C14 UNL     1      26.458   2.621  49.866  1.00  0.00     0.134 C 
BRANCH  21  22
HETATM   22  C15 UNL     1      26.723   2.576  51.345  1.00  0.00     0.050 C 
BRANCH  22  23
HETATM   23  C16 UNL     1      26.449   1.141  51.774  1.00  0.00     0.274 C 
BRANCH  23  24
HETATM   24  N3  UNL     1      27.114   0.847  53.016  1.00  0.00     0.088 N 
HETATM   25  C17 UNL     1      27.138  -0.535  53.372  1.00  0.00     0.272 C 
HETATM   26  C18 UNL     1      28.541  -1.096  53.184  1.00  0.00     0.030 C 
HETATM   27  C19 UNL     1      29.426  -0.447  54.227  1.00  0.00     0.003 C 
HETATM   28  C20 UNL     1      29.159   1.028  54.321  1.00  0.00     0.030 C 
HETATM   29  C21 UNL     1      28.350   1.552  53.177  1.00  0.00     0.272 C 
ENDBRANCH  23  24
ENDBRANCH  22  23
ENDBRANCH  21  22
ENDBRANCH   8  21
TORSDOF 7
ENDMDL
MODEL 6
REMARK VINA RESULT:      -7.7      1.795      2.417
REMARK  7 active torsions:
REMARK  status: ('A' for Active; 'I' for Inactive)
REMARK    1  A    between atoms: C5_7  and  C6_8 
REMARK    2  A    between atoms: C7_9  and  N1_11 
REMARK    3  A    between atoms: N1_11  and  C8_12 
REMARK    4  A    between atoms: N2_19  and  C14_20 
REMARK    5  A    between atoms: C14_20  and  C15_21 
REMARK    6  A    between atoms: C15_21  and  C16_22 
REMARK    7  A    between atoms: C16_22  and  N3_23 
ROOT
HETATM    1  O1  UNL     1      22.397  -0.385  52.945  1.00  0.00    -0.271 OA
HETATM    2  C1  UNL     1      22.011   0.663  52.397  1.00  0.00     0.247 C 
HETATM    3  C2  UNL     1      20.587   0.761  51.974  1.00  0.00     0.271 C 
HETATM    4  O2  UNL     1      20.216   2.047  51.647  1.00  0.00    -0.376 OA
HETATM    5  C3  UNL     1      20.917   3.033  52.341  1.00  0.00     0.225 C 
HETATM    6  C4  UNL     1      22.352   3.052  52.035  1.00  0.00     0.038 C 
HETATM    7  C5  UNL     1      23.108   4.047  51.679  1.00  0.00     0.030 C 
HETATM    8  N2  UNL     1      22.913   1.752  52.176  1.00  0.00    -0.318 N 
ENDROOT
BRANCH   7   9
HETATM    9  C6  UNL     1      22.743   5.439  51.480  1.00  0.00     0.044 C 
HETATM   10  C7  UNL     1      23.052   6.209  50.432  1.00  0.00     0.103 C 
HETATM   11 CL1  UNL     1      22.528   7.876  50.361  1.00  0.00    -0.065 Cl
BRANCH  10  12
HETATM   12  N1  UNL     1      23.799   5.536  49.431  1.00  0.00    -0.347 N 
HETATM   13  H7  UNL     1      23.472   4.861  48.718  1.00  0.00     0.167 HD
BRANCH  12  14
HETATM   14  C8  UNL     1      25.194   5.565  49.084  1.00  0.00     0.033 A 
HETATM   15  C9  UNL     1      25.859   6.666  48.578  1.00  0.00     0.032 A 
HETATM   16  C10 UNL     1      27.201   6.521  48.296  1.00  0.00     0.044 A 
HETATM   17  C11 UNL     1      27.896   5.354  48.493  1.00  0.00     0.116 A 
HETATM   18  F1  UNL     1      29.200   5.196  48.224  1.00  0.00    -0.206 F 
HETATM   19  C12 UNL     1      27.195   4.267  49.002  1.00  0.00     0.044 A 
HETATM   20  C13 UNL     1      25.861   4.382  49.292  1.00  0.00     0.032 A 
ENDBRANCH  12  14
ENDBRANCH  10  12
ENDBRANCH   7   9
BRANCH   8  21
HETATM   21  C14 UNL     1      24.357   1.493  52.102  1.00  0.00     0.134 C 
BRANCH  21  22
HETATM   22  C15 UNL     1      25.037   1.617  53.438  1.00  0.00     0.050 C 
BRANCH  22  23
HETATM   23  C16 UNL     1      26.482   1.987  53.137  1.00  0.00     0.274 C 
BRANCH  23  24
HETATM   24  N3  UNL     1      27.386   1.075  53.789  1.00  0.00     0.088 N 
HETATM   25  C17 UNL     1      26.915  -0.269  53.887  1.00  0.00     0.272 C 
HETATM   26  C18 UNL     1      27.676  -1.159  52.913  1.00  0.00     0.030 C 
HETATM   27  C19 UNL     1      29.104  -1.246  53.409  1.00  0.00     0.003 C 
HETATM   28  C20 UNL     1      29.614   0.102  53.830  1.00  0.00     0.030 C 
HETATM   29  C21 UNL     1      28.746   1.229  53.368  1.00  0.00     0.272 C 
ENDBRANCH  23  24
ENDBRANCH  22  23
ENDBRANCH  21  22
ENDBRANCH   8  21
TORSDOF 7
ENDMDL
MODEL 7
REMARK VINA RESULT:      -7.6      2.845      5.938
REMARK  7 active torsions:
REMARK  status: ('A' for Active; 'I' for Inactive)
REMARK    1  A    between atoms: C5_7  and  C6_8 
REMARK    2  A    between atoms: C7_9  and  N1_11 
REMARK    3  A    between atoms: N1_11  and  C8_12 
REMARK    4  A    between atoms: N2_19  and  C14_20 
REMARK    5  A    between atoms: C14_20  and  C15_21 
REMARK    6  A    between atoms: C15_21  and  C16_22 
REMARK    7  A    between atoms: C16_22  and  N3_23 
ROOT
HETATM    1  O1  UNL     1      25.546  -1.127  54.869  1.00  0.00    -0.271 OA
HETATM    2  C1  UNL     1      26.026  -0.116  54.325  1.00  0.00     0.247 C 
HETATM    3  C2  UNL     1      27.178   0.562  54.979  1.00  0.00     0.271 C 
HETATM    4  O2  UNL     1      27.794   1.479  54.155  1.00  0.00    -0.376 OA
HETATM    5  C3  UNL     1      27.711   1.167  52.798  1.00  0.00     0.225 C 
HETATM    6  C4  UNL     1      26.337   1.180  52.282  1.00  0.00     0.038 C 
HETATM    7  C5  UNL     1      25.851   1.787  51.241  1.00  0.00     0.030 C 
HETATM    8  N2  UNL     1      25.485   0.386  53.099  1.00  0.00    -0.318 N 
ENDROOT
BRANCH   7   9
HETATM    9  C6  UNL     1      26.538   2.636  50.282  1.00  0.00     0.044 C 
HETATM   10  C7  UNL     1      26.316   3.934  50.054  1.00  0.00     0.103 C 
HETATM   11 CL1  UNL     1      27.241   4.803  48.851  1.00  0.00    -0.065 Cl
BRANCH  10  12
HETATM   12  N1  UNL     1      25.306   4.493  50.879  1.00  0.00    -0.347 N 
HETATM   13  H7  UNL     1      25.405   5.009  51.771  1.00  0.00     0.167 HD
BRANCH  12  14
HETATM   14  C8  UNL     1      23.873   4.530  50.760  1.00  0.00     0.033 A 
HETATM   15  C9  UNL     1      23.166   4.182  49.625  1.00  0.00     0.032 A 
HETATM   16  C10 UNL     1      21.791   4.278  49.680  1.00  0.00     0.044 A 
HETATM   17  C11 UNL     1      21.105   4.696  50.792  1.00  0.00     0.116 A 
HETATM   18  F1  UNL     1      19.769   4.796  50.863  1.00  0.00    -0.206 F 
HETATM   19  C12 UNL     1      21.847   5.040  51.915  1.00  0.00     0.044 A 
HETATM   20  C13 UNL     1      23.215   4.953  51.890  1.00  0.00     0.032 A 
ENDBRANCH  12  14
ENDBRANCH  10  12
ENDBRANCH   7   9
BRANCH   8  21
HETATM   21  C14 UNL     1      24.097   0.071  52.737  1.00  0.00     0.134 C 
BRANCH  21  22
HETATM   22  C15 UNL     1      23.114   1.065  53.292  1.00  0.00     0.050 C 
BRANCH  22  23
HETATM   23  C16 UNL     1      22.084   1.291  52.194  1.00  0.00     0.274 C 
BRANCH  23  24
HETATM   24  N3  UNL     1      20.757   1.008  52.677  1.00  0.00     0.088 N 
HETATM   25  C17 UNL     1      19.702   1.550  51.883  1.00  0.00     0.272 C 
HETATM   26  C18 UNL     1      19.007   0.437  51.111  1.00  0.00     0.030 C 
HETATM   27  C19 UNL     1      18.283  -0.425  52.124  1.00  0.00     0.003 C 
HETATM   28  C20 UNL     1      19.148  -0.698  53.320  1.00  0.00     0.030 C 
HETATM   29  C21 UNL     1      20.586  -0.350  53.096  1.00  0.00     0.272 C 
ENDBRANCH  23  24
ENDBRANCH  22  23
ENDBRANCH  21  22
ENDBRANCH   8  21
TORSDOF 7
ENDMDL
MODEL 8
REMARK VINA RESULT:      -7.5      2.938      4.082
REMARK  7 active torsions:
REMARK  status: ('A' for Active; 'I' for Inactive)
REMARK    1  A    between atoms: C5_7  and  C6_8 
REMARK    2  A    between atoms: C7_9  and  N1_11 
REMARK    3  A    between atoms: N1_11  and  C8_12 
REMARK    4  A    between atoms: N2_19  and  C14_20 
REMARK    5  A    between atoms: C14_20  and  C15_21 
REMARK    6  A    between atoms: C15_21  and  C16_22 
REMARK    7  A    between atoms: C16_22  and  N3_23 
ROOT
HETATM    1  O1  UNL     1      20.618   0.853  52.030  1.00  0.00    -0.271 OA
HETATM    2  C1  UNL     1      21.476   1.076  51.158  1.00  0.00     0.247 C 
HETATM    3  C2  UNL     1      21.099   0.899  49.729  1.00  0.00     0.271 C 
HETATM    4  O2  UNL     1      22.024   1.440  48.862  1.00  0.00    -0.376 OA
HETATM    5  C3  UNL     1      22.712   2.536  49.380  1.00  0.00     0.225 C 
HETATM    6  C4  UNL     1      23.549   2.203  50.538  1.00  0.00     0.038 C 
HETATM    7  C5  UNL     1      24.804   2.466  50.754  1.00  0.00     0.030 C 
HETATM    8  N2  UNL     1      22.798   1.492  51.515  1.00  0.00    -0.318 N 
ENDROOT
BRANCH   7   9
HETATM    9  C6  UNL     1      25.743   3.172  49.901  1.00  0.00     0.044 C 
HETATM   10  C7  UNL     1      25.985   4.487  49.886  1.00  0.00     0.103 C 
HETATM   11 CL1  UNL     1      27.156   5.170  48.781  1.00  0.00    -0.065 Cl
BRANCH  10  12
HETATM   12  N1  UNL     1      25.228   5.216  50.839  1.00  0.00    -0.347 N 
HETATM   13  H7  UNL     1      25.345   5.261  51.866  1.00  0.00     0.167 HD
BRANCH  12  14
HETATM   14  C8  UNL     1      24.098   6.096  50.706  1.00  0.00     0.033 A 
HETATM   15  C9  UNL     1      24.127   7.331  50.087  1.00  0.00     0.032 A 
HETATM   16  C10 UNL     1      22.951   8.049  50.049  1.00  0.00     0.044 A 
HETATM   17  C11 UNL     1      21.772   7.601  50.589  1.00  0.00     0.116 A 
HETATM   18  F1  UNL     1      20.619   8.286  50.562  1.00  0.00    -0.206 F 
HETATM   19  C12 UNL     1      21.778   6.355  51.205  1.00  0.00     0.044 A 
HETATM   20  C13 UNL     1      22.933   5.619  51.257  1.00  0.00     0.032 A 
ENDBRANCH  12  14
ENDBRANCH  10  12
ENDBRANCH   7   9
BRANCH   8  21
HETATM   21  C14 UNL     1      23.321   1.176  52.851  1.00  0.00     0.134 C 
BRANCH  21  22
HETATM   22  C15 UNL     1      23.742  -0.261  52.983  1.00  0.00     0.050 C 
BRANCH  22  23
HETATM   23  C16 UNL     1      24.337  -0.395  54.378  1.00  0.00     0.274 C 
BRANCH  23  24
HETATM   24  N3  UNL     1      25.742  -0.702  54.303  1.00  0.00     0.088 N 
HETATM   25  C17 UNL     1      26.206  -1.074  53.005  1.00  0.00     0.272 C 
HETATM   26  C18 UNL     1      27.036   0.053  52.406  1.00  0.00     0.030 C 
HETATM   27  C19 UNL     1      28.307   0.156  53.222  1.00  0.00     0.003 C 
HETATM   28  C20 UNL     1      28.015   0.070  54.692  1.00  0.00     0.030 C 
HETATM   29  C21 UNL     1      26.563   0.231  55.013  1.00  0.00     0.272 C 
ENDBRANCH  23  24
ENDBRANCH  22  23
ENDBRANCH  21  22
ENDBRANCH   8  21
TORSDOF 7
ENDMDL
MODEL 9
REMARK VINA RESULT:      -7.4      2.978      5.698
REMARK  7 active torsions:
REMARK  status: ('A' for Active; 'I' for Inactive)
REMARK    1  A    between atoms: C5_7  and  C6_8 
REMARK    2  A    between atoms: C7_9  and  N1_11 
REMARK    3  A    between atoms: N1_11  and  C8_12 
REMARK    4  A    between atoms: N2_19  and  C14_20 
REMARK    5  A    between atoms: C14_20  and  C15_21 
REMARK    6  A    between atoms: C15_21  and  C16_22 
REMARK    7  A    between atoms: C16_22  and  N3_23 
ROOT
HETATM    1  O1  UNL     1      21.875  -1.738  54.987  1.00  0.00    -0.271 OA
HETATM    2  C1  UNL     1      22.896  -1.073  54.742  1.00  0.00     0.247 C 
HETATM    3  C2  UNL     1      24.150  -1.400  55.476  1.00  0.00     0.271 C 
HETATM    4  O2  UNL     1      25.261  -0.801  54.926  1.00  0.00    -0.376 OA
HETATM    5  C3  UNL     1      25.169  -0.590  53.550  1.00  0.00     0.225 C 
HETATM    6  C4  UNL     1      24.108   0.353  53.177  1.00  0.00     0.038 C 
HETATM    7  C5  UNL     1      24.167   1.404  52.415  1.00  0.00     0.030 C 
HETATM    8  N2  UNL     1      22.872  -0.016  53.778  1.00  0.00    -0.318 N 
ENDROOT
BRANCH   7   9
HETATM    9  C6  UNL     1      25.313   1.952  51.711  1.00  0.00     0.044 C 
HETATM   10  C7  UNL     1      25.298   2.883  50.752  1.00  0.00     0.103 C 
HETATM   11 CL1  UNL     1      26.785   3.425  50.006  1.00  0.00    -0.065 Cl
BRANCH  10  12
HETATM   12  N1  UNL     1      23.999   3.364  50.446  1.00  0.00    -0.347 N 
HETATM   13  H7  UNL     1      23.265   3.711  51.088  1.00  0.00     0.167 HD
BRANCH  12  14
HETATM   14  C8  UNL     1      23.298   3.528  49.200  1.00  0.00     0.033 A 
HETATM   15  C9  UNL     1      22.952   4.744  48.643  1.00  0.00     0.032 A 
HETATM   16  C10 UNL     1      22.278   4.721  47.441  1.00  0.00     0.044 A 
HETATM   17  C11 UNL     1      21.941   3.565  46.782  1.00  0.00     0.116 A 
HETATM   18  F1  UNL     1      21.286   3.524  45.613  1.00  0.00    -0.206 F 
HETATM   19  C12 UNL     1      22.304   2.360  47.372  1.00  0.00     0.044 A 
HETATM   20  C13 UNL     1      22.976   2.352  48.566  1.00  0.00     0.032 A 
ENDBRANCH  12  14
ENDBRANCH  10  12
ENDBRANCH   7   9
BRANCH   8  21
HETATM   21  C14 UNL     1      21.598   0.638  53.451  1.00  0.00     0.134 C 
BRANCH  21  22
HETATM   22  C15 UNL     1      21.001   0.133  52.167  1.00  0.00     0.050 C 
BRANCH  22  23
HETATM   23  C16 UNL     1      19.493   0.277  52.323  1.00  0.00     0.274 C 
BRANCH  23  24
HETATM   24  N3  UNL     1      18.972   1.218  51.366  1.00  0.00     0.088 N 
HETATM   25  C17 UNL     1      18.812   2.548  51.857  1.00  0.00     0.272 C 
HETATM   26  C18 UNL     1      19.882   3.454  51.261  1.00  0.00     0.030 C 
HETATM   27  C19 UNL     1      19.584   3.584  49.782  1.00  0.00     0.003 C 
HETATM   28  C20 UNL     1      19.235   2.253  49.181  1.00  0.00     0.030 C 
HETATM   29  C21 UNL     1      19.573   1.100  50.072  1.00  0.00     0.272 C 
ENDBRANCH  23  24
ENDBRANCH  22  23
ENDBRANCH  21  22
ENDBRANCH   8  21
TORSDOF 7
ENDMDL
