MODEL 1
REMARK VINA RESULT:      -9.1      0.000      0.000
REMARK  4 active torsions:
REMARK  status: ('A' for Active; 'I' for Inactive)
REMARK    1  A    between atoms: C7_7  and  C8_8 
REMARK    2  A    between atoms: C10_10  and  C11_11 
REMARK    3  A    between atoms: N2_16  and  C15_17 
REMARK    4  A    between atoms: C16_19  and  O1_20 
ROOT
HETATM    1  C8  UNL     1      25.371   1.792  52.562  1.00  0.00     0.152 C 
HETATM    2  C9  UNL     1      25.239   2.009  51.086  1.00  0.00     0.093 C 
HETATM    3  C10 UNL     1      26.490   2.855  50.926  1.00  0.00     0.061 C 
HETATM    4  N1  UNL     1      27.315   2.387  51.833  1.00  0.00    -0.174 NA
HETATM    5  N2  UNL     1      26.742   1.339  52.559  1.00  0.00    -0.236 N 
ENDROOT
BRANCH   1   6
HETATM    6  C7  UNL     1      24.518   0.852  53.230  1.00  0.00    -0.027 A 
HETATM    7  C2  UNL     1      23.141   1.114  53.119  1.00  0.00    -0.054 A 
HETATM    8  C1  UNL     1      22.645   2.287  52.362  1.00  0.00     0.049 C 
HETATM    9  C3  UNL     1      22.222   0.254  53.736  1.00  0.00     0.007 A 
HETATM   10  C4  UNL     1      22.610  -0.858  54.458  1.00  0.00     0.001 A 
HETATM   11  C5  UNL     1      23.950  -1.139  54.583  1.00  0.00     0.001 A 
HETATM   12  C6  UNL     1      24.821  -0.275  53.966  1.00  0.00     0.010 A 
ENDBRANCH   1   6
BRANCH   5  13
HETATM   13  C15 UNL     1      27.714   0.329  52.967  1.00  0.00     0.192 A 
HETATM   14  N3  UNL     1      27.546  -0.922  52.699  1.00  0.00    -0.198 NA
HETATM   15  C16 UNL     1      28.467  -1.770  53.109  1.00  0.00     0.171 A 
HETATM   16  C17 UNL     1      29.619  -1.347  53.825  1.00  0.00     0.111 A 
HETATM   17  S1  UNL     1      29.244   0.508  53.866  1.00  0.00    -0.058 SA
BRANCH  15  18
HETATM   18  O1  UNL     1      28.268  -3.137  52.807  1.00  0.00    -0.344 OA
HETATM   19  H12 UNL     1      28.256  -3.435  51.853  1.00  0.00     0.219 HD
ENDBRANCH  15  18
ENDBRANCH   5  13
BRANCH   3  20
HETATM   20  C11 UNL     1      26.652   3.920  49.963  1.00  0.00    -0.031 A 
HETATM   21  C12 UNL     1      27.246   4.625  48.946  1.00  0.00     0.017 A 
HETATM   22  C13 UNL     1      26.800   5.813  48.362  1.00  0.00     0.022 A 
HETATM   23  C14 UNL     1      26.069   5.137  49.465  1.00  0.00     0.017 A 
ENDBRANCH   3  20
TORSDOF 4
ENDMDL
MODEL 2
REMARK VINA RESULT:      -8.9      3.962      7.076
REMARK  4 active torsions:
REMARK  status: ('A' for Active; 'I' for Inactive)
REMARK    1  A    between atoms: C7_7  and  C8_8 
REMARK    2  A    between atoms: C10_10  and  C11_11 
REMARK    3  A    between atoms: N2_16  and  C15_17 
REMARK    4  A    between atoms: C16_19  and  O1_20 
ROOT
HETATM    1  C8  UNL     1      23.015   0.625  53.058  1.00  0.00     0.152 C 
HETATM    2  C9  UNL     1      22.106  -0.268  52.271  1.00  0.00     0.093 C 
HETATM    3  C10 UNL     1      20.812   0.432  52.649  1.00  0.00     0.061 C 
HETATM    4  N1  UNL     1      21.156   1.690  52.794  1.00  0.00    -0.174 NA
HETATM    5  N2  UNL     1      22.519   1.884  52.553  1.00  0.00    -0.236 N 
ENDROOT
BRANCH   1   6
HETATM    6  C7  UNL     1      24.437   0.527  52.894  1.00  0.00    -0.027 A 
HETATM    7  C2  UNL     1      25.098  -0.237  53.872  1.00  0.00    -0.054 A 
HETATM    8  C1  UNL     1      24.347  -0.878  54.976  1.00  0.00     0.049 C 
HETATM    9  C3  UNL     1      26.489  -0.395  53.801  1.00  0.00     0.007 A 
HETATM   10  C4  UNL     1      27.255   0.172  52.802  1.00  0.00     0.001 A 
HETATM   11  C5  UNL     1      26.635   0.925  51.832  1.00  0.00     0.001 A 
HETATM   12  C6  UNL     1      25.271   1.059  51.933  1.00  0.00     0.010 A 
ENDBRANCH   1   6
BRANCH   5  13
HETATM   13  C15 UNL     1      22.814   3.180  51.950  1.00  0.00     0.192 A 
HETATM   14  N3  UNL     1      23.404   4.118  52.612  1.00  0.00    -0.198 NA
HETATM   15  C16 UNL     1      23.628   5.260  51.996  1.00  0.00     0.171 A 
HETATM   16  C17 UNL     1      23.244   5.480  50.646  1.00  0.00     0.111 A 
HETATM   17  S1  UNL     1      22.476   3.783  50.307  1.00  0.00    -0.058 SA
BRANCH  15  18
HETATM   18  O1  UNL     1      24.275   6.277  52.736  1.00  0.00    -0.344 OA
HETATM   19  H12 UNL     1      24.968   6.031  53.412  1.00  0.00     0.219 HD
ENDBRANCH  15  18
ENDBRANCH   5  13
BRANCH   3  20
HETATM   20  C11 UNL     1      19.530  -0.219  52.795  1.00  0.00    -0.031 A 
HETATM   21  C12 UNL     1      18.595  -1.059  53.344  1.00  0.00     0.017 A 
HETATM   22  C13 UNL     1      17.277  -1.256  52.923  1.00  0.00     0.022 A 
HETATM   23  C14 UNL     1      18.205  -0.312  52.246  1.00  0.00     0.017 A 
ENDBRANCH   3  20
TORSDOF 4
ENDMDL
MODEL 3
REMARK VINA RESULT:      -8.8      3.119      5.722
REMARK  4 active torsions:
REMARK  status: ('A' for Active; 'I' for Inactive)
REMARK    1  A    between atoms: C7_7  and  C8_8 
REMARK    2  A    between atoms: C10_10  and  C11_11 
REMARK    3  A    between atoms: N2_16  and  C15_17 
REMARK    4  A    between atoms: C16_19  and  O1_20 
ROOT
HETATM    1  C8  UNL     1      25.133   2.083  52.133  1.00  0.00     0.152 C 
HETATM    2  C9  UNL     1      26.145   1.149  51.546  1.00  0.00     0.093 C 
HETATM    3  C10 UNL     1      26.496   0.442  52.843  1.00  0.00     0.061 C 
HETATM    4  N1  UNL     1      25.380   0.458  53.533  1.00  0.00    -0.174 NA
HETATM    5  N2  UNL     1      24.350   1.092  52.832  1.00  0.00    -0.236 N 
ENDROOT
BRANCH   1   6
HETATM    6  C7  UNL     1      24.307   2.882  51.273  1.00  0.00    -0.027 A 
HETATM    7  C2  UNL     1      23.700   3.989  51.892  1.00  0.00    -0.054 A 
HETATM    8  C1  UNL     1      23.918   4.276  53.329  1.00  0.00     0.049 C 
HETATM    9  C3  UNL     1      22.874   4.834  51.137  1.00  0.00     0.007 A 
HETATM   10  C4  UNL     1      22.625   4.630  49.795  1.00  0.00     0.001 A 
HETATM   11  C5  UNL     1      23.206   3.555  49.164  1.00  0.00     0.001 A 
HETATM   12  C6  UNL     1      24.008   2.748  49.933  1.00  0.00     0.010 A 
ENDBRANCH   1   6
BRANCH   5  13
HETATM   13  C15 UNL     1      23.036   0.516  53.103  1.00  0.00     0.192 A 
HETATM   14  N3  UNL     1      22.871  -0.418  53.978  1.00  0.00    -0.198 NA
HETATM   15  C16 UNL     1      21.654  -0.888  54.157  1.00  0.00     0.171 A 
HETATM   16  C17 UNL     1      20.540  -0.400  53.424  1.00  0.00     0.111 A 
HETATM   17  S1  UNL     1      21.451   0.888  52.377  1.00  0.00    -0.058 SA
BRANCH  15  18
HETATM   18  O1  UNL     1      21.492  -1.911  55.120  1.00  0.00    -0.344 OA
HETATM   19  H12 UNL     1      20.595  -2.061  55.534  1.00  0.00     0.219 HD
ENDBRANCH  15  18
ENDBRANCH   5  13
BRANCH   3  20
HETATM   20  C11 UNL     1      27.797  -0.098  53.167  1.00  0.00    -0.031 A 
HETATM   21  C12 UNL     1      28.755  -1.063  53.346  1.00  0.00     0.017 A 
HETATM   22  C13 UNL     1      30.079  -0.882  53.754  1.00  0.00     0.022 A 
HETATM   23  C14 UNL     1      29.125   0.247  53.595  1.00  0.00     0.017 A 
ENDBRANCH   3  20
TORSDOF 4
ENDMDL
MODEL 4
REMARK VINA RESULT:      -8.7      2.105      3.038
REMARK  4 active torsions:
REMARK  status: ('A' for Active; 'I' for Inactive)
REMARK    1  A    between atoms: C7_7  and  C8_8 
REMARK    2  A    between atoms: C10_10  and  C11_11 
REMARK    3  A    between atoms: N2_16  and  C15_17 
REMARK    4  A    between atoms: C16_19  and  O1_20 
ROOT
HETATM    1  C8  UNL     1      24.021   3.160  50.667  1.00  0.00     0.152 C 
HETATM    2  C9  UNL     1      24.692   3.267  49.334  1.00  0.00     0.093 C 
HETATM    3  C10 UNL     1      26.028   3.765  49.856  1.00  0.00     0.061 C 
HETATM    4  N1  UNL     1      26.148   3.196  51.032  1.00  0.00    -0.174 NA
HETATM    5  N2  UNL     1      25.047   2.389  51.329  1.00  0.00    -0.236 N 
ENDROOT
BRANCH   1   6
HETATM    6  C7  UNL     1      22.741   2.520  50.779  1.00  0.00    -0.027 A 
HETATM    7  C2  UNL     1      21.834   3.151  51.648  1.00  0.00    -0.054 A 
HETATM    8  C1  UNL     1      22.209   4.383  52.381  1.00  0.00     0.049 C 
HETATM    9  C3  UNL     1      20.555   2.606  51.827  1.00  0.00     0.007 A 
HETATM   10  C4  UNL     1      20.135   1.461  51.179  1.00  0.00     0.001 A 
HETATM   11  C5  UNL     1      21.001   0.823  50.323  1.00  0.00     0.001 A 
HETATM   12  C6  UNL     1      22.246   1.385  50.173  1.00  0.00     0.010 A 
ENDBRANCH   1   6
BRANCH   5  13
HETATM   13  C15 UNL     1      25.396   1.215  52.123  1.00  0.00     0.192 A 
HETATM   14  N3  UNL     1      26.593   0.733  52.131  1.00  0.00    -0.198 NA
HETATM   15  C16 UNL     1      26.824  -0.333  52.870  1.00  0.00     0.171 A 
HETATM   16  C17 UNL     1      25.806  -0.952  53.643  1.00  0.00     0.111 A 
HETATM   17  S1  UNL     1      24.381   0.210  53.190  1.00  0.00    -0.058 SA
BRANCH  15  18
HETATM   18  O1  UNL     1      28.141  -0.849  52.867  1.00  0.00    -0.344 OA
HETATM   19  H12 UNL     1      28.784  -0.557  52.161  1.00  0.00     0.219 HD
ENDBRANCH  15  18
ENDBRANCH   5  13
BRANCH   3  20
HETATM   20  C11 UNL     1      26.911   4.666  49.149  1.00  0.00    -0.031 A 
HETATM   21  C12 UNL     1      28.065   5.082  48.536  1.00  0.00     0.017 A 
HETATM   22  C13 UNL     1      28.312   6.320  47.938  1.00  0.00     0.022 A 
HETATM   23  C14 UNL     1      27.013   5.981  48.576  1.00  0.00     0.017 A 
ENDBRANCH   3  20
TORSDOF 4
ENDMDL
MODEL 5
REMARK VINA RESULT:      -8.7      3.843      5.968
REMARK  4 active torsions:
REMARK  status: ('A' for Active; 'I' for Inactive)
REMARK    1  A    between atoms: C7_7  and  C8_8 
REMARK    2  A    between atoms: C10_10  and  C11_11 
REMARK    3  A    between atoms: N2_16  and  C15_17 
REMARK    4  A    between atoms: C16_19  and  O1_20 
ROOT
HETATM    1  C8  UNL     1      23.002   0.380  52.046  1.00  0.00     0.152 C 
HETATM    2  C9  UNL     1      23.873  -0.016  53.197  1.00  0.00     0.093 C 
HETATM    3  C10 UNL     1      25.167   0.541  52.631  1.00  0.00     0.061 C 
HETATM    4  N1  UNL     1      24.790   1.584  51.930  1.00  0.00    -0.174 NA
HETATM    5  N2  UNL     1      23.405   1.765  51.977  1.00  0.00    -0.236 N 
ENDROOT
BRANCH   1   6
HETATM    6  C7  UNL     1      21.576   0.262  52.148  1.00  0.00    -0.027 A 
HETATM    7  C2  UNL     1      20.877   0.423  50.939  1.00  0.00    -0.054 A 
HETATM    8  C1  UNL     1      21.595   0.697  49.672  1.00  0.00     0.049 C 
HETATM    9  C3  UNL     1      19.478   0.324  50.931  1.00  0.00     0.007 A 
HETATM   10  C4  UNL     1      18.742   0.072  52.071  1.00  0.00     0.001 A 
HETATM   11  C5  UNL     1      19.399  -0.091  53.268  1.00  0.00     0.001 A 
HETATM   12  C6  UNL     1      20.769   0.013  53.238  1.00  0.00     0.010 A 
ENDBRANCH   1   6
BRANCH   5  13
HETATM   13  C15 UNL     1      23.010   3.170  51.934  1.00  0.00     0.192 A 
HETATM   14  N3  UNL     1      23.858   4.120  52.143  1.00  0.00    -0.198 NA
HETATM   15  C16 UNL     1      23.420   5.360  52.093  1.00  0.00     0.171 A 
HETATM   16  C17 UNL     1      22.061   5.672  51.817  1.00  0.00     0.111 A 
HETATM   17  S1  UNL     1      21.415   3.902  51.622  1.00  0.00    -0.058 SA
BRANCH  15  18
HETATM   18  O1  UNL     1      24.362   6.389  52.325  1.00  0.00    -0.344 OA
HETATM   19  H12 UNL     1      25.099   6.541  51.668  1.00  0.00     0.219 HD
ENDBRANCH  15  18
ENDBRANCH   5  13
BRANCH   3  20
HETATM   20  C11 UNL     1      26.481  -0.015  52.863  1.00  0.00    -0.031 A 
HETATM   21  C12 UNL     1      27.475  -0.959  52.836  1.00  0.00     0.017 A 
HETATM   22  C13 UNL     1      28.777  -0.837  53.327  1.00  0.00     0.022 A 
HETATM   23  C14 UNL     1      27.780   0.262  53.413  1.00  0.00     0.017 A 
ENDBRANCH   3  20
TORSDOF 4
ENDMDL
MODEL 6
REMARK VINA RESULT:      -8.6      3.008      5.589
REMARK  4 active torsions:
REMARK  status: ('A' for Active; 'I' for Inactive)
REMARK    1  A    between atoms: C7_7  and  C8_8 
REMARK    2  A    between atoms: C10_10  and  C11_11 
REMARK    3  A    between atoms: N2_16  and  C15_17 
REMARK    4  A    between atoms: C16_19  and  O1_20 
ROOT
HETATM    1  C8  UNL     1      24.414   0.996  52.311  1.00  0.00     0.152 C 
HETATM    2  C9  UNL     1      25.383   1.111  53.446  1.00  0.00     0.093 C 
HETATM    3  C10 UNL     1      26.638   0.883  52.623  1.00  0.00     0.061 C 
HETATM    4  N1  UNL     1      26.353   1.398  51.450  1.00  0.00    -0.174 NA
HETATM    5  N2  UNL     1      25.062   1.931  51.421  1.00  0.00    -0.236 N 
ENDROOT
BRANCH   1   6
HETATM    6  C7  UNL     1      23.034   1.338  52.504  1.00  0.00    -0.027 A 
HETATM    7  C2  UNL     1      22.215   0.283  52.941  1.00  0.00    -0.054 A 
HETATM    8  C1  UNL     1      22.771  -1.071  53.171  1.00  0.00     0.049 C 
HETATM    9  C3  UNL     1      20.850   0.514  53.161  1.00  0.00     0.007 A 
HETATM   10  C4  UNL     1      20.261   1.748  52.967  1.00  0.00     0.001 A 
HETATM   11  C5  UNL     1      21.039   2.799  52.541  1.00  0.00     0.001 A 
HETATM   12  C6  UNL     1      22.371   2.536  52.335  1.00  0.00     0.010 A 
ENDBRANCH   1   6
BRANCH   5  13
HETATM   13  C15 UNL     1      24.948   3.106  50.562  1.00  0.00     0.192 A 
HETATM   14  N3  UNL     1      25.690   4.147  50.736  1.00  0.00    -0.198 NA
HETATM   15  C16 UNL     1      25.520   5.169  49.921  1.00  0.00     0.171 A 
HETATM   16  C17 UNL     1      24.558   5.151  48.877  1.00  0.00     0.111 A 
HETATM   17  S1  UNL     1      23.864   3.415  49.181  1.00  0.00    -0.058 SA
BRANCH  15  18
HETATM   18  O1  UNL     1      26.341   6.302  50.125  1.00  0.00    -0.344 OA
HETATM   19  H12 UNL     1      26.729   6.779  49.338  1.00  0.00     0.219 HD
ENDBRANCH  15  18
ENDBRANCH   5  13
BRANCH   3  20
HETATM   20  C11 UNL     1      27.837   0.234  53.103  1.00  0.00    -0.031 A 
HETATM   21  C12 UNL     1      29.055   0.130  53.724  1.00  0.00     0.017 A 
HETATM   22  C13 UNL     1      29.844  -1.014  53.865  1.00  0.00     0.022 A 
HETATM   23  C14 UNL     1      28.532  -1.024  53.166  1.00  0.00     0.017 A 
ENDBRANCH   3  20
TORSDOF 4
ENDMDL
MODEL 7
REMARK VINA RESULT:      -8.5      2.799      4.710
REMARK  4 active torsions:
REMARK  status: ('A' for Active; 'I' for Inactive)
REMARK    1  A    between atoms: C7_7  and  C8_8 
REMARK    2  A    between atoms: C10_10  and  C11_11 
REMARK    3  A    between atoms: N2_16  and  C15_17 
REMARK    4  A    between atoms: C16_19  and  O1_20 
ROOT
HETATM    1  C8  UNL     1      25.968   0.972  52.002  1.00  0.00     0.152 C 
HETATM    2  C9  UNL     1      25.564   2.408  51.871  1.00  0.00     0.093 C 
HETATM    3  C10 UNL     1      24.213   2.147  51.228  1.00  0.00     0.061 C 
HETATM    4  N1  UNL     1      23.824   1.006  51.746  1.00  0.00    -0.174 NA
HETATM    5  N2  UNL     1      24.765   0.501  52.647  1.00  0.00    -0.236 N 
ENDROOT
BRANCH   1   6
HETATM    6  C7  UNL     1      27.134   0.618  52.759  1.00  0.00    -0.027 A 
HETATM    7  C2  UNL     1      27.525  -0.728  52.655  1.00  0.00    -0.054 A 
HETATM    8  C1  UNL     1      26.762  -1.683  51.818  1.00  0.00     0.049 C 
HETATM    9  C3  UNL     1      28.653  -1.175  53.357  1.00  0.00     0.007 A 
HETATM   10  C4  UNL     1      29.413  -0.345  54.156  1.00  0.00     0.001 A 
HETATM   11  C5  UNL     1      29.054   0.978  54.276  1.00  0.00     0.001 A 
HETATM   12  C6  UNL     1      27.943   1.381  53.575  1.00  0.00     0.010 A 
ENDBRANCH   1   6
BRANCH   5  13
HETATM   13  C15 UNL     1      24.160  -0.231  53.755  1.00  0.00     0.192 A 
HETATM   14  N3  UNL     1      22.891  -0.465  53.801  1.00  0.00    -0.198 NA
HETATM   15  C16 UNL     1      22.423  -1.126  54.840  1.00  0.00     0.171 A 
HETATM   16  C17 UNL     1      23.266  -1.580  55.890  1.00  0.00     0.111 A 
HETATM   17  S1  UNL     1      24.911  -0.930  55.214  1.00  0.00    -0.058 SA
BRANCH  15  18
HETATM   18  O1  UNL     1      21.031  -1.374  54.875  1.00  0.00    -0.344 OA
HETATM   19  H12 UNL     1      20.639  -2.073  54.278  1.00  0.00     0.219 HD
ENDBRANCH  15  18
ENDBRANCH   5  13
BRANCH   3  20
HETATM   20  C11 UNL     1      23.571   3.016  50.268  1.00  0.00    -0.031 A 
HETATM   21  C12 UNL     1      22.624   3.882  49.783  1.00  0.00     0.017 A 
HETATM   22  C13 UNL     1      22.581   4.473  48.518  1.00  0.00     0.022 A 
HETATM   23  C14 UNL     1      23.664   3.544  48.934  1.00  0.00     0.017 A 
ENDBRANCH   3  20
TORSDOF 4
ENDMDL
MODEL 8
REMARK VINA RESULT:      -8.5      4.172      5.712
REMARK  4 active torsions:
REMARK  status: ('A' for Active; 'I' for Inactive)
REMARK    1  A    between atoms: C7_7  and  C8_8 
REMARK    2  A    between atoms: C10_10  and  C11_11 
REMARK    3  A    between atoms: N2_16  and  C15_17 
REMARK    4  A    between atoms: C16_19  and  O1_20 
ROOT
HETATM    1  C8  UNL     1      23.479   1.381  51.674  1.00  0.00     0.152 C 
HETATM    2  C9  UNL     1      24.331   2.593  51.889  1.00  0.00     0.093 C 
HETATM    3  C10 UNL     1      24.406   3.009  50.431  1.00  0.00     0.061 C 
HETATM    4  N1  UNL     1      23.256   2.630  49.927  1.00  0.00    -0.174 NA
HETATM    5  N2  UNL     1      22.448   2.018  50.889  1.00  0.00    -0.236 N 
ENDROOT
BRANCH   1   6
HETATM    6  C7  UNL     1      22.919   0.686  52.798  1.00  0.00    -0.027 A 
HETATM    7  C2  UNL     1      23.778  -0.240  53.414  1.00  0.00    -0.054 A 
HETATM    8  C1  UNL     1      25.154  -0.458  52.910  1.00  0.00     0.049 C 
HETATM    9  C3  UNL     1      23.326  -0.970  54.522  1.00  0.00     0.007 A 
HETATM   10  C4  UNL     1      22.057  -0.821  55.047  1.00  0.00     0.001 A 
HETATM   11  C5  UNL     1      21.195   0.078  54.464  1.00  0.00     0.001 A 
HETATM   12  C6  UNL     1      21.672   0.776  53.381  1.00  0.00     0.010 A 
ENDBRANCH   1   6
BRANCH   5  13
HETATM   13  C15 UNL     1      21.025   2.270  50.684  1.00  0.00     0.192 A 
HETATM   14  N3  UNL     1      20.258   1.404  50.112  1.00  0.00    -0.198 NA
HETATM   15  C16 UNL     1      18.986   1.711  49.959  1.00  0.00     0.171 A 
HETATM   16  C17 UNL     1      18.449   2.950  50.402  1.00  0.00     0.111 A 
HETATM   17  S1  UNL     1      20.040   3.694  51.109  1.00  0.00    -0.058 SA
BRANCH  15  18
HETATM   18  O1  UNL     1      18.160   0.752  49.331  1.00  0.00    -0.344 OA
HETATM   19  H12 UNL     1      18.479  -0.190  49.238  1.00  0.00     0.219 HD
ENDBRANCH  15  18
ENDBRANCH   5  13
BRANCH   3  20
HETATM   20  C11 UNL     1      25.533   3.673  49.815  1.00  0.00    -0.031 A 
HETATM   21  C12 UNL     1      26.810   3.809  49.334  1.00  0.00     0.017 A 
HETATM   22  C13 UNL     1      27.380   4.940  48.744  1.00  0.00     0.022 A 
HETATM   23  C14 UNL     1      25.976   4.910  49.230  1.00  0.00     0.017 A 
ENDBRANCH   3  20
TORSDOF 4
ENDMDL
MODEL 9
REMARK VINA RESULT:      -8.2      3.847      6.361
REMARK  4 active torsions:
REMARK  status: ('A' for Active; 'I' for Inactive)
REMARK    1  A    between atoms: C7_7  and  C8_8 
REMARK    2  A    between atoms: C10_10  and  C11_11 
REMARK    3  A    between atoms: N2_16  and  C15_17 
REMARK    4  A    between atoms: C16_19  and  O1_20 
ROOT
HETATM    1  C8  UNL     1      23.525   2.199  50.859  1.00  0.00     0.152 C 
HETATM    2  C9  UNL     1      24.010   1.642  52.161  1.00  0.00     0.093 C 
HETATM    3  C10 UNL     1      25.454   1.446  51.734  1.00  0.00     0.061 C 
HETATM    4  N1  UNL     1      25.673   2.416  50.878  1.00  0.00    -0.174 NA
HETATM    5  N2  UNL     1      24.539   3.215  50.703  1.00  0.00    -0.236 N 
ENDROOT
BRANCH   1   6
HETATM    6  C7  UNL     1      22.209   2.764  50.764  1.00  0.00    -0.027 A 
HETATM    7  C2  UNL     1      21.586   2.614  49.513  1.00  0.00    -0.054 A 
HETATM    8  C1  UNL     1      22.270   1.920  48.397  1.00  0.00     0.049 C 
HETATM    9  C3  UNL     1      20.297   3.130  49.317  1.00  0.00     0.007 A 
HETATM   10  C4  UNL     1      19.598   3.789  50.309  1.00  0.00     0.001 A 
HETATM   11  C5  UNL     1      20.183   3.950  51.543  1.00  0.00     0.001 A 
HETATM   12  C6  UNL     1      21.446   3.432  51.699  1.00  0.00     0.010 A 
ENDBRANCH   1   6
BRANCH   5  13
HETATM   13  C15 UNL     1      24.861   4.617  50.453  1.00  0.00     0.192 A 
HETATM   14  N3  UNL     1      24.302   5.570  51.119  1.00  0.00    -0.198 NA
HETATM   15  C16 UNL     1      24.642   6.809  50.827  1.00  0.00     0.171 A 
HETATM   16  C17 UNL     1      25.593   7.113  49.817  1.00  0.00     0.111 A 
HETATM   17  S1  UNL     1      25.989   5.342  49.278  1.00  0.00    -0.058 SA
BRANCH  15  18
HETATM   18  O1  UNL     1      24.020   7.842  51.566  1.00  0.00    -0.344 OA
HETATM   19  H12 UNL     1      23.194   7.644  52.092  1.00  0.00     0.219 HD
ENDBRANCH  15  18
ENDBRANCH   5  13
BRANCH   3  20
HETATM   20  C11 UNL     1      26.325   0.397  52.213  1.00  0.00    -0.031 A 
HETATM   21  C12 UNL     1      26.759  -0.887  52.423  1.00  0.00     0.017 A 
HETATM   22  C13 UNL     1      27.914  -1.296  53.095  1.00  0.00     0.022 A 
HETATM   23  C14 UNL     1      27.544   0.135  52.929  1.00  0.00     0.017 A 
ENDBRANCH   3  20
TORSDOF 4
ENDMDL
