MODEL 1
REMARK VINA RESULT:      -9.0      0.000      0.000
REMARK  1 active torsions:
REMARK  status: ('A' for Active; 'I' for Inactive)
REMARK    1  A    between atoms: C15_20  and  S1_21 
ROOT
HETATM    1  F1  UNL     1      20.269   0.357  54.845  1.00  0.00    -0.206 F 
HETATM    2  C1  UNL     1      21.457   0.237  54.190  1.00  0.00     0.119 A 
HETATM    3  C2  UNL     1      22.414  -0.494  54.863  1.00  0.00     0.051 A 
HETATM    4  C3  UNL     1      23.652  -0.646  54.230  1.00  0.00    -0.035 A 
HETATM    5  C4  UNL     1      23.822  -0.063  52.994  1.00  0.00     0.046 A 
HETATM    6  C5  UNL     1      22.897   0.671  52.293  1.00  0.00     0.079 A 
HETATM    7  C6  UNL     1      21.694   0.798  52.952  1.00  0.00     0.079 A 
HETATM    8  O1  UNL     1      23.179   1.210  51.063  1.00  0.00    -0.308 OA
HETATM    9  C7  UNL     1      24.105   2.199  50.886  1.00  0.00     0.102 A 
HETATM   10  C8  UNL     1      23.424   3.205  50.203  1.00  0.00     0.039 A 
HETATM   11  C9  UNL     1      23.943   4.440  49.780  1.00  0.00     0.003 A 
HETATM   12  C10 UNL     1      25.284   4.722  50.058  1.00  0.00     0.002 A 
HETATM   13  C11 UNL     1      25.935   3.688  50.746  1.00  0.00     0.032 A 
HETATM   14  C12 UNL     1      25.420   2.466  51.166  1.00  0.00     0.064 A 
HETATM   15  N1  UNL     1      26.478   1.778  51.830  1.00  0.00    -0.362 N 
HETATM   16  C13 UNL     1      27.203   1.858  53.080  1.00  0.00     0.247 C 
HETATM   17  N2  UNL     1      28.596   2.169  52.848  1.00  0.00    -0.256 NA
HETATM   18  C14 UNL     1      29.360   1.632  53.706  1.00  0.00     0.200 C 
HETATM   19  N3  UNL     1      28.559   0.904  54.607  1.00  0.00    -0.362 N 
HETATM   20  C15 UNL     1      27.252   0.644  53.923  1.00  0.00     0.133 C 
HETATM   21  C16 UNL     1      26.166   0.709  54.939  1.00  0.00     0.160 C 
HETATM   22  N4  UNL     1      25.674  -0.457  55.533  1.00  0.00    -0.414 N 
HETATM   23  C17 UNL     1      24.882  -1.358  54.773  1.00  0.00     0.153 C 
HETATM   24  H8  UNL     1      26.540   1.183  50.990  1.00  0.00     0.162 HD
HETATM   25  H11 UNL     1      28.843   0.605  55.587  1.00  0.00     0.162 HD
HETATM   26  H15 UNL     1      26.370  -0.969  56.117  1.00  0.00     0.153 HD
ENDROOT
BRANCH  20  27
HETATM   27  S1  UNL     1      27.494  -0.909  53.087  1.00  0.00    -0.145 SA
HETATM   28  H12 UNL     1      26.321  -1.694  53.135  1.00  0.00     0.104 HD
ENDBRANCH  20  27
TORSDOF 1
ENDMDL
MODEL 2
REMARK VINA RESULT:      -8.9      3.194      6.199
REMARK  1 active torsions:
REMARK  status: ('A' for Active; 'I' for Inactive)
REMARK    1  A    between atoms: C15_20  and  S1_21 
ROOT
HETATM    1  F1  UNL     1      28.827   1.512  54.333  1.00  0.00    -0.206 F 
HETATM    2  C1  UNL     1      27.757   1.434  53.495  1.00  0.00     0.119 A 
HETATM    3  C2  UNL     1      27.758   2.359  52.473  1.00  0.00     0.051 A 
HETATM    4  C3  UNL     1      26.679   2.318  51.584  1.00  0.00    -0.035 A 
HETATM    5  C4  UNL     1      25.705   1.366  51.792  1.00  0.00     0.046 A 
HETATM    6  C5  UNL     1      25.667   0.430  52.797  1.00  0.00     0.079 A 
HETATM    7  C6  UNL     1      26.747   0.506  53.649  1.00  0.00     0.079 A 
HETATM    8  O1  UNL     1      24.640  -0.472  52.909  1.00  0.00    -0.308 OA
HETATM    9  C7  UNL     1      23.359  -0.100  53.202  1.00  0.00     0.102 A 
HETATM   10  C8  UNL     1      23.005  -0.878  54.302  1.00  0.00     0.039 A 
HETATM   11  C9  UNL     1      21.776  -0.870  54.983  1.00  0.00     0.003 A 
HETATM   12  C10 UNL     1      20.778   0.001  54.533  1.00  0.00     0.002 A 
HETATM   13  C11 UNL     1      21.171   0.767  53.426  1.00  0.00     0.032 A 
HETATM   14  C12 UNL     1      22.389   0.760  52.753  1.00  0.00     0.064 A 
HETATM   15  N1  UNL     1      22.290   1.726  51.710  1.00  0.00    -0.362 N 
HETATM   16  C13 UNL     1      22.265   3.167  51.570  1.00  0.00     0.247 C 
HETATM   17  N2  UNL     1      20.994   3.609  51.040  1.00  0.00    -0.256 NA
HETATM   18  C14 UNL     1      21.108   4.639  50.309  1.00  0.00     0.200 C 
HETATM   19  N3  UNL     1      22.469   4.999  50.272  1.00  0.00    -0.362 N 
HETATM   20  C15 UNL     1      23.256   3.784  50.661  1.00  0.00     0.133 C 
HETATM   21  C16 UNL     1      24.438   4.222  51.453  1.00  0.00     0.160 C 
HETATM   22  N4  UNL     1      25.685   4.387  50.840  1.00  0.00    -0.414 N 
HETATM   23  C17 UNL     1      26.417   3.250  50.409  1.00  0.00     0.153 C 
HETATM   24  H8  UNL     1      22.208   0.931  51.060  1.00  0.00     0.162 HD
HETATM   25  H11 UNL     1      22.851   5.957  50.016  1.00  0.00     0.162 HD
HETATM   26  H15 UNL     1      25.715   5.147  50.126  1.00  0.00     0.153 HD
ENDROOT
BRANCH  20  27
HETATM   27  S1  UNL     1      23.568   2.949  49.121  1.00  0.00    -0.145 SA
HETATM   28  H12 UNL     1      23.678   1.555  49.318  1.00  0.00     0.104 HD
ENDBRANCH  20  27
TORSDOF 1
ENDMDL
MODEL 3
REMARK VINA RESULT:      -8.4      2.838      5.127
REMARK  1 active torsions:
REMARK  status: ('A' for Active; 'I' for Inactive)
REMARK    1  A    between atoms: C15_20  and  S1_21 
ROOT
HETATM    1  F1  UNL     1      18.920  -0.497  51.611  1.00  0.00    -0.206 F 
HETATM    2  C1  UNL     1      19.937   0.376  51.854  1.00  0.00     0.119 A 
HETATM    3  C2  UNL     1      19.764   1.629  51.304  1.00  0.00     0.051 A 
HETATM    4  C3  UNL     1      20.781   2.562  51.526  1.00  0.00    -0.035 A 
HETATM    5  C4  UNL     1      21.869   2.167  52.273  1.00  0.00     0.046 A 
HETATM    6  C5  UNL     1      22.079   0.931  52.836  1.00  0.00     0.079 A 
HETATM    7  C6  UNL     1      21.054   0.043  52.591  1.00  0.00     0.079 A 
HETATM    8  O1  UNL     1      23.208   0.646  53.561  1.00  0.00    -0.308 OA
HETATM    9  C7  UNL     1      24.454   0.608  53.003  1.00  0.00     0.102 A 
HETATM   10  C8  UNL     1      24.965  -0.638  53.358  1.00  0.00     0.039 A 
HETATM   11  C9  UNL     1      26.226  -1.161  53.027  1.00  0.00     0.003 A 
HETATM   12  C10 UNL     1      27.086  -0.371  52.257  1.00  0.00     0.002 A 
HETATM   13  C11 UNL     1      26.538   0.875  51.918  1.00  0.00     0.032 A 
HETATM   14  C12 UNL     1      25.288   1.391  52.246  1.00  0.00     0.064 A 
HETATM   15  N1  UNL     1      25.208   2.685  51.654  1.00  0.00    -0.362 N 
HETATM   16  C13 UNL     1      25.058   3.264  50.335  1.00  0.00     0.247 C 
HETATM   17  N2  UNL     1      26.233   4.024  49.971  1.00  0.00    -0.256 NA
HETATM   18  C14 UNL     1      25.955   5.021  49.239  1.00  0.00     0.200 C 
HETATM   19  N3  UNL     1      24.562   5.036  49.033  1.00  0.00    -0.362 N 
HETATM   20  C15 UNL     1      23.947   4.217  50.128  1.00  0.00     0.133 C 
HETATM   21  C16 UNL     1      22.775   3.489  49.570  1.00  0.00     0.160 C 
HETATM   22  N4  UNL     1      21.481   3.998  49.718  1.00  0.00    -0.414 N 
HETATM   23  C17 UNL     1      20.858   3.986  50.994  1.00  0.00     0.153 C 
HETATM   24  H8  UNL     1      25.339   3.064  52.604  1.00  0.00     0.162 HD
HETATM   25  H11 UNL     1      24.057   5.536  48.243  1.00  0.00     0.162 HD
HETATM   26  H15 UNL     1      21.318   4.905  49.229  1.00  0.00     0.153 HD
ENDROOT
BRANCH  20  27
HETATM   27  S1  UNL     1      23.634   5.389  51.431  1.00  0.00    -0.145 SA
HETATM   28  H12 UNL     1      23.094   4.745  52.566  1.00  0.00     0.104 HD
ENDBRANCH  20  27
TORSDOF 1
ENDMDL
MODEL 4
REMARK VINA RESULT:      -8.2      3.331      5.098
REMARK  1 active torsions:
REMARK  status: ('A' for Active; 'I' for Inactive)
REMARK    1  A    between atoms: C15_20  and  S1_21 
ROOT
HETATM    1  F1  UNL     1      23.030  -1.733  55.310  1.00  0.00    -0.206 F 
HETATM    2  C1  UNL     1      23.003  -0.886  54.245  1.00  0.00     0.119 A 
HETATM    3  C2  UNL     1      24.150  -0.139  54.074  1.00  0.00     0.051 A 
HETATM    4  C3  UNL     1      24.171   0.746  52.991  1.00  0.00    -0.035 A 
HETATM    5  C4  UNL     1      23.058   0.804  52.182  1.00  0.00     0.046 A 
HETATM    6  C5  UNL     1      21.899   0.079  52.319  1.00  0.00     0.079 A 
HETATM    7  C6  UNL     1      21.920  -0.778  53.397  1.00  0.00     0.079 A 
HETATM    8  O1  UNL     1      20.847   0.222  51.450  1.00  0.00    -0.308 OA
HETATM    9  C7  UNL     1      20.120   1.375  51.355  1.00  0.00     0.102 A 
HETATM   10  C8  UNL     1      18.796   0.975  51.523  1.00  0.00     0.039 A 
HETATM   11  C9  UNL     1      17.656   1.795  51.505  1.00  0.00     0.003 A 
HETATM   12  C10 UNL     1      17.833   3.167  51.299  1.00  0.00     0.002 A 
HETATM   13  C11 UNL     1      19.178   3.532  51.135  1.00  0.00     0.032 A 
HETATM   14  C12 UNL     1      20.307   2.718  51.154  1.00  0.00     0.064 A 
HETATM   15  N1  UNL     1      21.432   3.569  50.953  1.00  0.00    -0.362 N 
HETATM   16  C13 UNL     1      22.183   4.562  51.693  1.00  0.00     0.247 C 
HETATM   17  N2  UNL     1      22.071   5.862  51.068  1.00  0.00    -0.256 NA
HETATM   18  C14 UNL     1      23.122   6.557  51.209  1.00  0.00     0.200 C 
HETATM   19  N3  UNL     1      24.051   5.798  51.946  1.00  0.00    -0.362 N 
HETATM   20  C15 UNL     1      23.642   4.361  51.822  1.00  0.00     0.133 C 
HETATM   21  C16 UNL     1      23.929   3.677  53.112  1.00  0.00     0.160 C 
HETATM   22  N4  UNL     1      25.110   2.949  53.286  1.00  0.00    -0.414 N 
HETATM   23  C17 UNL     1      25.284   1.711  52.612  1.00  0.00     0.153 C 
HETATM   24  H8  UNL     1      21.477   3.187  49.997  1.00  0.00     0.162 HD
HETATM   25  H11 UNL     1      24.881   6.186  52.486  1.00  0.00     0.162 HD
HETATM   26  H15 UNL     1      25.980   3.524  53.246  1.00  0.00     0.153 HD
ENDROOT
BRANCH  20  27
HETATM   27  S1  UNL     1      24.508   3.780  50.380  1.00  0.00    -0.145 SA
HETATM   28  H12 UNL     1      25.600   2.963  50.745  1.00  0.00     0.104 HD
ENDBRANCH  20  27
TORSDOF 1
ENDMDL
MODEL 5
REMARK VINA RESULT:      -8.2      3.400      6.383
REMARK  1 active torsions:
REMARK  status: ('A' for Active; 'I' for Inactive)
REMARK    1  A    between atoms: C15_20  and  S1_21 
ROOT
HETATM    1  F1  UNL     1      26.388   6.313  49.298  1.00  0.00    -0.206 F 
HETATM    2  C1  UNL     1      25.813   5.109  49.566  1.00  0.00     0.119 A 
HETATM    3  C2  UNL     1      24.461   5.045  49.302  1.00  0.00     0.051 A 
HETATM    4  C3  UNL     1      23.824   3.828  49.560  1.00  0.00    -0.035 A 
HETATM    5  C4  UNL     1      24.586   2.791  50.052  1.00  0.00     0.046 A 
HETATM    6  C5  UNL     1      25.931   2.815  50.329  1.00  0.00     0.079 A 
HETATM    7  C6  UNL     1      26.518   4.032  50.062  1.00  0.00     0.079 A 
HETATM    8  O1  UNL     1      26.590   1.717  50.823  1.00  0.00    -0.308 OA
HETATM    9  C7  UNL     1      26.340   1.202  52.063  1.00  0.00     0.102 A 
HETATM   10  C8  UNL     1      27.586   1.145  52.683  1.00  0.00     0.039 A 
HETATM   11  C9  UNL     1      27.866   0.682  53.979  1.00  0.00     0.003 A 
HETATM   12  C10 UNL     1      26.800   0.221  54.759  1.00  0.00     0.002 A 
HETATM   13  C11 UNL     1      25.562   0.295  54.103  1.00  0.00     0.032 A 
HETATM   14  C12 UNL     1      25.287   0.755  52.819  1.00  0.00     0.064 A 
HETATM   15  N1  UNL     1      23.879   0.635  52.631  1.00  0.00    -0.362 N 
HETATM   16  C13 UNL     1      22.668   1.287  53.083  1.00  0.00     0.247 C 
HETATM   17  N2  UNL     1      21.856   0.379  53.863  1.00  0.00    -0.256 NA
HETATM   18  C14 UNL     1      20.615   0.601  53.724  1.00  0.00     0.200 C 
HETATM   19  N3  UNL     1      20.463   1.683  52.836  1.00  0.00    -0.362 N 
HETATM   20  C15 UNL     1      21.735   1.791  52.052  1.00  0.00     0.133 C 
HETATM   21  C16 UNL     1      22.014   3.232  51.803  1.00  0.00     0.160 C 
HETATM   22  N4  UNL     1      21.645   3.832  50.595  1.00  0.00    -0.414 N 
HETATM   23  C17 UNL     1      22.344   3.510  49.403  1.00  0.00     0.153 C 
HETATM   24  H8  UNL     1      24.087  -0.175  52.029  1.00  0.00     0.162 HD
HETATM   25  H11 UNL     1      19.600   2.299  52.750  1.00  0.00     0.162 HD
HETATM   26  H15 UNL     1      20.615   3.866  50.430  1.00  0.00     0.153 HD
ENDROOT
BRANCH  20  27
HETATM   27  S1  UNL     1      21.467   0.755  50.630  1.00  0.00    -0.145 SA
HETATM   28  H12 UNL     1      22.204  -0.445  50.737  1.00  0.00     0.104 HD
ENDBRANCH  20  27
TORSDOF 1
ENDMDL
MODEL 6
REMARK VINA RESULT:      -7.9      2.229      4.919
REMARK  1 active torsions:
REMARK  status: ('A' for Active; 'I' for Inactive)
REMARK    1  A    between atoms: C15_20  and  S1_21 
ROOT
HETATM    1  F1  UNL     1      22.166   2.626  47.731  1.00  0.00    -0.206 F 
HETATM    2  C1  UNL     1      22.639   2.575  49.006  1.00  0.00     0.119 A 
HETATM    3  C2  UNL     1      23.956   2.956  49.148  1.00  0.00     0.051 A 
HETATM    4  C3  UNL     1      24.489   2.921  50.440  1.00  0.00    -0.035 A 
HETATM    5  C4  UNL     1      23.665   2.515  51.468  1.00  0.00     0.046 A 
HETATM    6  C5  UNL     1      22.351   2.129  51.368  1.00  0.00     0.079 A 
HETATM    7  C6  UNL     1      21.868   2.176  50.079  1.00  0.00     0.079 A 
HETATM    8  O1  UNL     1      21.624   1.738  52.465  1.00  0.00    -0.308 OA
HETATM    9  C7  UNL     1      21.908   0.606  53.174  1.00  0.00     0.102 A 
HETATM   10  C8  UNL     1      20.708  -0.100  53.212  1.00  0.00     0.039 A 
HETATM   11  C9  UNL     1      20.475  -1.339  53.833  1.00  0.00     0.003 A 
HETATM   12  C10 UNL     1      21.543  -1.958  54.492  1.00  0.00     0.002 A 
HETATM   13  C11 UNL     1      22.733  -1.218  54.431  1.00  0.00     0.032 A 
HETATM   14  C12 UNL     1      22.963   0.008  53.815  1.00  0.00     0.064 A 
HETATM   15  N1  UNL     1      24.336   0.326  54.028  1.00  0.00    -0.362 N 
HETATM   16  C13 UNL     1      25.633  -0.111  53.555  1.00  0.00     0.247 C 
HETATM   17  N2  UNL     1      26.405  -0.689  54.633  1.00  0.00    -0.256 NA
HETATM   18  C14 UNL     1      27.648  -0.480  54.502  1.00  0.00     0.200 C 
HETATM   19  N3  UNL     1      27.844   0.260  53.320  1.00  0.00    -0.362 N 
HETATM   20  C15 UNL     1      26.536   0.914  52.989  1.00  0.00     0.133 C 
HETATM   21  C16 UNL     1      26.382   0.938  51.509  1.00  0.00     0.160 C 
HETATM   22  N4  UNL     1      26.724   2.077  50.774  1.00  0.00    -0.414 N 
HETATM   23  C17 UNL     1      25.916   3.242  50.859  1.00  0.00     0.153 C 
HETATM   24  H8  UNL     1      24.009   1.015  54.721  1.00  0.00     0.162 HD
HETATM   25  H11 UNL     1      28.754   0.330  52.775  1.00  0.00     0.162 HD
HETATM   26  H15 UNL     1      27.738   2.321  50.806  1.00  0.00     0.153 HD
ENDROOT
BRANCH  20  27
HETATM   27  S1  UNL     1      26.604   2.482  53.828  1.00  0.00    -0.145 SA
HETATM   28  H12 UNL     1      27.907   2.740  54.307  1.00  0.00     0.104 HD
ENDBRANCH  20  27
TORSDOF 1
ENDMDL
MODEL 7
REMARK VINA RESULT:      -7.9      3.880      5.848
REMARK  1 active torsions:
REMARK  status: ('A' for Active; 'I' for Inactive)
REMARK    1  A    between atoms: C15_20  and  S1_21 
ROOT
HETATM    1  F1  UNL     1      21.922  -2.123  54.459  1.00  0.00    -0.206 F 
HETATM    2  C1  UNL     1      21.789  -0.917  53.842  1.00  0.00     0.119 A 
HETATM    3  C2  UNL     1      20.536  -0.674  53.319  1.00  0.00     0.051 A 
HETATM    4  C3  UNL     1      20.348   0.554  52.676  1.00  0.00    -0.035 A 
HETATM    5  C4  UNL     1      21.416   1.422  52.615  1.00  0.00     0.046 A 
HETATM    6  C5  UNL     1      22.676   1.217  53.122  1.00  0.00     0.079 A 
HETATM    7  C6  UNL     1      22.818  -0.003  53.745  1.00  0.00     0.079 A 
HETATM    8  O1  UNL     1      23.670   2.156  52.999  1.00  0.00    -0.308 OA
HETATM    9  C7  UNL     1      24.207   2.509  51.794  1.00  0.00     0.102 A 
HETATM   10  C8  UNL     1      25.581   2.344  51.955  1.00  0.00     0.039 A 
HETATM   11  C9  UNL     1      26.579   2.581  50.996  1.00  0.00     0.003 A 
HETATM   12  C10 UNL     1      26.186   3.033  49.732  1.00  0.00     0.002 A 
HETATM   13  C11 UNL     1      24.798   3.186  49.607  1.00  0.00     0.032 A 
HETATM   14  C12 UNL     1      23.809   2.949  50.557  1.00  0.00     0.064 A 
HETATM   15  N1  UNL     1      22.561   3.242  49.936  1.00  0.00    -0.362 N 
HETATM   16  C13 UNL     1      21.686   2.662  48.938  1.00  0.00     0.247 C 
HETATM   17  N2  UNL     1      21.579   3.527  47.784  1.00  0.00    -0.256 NA
HETATM   18  C14 UNL     1      20.437   3.460  47.235  1.00  0.00     0.200 C 
HETATM   19  N3  UNL     1      19.658   2.541  47.963  1.00  0.00    -0.362 N 
HETATM   20  C15 UNL     1      20.279   2.414  49.321  1.00  0.00     0.133 C 
HETATM   21  C16 UNL     1      20.138   1.003  49.775  1.00  0.00     0.160 C 
HETATM   22  N4  UNL     1      19.089   0.627  50.619  1.00  0.00    -0.414 N 
HETATM   23  C17 UNL     1      19.089   1.045  51.976  1.00  0.00     0.153 C 
HETATM   24  H8  UNL     1      22.549   4.105  50.500  1.00  0.00     0.162 HD
HETATM   25  H11 UNL     1      18.793   2.037  47.603  1.00  0.00     0.162 HD
HETATM   26  H15 UNL     1      18.140   0.726  50.196  1.00  0.00     0.153 HD
ENDROOT
BRANCH  20  27
HETATM   27  S1  UNL     1      19.474   3.668  50.293  1.00  0.00    -0.145 SA
HETATM   28  H12 UNL     1      18.078   3.647  50.083  1.00  0.00     0.104 HD
ENDBRANCH  20  27
TORSDOF 1
ENDMDL
MODEL 8
REMARK VINA RESULT:      -7.8      9.191     12.085
REMARK  1 active torsions:
REMARK  status: ('A' for Active; 'I' for Inactive)
REMARK    1  A    between atoms: C15_20  and  S1_21 
ROOT
HETATM    1  F1  UNL     1      31.305  12.576  45.589  1.00  0.00    -0.206 F 
HETATM    2  C1  UNL     1      31.657  11.495  46.337  1.00  0.00     0.119 A 
HETATM    3  C2  UNL     1      32.965  11.087  46.180  1.00  0.00     0.051 A 
HETATM    4  C3  UNL     1      33.377   9.981  46.929  1.00  0.00    -0.035 A 
HETATM    5  C4  UNL     1      32.455   9.386  47.762  1.00  0.00     0.046 A 
HETATM    6  C5  UNL     1      31.146   9.760  47.946  1.00  0.00     0.079 A 
HETATM    7  C6  UNL     1      30.783  10.852  47.189  1.00  0.00     0.079 A 
HETATM    8  O1  UNL     1      30.313   9.088  48.805  1.00  0.00    -0.308 OA
HETATM    9  C7  UNL     1      29.919   7.797  48.592  1.00  0.00     0.102 A 
HETATM   10  C8  UNL     1      28.528   7.835  48.658  1.00  0.00     0.039 A 
HETATM   11  C9  UNL     1      27.645   6.753  48.506  1.00  0.00     0.003 A 
HETATM   12  C10 UNL     1      28.188   5.487  48.262  1.00  0.00     0.002 A 
HETATM   13  C11 UNL     1      29.589   5.489  48.202  1.00  0.00     0.032 A 
HETATM   14  C12 UNL     1      30.463   6.562  48.351  1.00  0.00     0.064 A 
HETATM   15  N1  UNL     1      31.781   6.045  48.191  1.00  0.00    -0.362 N 
HETATM   16  C13 UNL     1      32.628   5.553  47.125  1.00  0.00     0.247 C 
HETATM   17  N2  UNL     1      32.943   4.155  47.322  1.00  0.00    -0.256 NA
HETATM   18  C14 UNL     1      34.097   3.855  46.892  1.00  0.00     0.200 C 
HETATM   19  N3  UNL     1      34.680   5.020  46.359  1.00  0.00    -0.362 N 
HETATM   20  C15 UNL     1      33.953   6.188  46.954  1.00  0.00     0.133 C 
HETATM   21  C16 UNL     1      33.853   7.256  45.923  1.00  0.00     0.160 C 
HETATM   22  N4  UNL     1      34.774   8.308  45.894  1.00  0.00    -0.414 N 
HETATM   23  C17 UNL     1      34.740   9.306  46.904  1.00  0.00     0.153 C 
HETATM   24  H8  UNL     1      31.881   6.142  49.213  1.00  0.00     0.162 HD
HETATM   25  H11 UNL     1      35.484   5.050  45.664  1.00  0.00     0.162 HD
HETATM   26  H15 UNL     1      35.754   8.016  45.687  1.00  0.00     0.153 HD
ENDROOT
BRANCH  20  27
HETATM   27  S1  UNL     1      34.864   6.566  48.435  1.00  0.00    -0.145 SA
HETATM   28  H12 UNL     1      34.144   7.465  49.252  1.00  0.00     0.104 HD
ENDBRANCH  20  27
TORSDOF 1
ENDMDL
MODEL 9
REMARK VINA RESULT:      -7.6      3.562      6.112
REMARK  1 active torsions:
REMARK  status: ('A' for Active; 'I' for Inactive)
REMARK    1  A    between atoms: C15_20  and  S1_21 
ROOT
HETATM    1  F1  UNL     1      23.104   7.712  51.063  1.00  0.00    -0.206 F 
HETATM    2  C1  UNL     1      22.973   6.368  50.893  1.00  0.00     0.119 A 
HETATM    3  C2  UNL     1      21.673   5.909  50.907  1.00  0.00     0.051 A 
HETATM    4  C3  UNL     1      21.486   4.534  50.735  1.00  0.00    -0.035 A 
HETATM    5  C4  UNL     1      22.604   3.747  50.563  1.00  0.00     0.046 A 
HETATM    6  C5  UNL     1      23.912   4.164  50.544  1.00  0.00     0.079 A 
HETATM    7  C6  UNL     1      24.050   5.523  50.718  1.00  0.00     0.079 A 
HETATM    8  O1  UNL     1      24.952   3.285  50.368  1.00  0.00    -0.308 OA
HETATM    9  C7  UNL     1      25.267   2.323  51.284  1.00  0.00     0.102 A 
HETATM   10  C8  UNL     1      26.621   2.516  51.551  1.00  0.00     0.039 A 
HETATM   11  C9  UNL     1      27.424   1.773  52.432  1.00  0.00     0.003 A 
HETATM   12  C10 UNL     1      26.832   0.717  53.133  1.00  0.00     0.002 A 
HETATM   13  C11 UNL     1      25.470   0.554  52.839  1.00  0.00     0.032 A 
HETATM   14  C12 UNL     1      24.675   1.292  51.968  1.00  0.00     0.064 A 
HETATM   15  N1  UNL     1      23.364   0.738  52.036  1.00  0.00    -0.362 N 
HETATM   16  C13 UNL     1      22.251   0.705  52.961  1.00  0.00     0.247 C 
HETATM   17  N2  UNL     1      22.002  -0.645  53.417  1.00  0.00    -0.256 NA
HETATM   18  C14 UNL     1      20.772  -0.859  53.642  1.00  0.00     0.200 C 
HETATM   19  N3  UNL     1      20.065   0.326  53.362  1.00  0.00    -0.362 N 
HETATM   20  C15 UNL     1      20.933   1.154  52.463  1.00  0.00     0.133 C 
HETATM   21  C16 UNL     1      20.741   2.588  52.813  1.00  0.00     0.160 C 
HETATM   22  N4  UNL     1      19.851   3.386  52.088  1.00  0.00    -0.414 N 
HETATM   23  C17 UNL     1      20.169   3.772  50.759  1.00  0.00     0.153 C 
HETATM   24  H8  UNL     1      23.556   0.319  51.114  1.00  0.00     0.162 HD
HETATM   25  H11 UNL     1      19.098   0.573  53.729  1.00  0.00     0.162 HD
HETATM   26  H15 UNL     1      18.852   3.096  52.166  1.00  0.00     0.153 HD
ENDROOT
BRANCH  20  27
HETATM   27  S1  UNL     1      20.475   0.647  50.820  1.00  0.00    -0.145 SA
HETATM   28  H12 UNL     1      19.743  -0.560  50.852  1.00  0.00     0.104 HD
ENDBRANCH  20  27
TORSDOF 1
ENDMDL
