MODEL 1
REMARK VINA RESULT:      -8.6      0.000      0.000
REMARK  1 active torsions:
REMARK  status: ('A' for Active; 'I' for Inactive)
REMARK    1  A    between atoms: C3_4  and  N1_5 
ROOT
HETATM    1  N1  UNL     1      25.787   0.778  53.328  1.00  0.00    -0.348 N 
HETATM    2  C4  UNL     1      24.828   1.680  52.729  1.00  0.00     0.208 C 
HETATM    3  N2  UNL     1      24.518   1.600  51.452  1.00  0.00    -0.238 NA
HETATM    4  C5  UNL     1      23.561   2.529  50.943  1.00  0.00     0.230 C 
HETATM    5  N3  UNL     1      22.914   1.423  50.926  1.00  0.00    -0.257 NA
HETATM    6  C6  UNL     1      21.561   1.222  50.494  1.00  0.00     0.324 C 
HETATM    7  O1  UNL     1      20.866   0.693  51.602  1.00  0.00    -0.342 OA
HETATM    8  C7  UNL     1      19.580   0.271  51.487  1.00  0.00     0.133 C 
HETATM    9  C8  UNL     1      19.603   0.228  52.833  1.00  0.00     0.001 C 
HETATM   10  C9  UNL     1      20.671   0.546  53.788  1.00  0.00     0.056 C 
HETATM   11  C10 UNL     1      21.025  -0.629  54.595  1.00  0.00    -0.025 C 
HETATM   12  C11 UNL     1      22.226  -1.241  54.647  1.00  0.00    -0.011 C 
HETATM   13  C12 UNL     1      23.489  -0.924  53.931  1.00  0.00     0.142 C 
HETATM   14  N4  UNL     1      24.517  -0.605  54.864  1.00  0.00    -0.403 N 
HETATM   15  C13 UNL     1      25.783  -0.306  54.286  1.00  0.00     0.243 C 
HETATM   16  H15 UNL     1      24.226  -0.027  55.665  1.00  0.00     0.155 HD
ENDROOT
BRANCH   1  17
HETATM   17  C3  UNL     1      27.055   1.140  52.735  1.00  0.00     0.137 A 
HETATM   18  C2  UNL     1      27.828   2.063  53.605  1.00  0.00     0.046 A 
HETATM   19  C1  UNL     1      28.951   1.496  54.015  1.00  0.00     0.136 A 
HETATM   20  F1  UNL     1      29.700   2.277  54.807  1.00  0.00    -0.205 F 
HETATM   21  C15 UNL     1      29.003   0.141  53.441  1.00  0.00     0.070 A 
HETATM   22  C14 UNL     1      27.904  -0.061  52.701  1.00  0.00     0.029 A 
HETATM   23 CL1  UNL     1      30.460  -0.751  53.904  1.00  0.00    -0.081 Cl
ENDBRANCH   1  17
TORSDOF 1
ENDMDL
MODEL 2
REMARK VINA RESULT:      -8.1      2.568      4.427
REMARK  1 active torsions:
REMARK  status: ('A' for Active; 'I' for Inactive)
REMARK    1  A    between atoms: C3_4  and  N1_5 
ROOT
HETATM    1  N1  UNL     1      25.780   1.329  52.105  1.00  0.00    -0.348 N 
HETATM    2  C4  UNL     1      24.361   1.109  51.934  1.00  0.00     0.208 C 
HETATM    3  N2  UNL     1      23.494   1.499  52.845  1.00  0.00    -0.238 NA
HETATM    4  C5  UNL     1      22.111   1.243  52.595  1.00  0.00     0.230 C 
HETATM    5  N3  UNL     1      22.188   2.516  52.466  1.00  0.00    -0.257 NA
HETATM    6  C6  UNL     1      21.119   3.416  52.145  1.00  0.00     0.324 C 
HETATM    7  O1  UNL     1      21.495   4.070  50.953  1.00  0.00    -0.342 OA
HETATM    8  C7  UNL     1      20.750   5.085  50.445  1.00  0.00     0.133 C 
HETATM    9  C8  UNL     1      21.517   4.935  49.348  1.00  0.00     0.001 C 
HETATM   10  C9  UNL     1      22.617   4.007  49.062  1.00  0.00     0.056 C 
HETATM   11  C10 UNL     1      23.864   4.734  48.789  1.00  0.00    -0.025 C 
HETATM   12  C11 UNL     1      25.014   4.656  49.491  1.00  0.00    -0.011 C 
HETATM   13  C12 UNL     1      25.343   3.851  50.695  1.00  0.00     0.142 C 
HETATM   14  N4  UNL     1      26.404   2.945  50.407  1.00  0.00    -0.403 N 
HETATM   15  C13 UNL     1      26.818   2.135  51.502  1.00  0.00     0.243 C 
HETATM   16  H15 UNL     1      26.359   2.488  49.485  1.00  0.00     0.155 HD
ENDROOT
BRANCH   1  17
HETATM   17  C3  UNL     1      26.158   0.466  53.202  1.00  0.00     0.137 A 
HETATM   18  C2  UNL     1      26.136  -0.966  52.812  1.00  0.00     0.046 A 
HETATM   19  C1  UNL     1      27.350  -1.490  52.871  1.00  0.00     0.136 A 
HETATM   20  F1  UNL     1      27.403  -2.786  52.530  1.00  0.00    -0.205 F 
HETATM   21  C15 UNL     1      28.274  -0.430  53.309  1.00  0.00     0.070 A 
HETATM   22  C14 UNL     1      27.580   0.700  53.499  1.00  0.00     0.029 A 
HETATM   23 CL1  UNL     1      29.950  -0.983  53.437  1.00  0.00    -0.081 Cl
ENDBRANCH   1  17
TORSDOF 1
ENDMDL
MODEL 3
REMARK VINA RESULT:      -7.9      1.308      1.428
REMARK  1 active torsions:
REMARK  status: ('A' for Active; 'I' for Inactive)
REMARK    1  A    between atoms: C3_4  and  N1_5 
ROOT
HETATM    1  N1  UNL     1      25.224   0.886  52.506  1.00  0.00    -0.348 N 
HETATM    2  C4  UNL     1      24.561   2.081  52.030  1.00  0.00     0.208 C 
HETATM    3  N2  UNL     1      24.313   2.261  50.750  1.00  0.00    -0.238 NA
HETATM    4  C5  UNL     1      23.654   3.469  50.367  1.00  0.00     0.230 C 
HETATM    5  N3  UNL     1      22.749   2.582  50.174  1.00  0.00    -0.257 NA
HETATM    6  C6  UNL     1      21.415   2.802  49.693  1.00  0.00     0.324 C 
HETATM    7  O1  UNL     1      20.548   2.324  50.697  1.00  0.00    -0.342 OA
HETATM    8  C7  UNL     1      19.205   2.271  50.497  1.00  0.00     0.133 C 
HETATM    9  C8  UNL     1      19.141   2.037  51.822  1.00  0.00     0.001 C 
HETATM   10  C9  UNL     1      20.200   1.931  52.833  1.00  0.00     0.056 C 
HETATM   11  C10 UNL     1      20.197   0.605  53.464  1.00  0.00    -0.025 C 
HETATM   12  C11 UNL     1      21.198  -0.300  53.446  1.00  0.00    -0.011 C 
HETATM   13  C12 UNL     1      22.537  -0.226  52.808  1.00  0.00     0.142 C 
HETATM   14  N4  UNL     1      23.560  -0.318  53.797  1.00  0.00    -0.403 N 
HETATM   15  C13 UNL     1      24.890  -0.281  53.293  1.00  0.00     0.243 C 
HETATM   16  H15 UNL     1      23.380   0.200  54.669  1.00  0.00     0.155 HD
ENDROOT
BRANCH   1  17
HETATM   17  C3  UNL     1      26.573   0.984  51.997  1.00  0.00     0.137 A 
HETATM   18  C2  UNL     1      27.305   2.133  52.588  1.00  0.00     0.046 A 
HETATM   19  C1  UNL     1      28.331   1.717  53.313  1.00  0.00     0.136 A 
HETATM   20  F1  UNL     1      29.038   2.706  53.877  1.00  0.00    -0.205 F 
HETATM   21  C15 UNL     1      28.353   0.246  53.253  1.00  0.00     0.070 A 
HETATM   22  C14 UNL     1      27.334  -0.174  52.491  1.00  0.00     0.029 A 
HETATM   23 CL1  UNL     1      29.682  -0.464  54.181  1.00  0.00    -0.081 Cl
ENDBRANCH   1  17
TORSDOF 1
ENDMDL
MODEL 4
REMARK VINA RESULT:      -7.7      1.701      3.456
REMARK  1 active torsions:
REMARK  status: ('A' for Active; 'I' for Inactive)
REMARK    1  A    between atoms: C3_4  and  N1_5 
ROOT
HETATM    1  N1  UNL     1      24.726   0.487  52.913  1.00  0.00    -0.348 N 
HETATM    2  C4  UNL     1      23.682  -0.515  52.951  1.00  0.00     0.208 C 
HETATM    3  N2  UNL     1      22.843  -0.588  53.963  1.00  0.00    -0.238 NA
HETATM    4  C5  UNL     1      21.842  -1.606  53.920  1.00  0.00     0.230 C 
HETATM    5  N3  UNL     1      21.160  -0.536  53.740  1.00  0.00    -0.257 NA
HETATM    6  C6  UNL     1      19.743  -0.440  53.545  1.00  0.00     0.324 C 
HETATM    7  O1  UNL     1      19.556   0.179  52.292  1.00  0.00    -0.342 OA
HETATM    8  C7  UNL     1      18.317   0.533  51.862  1.00  0.00     0.133 C 
HETATM    9  C8  UNL     1      18.920   0.725  50.672  1.00  0.00     0.001 C 
HETATM   10  C9  UNL     1      20.319   0.558  50.264  1.00  0.00     0.056 C 
HETATM   11  C10 UNL     1      20.887   1.828  49.793  1.00  0.00    -0.025 C 
HETATM   12  C11 UNL     1      21.935   2.491  50.327  1.00  0.00    -0.011 C 
HETATM   13  C12 UNL     1      22.782   2.149  51.498  1.00  0.00     0.142 C 
HETATM   14  N4  UNL     1      24.137   1.977  51.091  1.00  0.00    -0.403 N 
HETATM   15  C13 UNL     1      25.046   1.668  52.142  1.00  0.00     0.243 C 
HETATM   16  H15 UNL     1      24.273   1.479  50.200  1.00  0.00     0.155 HD
ENDROOT
BRANCH   1  17
HETATM   17  C3  UNL     1      25.636   0.114  53.972  1.00  0.00     0.137 A 
HETATM   18  C2  UNL     1      26.651  -0.865  53.509  1.00  0.00     0.046 A 
HETATM   19  C1  UNL     1      27.868  -0.348  53.567  1.00  0.00     0.136 A 
HETATM   20  F1  UNL     1      28.836  -1.181  53.162  1.00  0.00    -0.205 F 
HETATM   21  C15 UNL     1      27.744   1.028  54.078  1.00  0.00     0.070 A 
HETATM   22  C14 UNL     1      26.451   1.291  54.311  1.00  0.00     0.029 A 
HETATM   23 CL1  UNL     1      29.301   1.858  54.213  1.00  0.00    -0.081 Cl
ENDBRANCH   1  17
TORSDOF 1
ENDMDL
MODEL 5
REMARK VINA RESULT:      -7.4      4.538      7.190
REMARK  1 active torsions:
REMARK  status: ('A' for Active; 'I' for Inactive)
REMARK    1  A    between atoms: C3_4  and  N1_5 
ROOT
HETATM    1  N1  UNL     1      22.008   1.890  52.141  1.00  0.00    -0.348 N 
HETATM    2  C4  UNL     1      21.788   3.014  51.257  1.00  0.00     0.208 C 
HETATM    3  N2  UNL     1      21.610   4.230  51.729  1.00  0.00    -0.238 NA
HETATM    4  C5  UNL     1      21.400   5.282  50.786  1.00  0.00     0.230 C 
HETATM    5  N3  UNL     1      22.574   5.536  51.234  1.00  0.00    -0.257 NA
HETATM    6  C6  UNL     1      23.427   6.623  50.847  1.00  0.00     0.324 C 
HETATM    7  O1  UNL     1      24.609   6.039  50.347  1.00  0.00    -0.342 OA
HETATM    8  C7  UNL     1      25.680   6.803  50.009  1.00  0.00     0.133 C 
HETATM    9  C8  UNL     1      26.150   5.676  49.440  1.00  0.00     0.001 C 
HETATM   10  C9  UNL     1      25.573   4.330  49.352  1.00  0.00     0.056 C 
HETATM   11  C10 UNL     1      26.438   3.341  50.010  1.00  0.00    -0.025 C 
HETATM   12  C11 UNL     1      26.117   2.565  51.066  1.00  0.00    -0.011 C 
HETATM   13  C12 UNL     1      24.854   2.487  51.844  1.00  0.00     0.142 C 
HETATM   14  N4  UNL     1      24.294   1.180  51.744  1.00  0.00    -0.403 N 
HETATM   15  C13 UNL     1      23.087   0.985  52.473  1.00  0.00     0.243 C 
HETATM   16  H15 UNL     1      24.347   0.745  50.812  1.00  0.00     0.155 HD
ENDROOT
BRANCH   1  17
HETATM   17  C3  UNL     1      20.752   1.712  52.834  1.00  0.00     0.137 A 
HETATM   18  C2  UNL     1      19.676   1.254  51.918  1.00  0.00     0.046 A 
HETATM   19  C1  UNL     1      19.254   0.045  52.252  1.00  0.00     0.136 A 
HETATM   20  F1  UNL     1      18.280  -0.431  51.464  1.00  0.00    -0.205 F 
HETATM   21  C15 UNL     1      20.030  -0.390  53.426  1.00  0.00     0.070 A 
HETATM   22  C14 UNL     1      20.895   0.577  53.759  1.00  0.00     0.029 A 
HETATM   23 CL1  UNL     1      19.576  -2.003  53.995  1.00  0.00    -0.081 Cl
ENDBRANCH   1  17
TORSDOF 1
ENDMDL
MODEL 6
REMARK VINA RESULT:      -7.4      4.483      7.056
REMARK  1 active torsions:
REMARK  status: ('A' for Active; 'I' for Inactive)
REMARK    1  A    between atoms: C3_4  and  N1_5 
ROOT
HETATM    1  N1  UNL     1      22.688   2.384  51.912  1.00  0.00    -0.348 N 
HETATM    2  C4  UNL     1      24.104   2.680  51.930  1.00  0.00     0.208 C 
HETATM    3  N2  UNL     1      24.892   2.312  50.942  1.00  0.00    -0.238 NA
HETATM    4  C5  UNL     1      26.277   2.645  51.041  1.00  0.00     0.230 C 
HETATM    5  N3  UNL     1      25.867   3.425  50.109  1.00  0.00    -0.257 NA
HETATM    6  C6  UNL     1      26.649   4.381  49.379  1.00  0.00     0.324 C 
HETATM    7  O1  UNL     1      26.049   5.637  49.604  1.00  0.00    -0.342 OA
HETATM    8  C7  UNL     1      26.477   6.746  48.947  1.00  0.00     0.133 C 
HETATM    9  C8  UNL     1      25.713   7.415  49.832  1.00  0.00     0.001 C 
HETATM   10  C9  UNL     1      24.875   6.935  50.936  1.00  0.00     0.056 C 
HETATM   11  C10 UNL     1      23.469   7.311  50.735  1.00  0.00    -0.025 C 
HETATM   12  C11 UNL     1      22.420   6.472  50.603  1.00  0.00    -0.011 C 
HETATM   13  C12 UNL     1      22.379   4.987  50.618  1.00  0.00     0.142 C 
HETATM   14  N4  UNL     1      21.572   4.528  51.700  1.00  0.00    -0.403 N 
HETATM   15  C13 UNL     1      21.444   3.114  51.797  1.00  0.00     0.243 C 
HETATM   16  H15 UNL     1      21.680   5.045  52.584  1.00  0.00     0.155 HD
ENDROOT
BRANCH   1  17
HETATM   17  C3  UNL     1      22.608   0.947  52.043  1.00  0.00     0.137 A 
HETATM   18  C2  UNL     1      22.807   0.509  53.448  1.00  0.00     0.046 A 
HETATM   19  C1  UNL     1      21.714  -0.065  53.923  1.00  0.00     0.136 A 
HETATM   20  F1  UNL     1      21.825  -0.486  55.191  1.00  0.00    -0.205 F 
HETATM   21  C15 UNL     1      20.700  -0.049  52.856  1.00  0.00     0.070 A 
HETATM   22  C14 UNL     1      21.221   0.538  51.770  1.00  0.00     0.029 A 
HETATM   23 CL1  UNL     1      19.169  -0.789  53.344  1.00  0.00    -0.081 Cl
ENDBRANCH   1  17
TORSDOF 1
ENDMDL
MODEL 7
REMARK VINA RESULT:      -7.4      3.609      4.682
REMARK  1 active torsions:
REMARK  status: ('A' for Active; 'I' for Inactive)
REMARK    1  A    between atoms: C3_4  and  N1_5 
ROOT
HETATM    1  N1  UNL     1      23.575   3.664  51.117  1.00  0.00    -0.348 N 
HETATM    2  C4  UNL     1      22.221   3.766  51.613  1.00  0.00     0.208 C 
HETATM    3  N2  UNL     1      21.188   3.495  50.842  1.00  0.00    -0.238 NA
HETATM    4  C5  UNL     1      19.885   3.621  51.412  1.00  0.00     0.230 C 
HETATM    5  N3  UNL     1      20.013   2.352  51.282  1.00  0.00    -0.257 NA
HETATM    6  C6  UNL     1      19.053   1.348  51.640  1.00  0.00     0.324 C 
HETATM    7  O1  UNL     1      19.686   0.514  52.586  1.00  0.00    -0.342 OA
HETATM    8  C7  UNL     1      19.086  -0.618  53.036  1.00  0.00     0.133 C 
HETATM    9  C8  UNL     1      20.065  -0.622  53.962  1.00  0.00     0.001 C 
HETATM   10  C9  UNL     1      21.182   0.303  54.185  1.00  0.00     0.056 C 
HETATM   11  C10 UNL     1      22.472  -0.387  54.057  1.00  0.00    -0.025 C 
HETATM   12  C11 UNL     1      23.446  -0.117  53.162  1.00  0.00    -0.011 C 
HETATM   13  C12 UNL     1      23.497   0.908  52.088  1.00  0.00     0.142 C 
HETATM   14  N4  UNL     1      24.577   1.809  52.319  1.00  0.00    -0.403 N 
HETATM   15  C13 UNL     1      24.734   2.824  51.334  1.00  0.00     0.243 C 
HETATM   16  H15 UNL     1      24.719   2.090  53.299  1.00  0.00     0.155 HD
ENDROOT
BRANCH   1  17
HETATM   17  C3  UNL     1      23.696   4.729  50.147  1.00  0.00     0.137 A 
HETATM   18  C2  UNL     1      24.201   5.982  50.763  1.00  0.00     0.046 A 
HETATM   19  C1  UNL     1      25.382   6.311  50.265  1.00  0.00     0.136 A 
HETATM   20  F1  UNL     1      25.898   7.436  50.779  1.00  0.00    -0.205 F 
HETATM   21  C15 UNL     1      25.749   5.287  49.271  1.00  0.00     0.070 A 
HETATM   22  C14 UNL     1      24.770   4.374  49.207  1.00  0.00     0.029 A 
HETATM   23 CL1  UNL     1      27.317   5.591  48.511  1.00  0.00    -0.081 Cl
ENDBRANCH   1  17
TORSDOF 1
ENDMDL
MODEL 8
REMARK VINA RESULT:      -7.2      5.481      8.329
REMARK  1 active torsions:
REMARK  status: ('A' for Active; 'I' for Inactive)
REMARK    1  A    between atoms: C3_4  and  N1_5 
ROOT
HETATM    1  N1  UNL     1      18.591  -0.087  52.106  1.00  0.00    -0.348 N 
HETATM    2  C4  UNL     1      19.620   0.477  51.260  1.00  0.00     0.208 C 
HETATM    3  N2  UNL     1      19.828   1.776  51.210  1.00  0.00    -0.238 NA
HETATM    4  C5  UNL     1      20.865   2.247  50.349  1.00  0.00     0.230 C 
HETATM    5  N3  UNL     1      21.354   2.454  51.515  1.00  0.00    -0.257 NA
HETATM    6  C6  UNL     1      22.635   3.021  51.826  1.00  0.00     0.324 C 
HETATM    7  O1  UNL     1      23.326   2.049  52.579  1.00  0.00    -0.342 OA
HETATM    8  C7  UNL     1      24.532   2.324  53.140  1.00  0.00     0.133 C 
HETATM    9  C8  UNL     1      24.595   0.996  53.358  1.00  0.00     0.001 C 
HETATM   10  C9  UNL     1      23.648  -0.078  53.037  1.00  0.00     0.056 C 
HETATM   11  C10 UNL     1      23.195  -0.764  54.255  1.00  0.00    -0.025 C 
HETATM   12  C11 UNL     1      21.927  -0.842  54.712  1.00  0.00    -0.011 C 
HETATM   13  C12 UNL     1      20.674  -0.280  54.148  1.00  0.00     0.142 C 
HETATM   14  N4  UNL     1      19.764  -1.330  53.828  1.00  0.00    -0.403 N 
HETATM   15  C13 UNL     1      18.514  -0.902  53.299  1.00  0.00     0.243 C 
HETATM   16  H15 UNL     1      20.185  -2.167  53.402  1.00  0.00     0.155 HD
ENDROOT
BRANCH   1  17
HETATM   17  C3  UNL     1      17.346   0.347  51.513  1.00  0.00     0.137 A 
HETATM   18  C2  UNL     1      17.280   0.022  50.066  1.00  0.00     0.046 A 
HETATM   19  C1  UNL     1      16.311  -0.846  49.820  1.00  0.00     0.136 A 
HETATM   20  F1  UNL     1      16.196  -1.184  48.529  1.00  0.00    -0.205 F 
HETATM   21  C15 UNL     1      15.658  -1.161  51.102  1.00  0.00     0.070 A 
HETATM   22  C14 UNL     1      16.260  -0.469  52.079  1.00  0.00     0.029 A 
HETATM   23 CL1  UNL     1      14.330  -2.318  50.936  1.00  0.00    -0.081 Cl
ENDBRANCH   1  17
TORSDOF 1
ENDMDL
MODEL 9
REMARK VINA RESULT:      -7.2      3.932      5.338
REMARK  1 active torsions:
REMARK  status: ('A' for Active; 'I' for Inactive)
REMARK    1  A    between atoms: C3_4  and  N1_5 
ROOT
HETATM    1  N1  UNL     1      25.263   4.175  50.618  1.00  0.00    -0.348 N 
HETATM    2  C4  UNL     1      24.110   4.034  51.480  1.00  0.00     0.208 C 
HETATM    3  N2  UNL     1      22.940   3.666  51.002  1.00  0.00    -0.238 NA
HETATM    4  C5  UNL     1      21.855   3.551  51.923  1.00  0.00     0.230 C 
HETATM    5  N3  UNL     1      22.096   2.329  51.621  1.00  0.00    -0.257 NA
HETATM    6  C6  UNL     1      21.416   1.168  52.116  1.00  0.00     0.324 C 
HETATM    7  O1  UNL     1      22.396   0.374  52.748  1.00  0.00    -0.342 OA
HETATM    8  C7  UNL     1      22.099  -0.865  53.218  1.00  0.00     0.133 C 
HETATM    9  C8  UNL     1      23.298  -0.787  53.827  1.00  0.00     0.001 C 
HETATM   10  C9  UNL     1      24.307   0.278  53.833  1.00  0.00     0.056 C 
HETATM   11  C10 UNL     1      25.580  -0.197  53.274  1.00  0.00    -0.025 C 
HETATM   12  C11 UNL     1      26.208   0.281  52.179  1.00  0.00    -0.011 C 
HETATM   13  C12 UNL     1      25.815   1.376  51.256  1.00  0.00     0.142 C 
HETATM   14  N4  UNL     1      26.795   2.412  51.276  1.00  0.00    -0.403 N 
HETATM   15  C13 UNL     1      26.529   3.507  50.407  1.00  0.00     0.243 C 
HETATM   16  H15 UNL     1      27.180   2.639  52.204  1.00  0.00     0.155 HD
ENDROOT
BRANCH   1  17
HETATM   17  C3  UNL     1      24.962   5.313  49.779  1.00  0.00     0.137 A 
HETATM   18  C2  UNL     1      25.165   6.597  50.497  1.00  0.00     0.046 A 
HETATM   19  C1  UNL     1      26.137   7.301  49.940  1.00  0.00     0.136 A 
HETATM   20  F1  UNL     1      26.374   8.476  50.540  1.00  0.00    -0.205 F 
HETATM   21  C15 UNL     1      26.654   6.525  48.800  1.00  0.00     0.070 A 
HETATM   22  C14 UNL     1      25.972   5.375  48.711  1.00  0.00     0.029 A 
HETATM   23 CL1  UNL     1      27.970   7.343  47.946  1.00  0.00    -0.081 Cl
ENDBRANCH   1  17
TORSDOF 1
ENDMDL
