MODEL 1
REMARK VINA RESULT:      -7.3      0.000      0.000
REMARK  5 active torsions:
REMARK  status: ('A' for Active; 'I' for Inactive)
REMARK    1  A    between atoms: C4_4  and  O1_5 
REMARK    2  A    between atoms: C6_7  and  C7_8 
REMARK    3  A    between atoms: C7_8  and  N1_9 
REMARK    4  A    between atoms: C10_12  and  S1_13 
REMARK    5  A    between atoms: S1_13  and  O3_15 
ROOT
HETATM    1  N1  UNL     1      24.183   3.101  51.211  1.00  0.00     0.100 N 
HETATM    2  C8  UNL     1      24.744   3.246  49.908  1.00  0.00     0.301 C 
HETATM    3  C9  UNL     1      25.319   4.620  49.673  1.00  0.00     0.024 C 
HETATM    4  C10 UNL     1      25.026   5.855  50.070  1.00  0.00     0.058 C 
HETATM    5  C11 UNL     1      23.966   6.461  50.952  1.00  0.00     0.218 C 
HETATM    6  O4  UNL     1      23.877   5.671  52.080  1.00  0.00    -0.384 OA
HETATM    7  C12 UNL     1      22.770   4.869  52.162  1.00  0.00     0.198 C 
HETATM    8  C13 UNL     1      22.858   3.572  51.401  1.00  0.00     0.299 C 
ENDROOT
BRANCH   1   9
HETATM    9  C7  UNL     1      24.295   1.729  51.625  1.00  0.00     0.337 C 
BRANCH   9  10
HETATM   10  C6  UNL     1      25.403   1.463  52.575  1.00  0.00     0.077 C 
HETATM   11  C5  UNL     1      25.184   0.443  53.417  1.00  0.00     0.070 C 
HETATM   12  C4  UNL     1      26.017  -0.136  54.495  1.00  0.00     0.068 C 
HETATM   13  C3  UNL     1      27.337   0.078  54.629  1.00  0.00     0.045 C 
HETATM   14  C2  UNL     1      28.229   0.888  53.792  1.00  0.00    -0.041 C 
HETATM   15  C1  UNL     1      29.506   0.469  53.740  1.00  0.00     0.021 C 
HETATM   16  C14 UNL     1      27.873   2.082  53.023  1.00  0.00     0.213 C 
HETATM   17  O5  UNL     1      26.558   2.184  52.605  1.00  0.00    -0.349 OA
BRANCH  12  18
HETATM   18  O1  UNL     1      25.409  -0.954  55.436  1.00  0.00    -0.361 OA
HETATM   19  H4  UNL     1      25.840  -1.825  55.779  1.00  0.00     0.217 HD
ENDBRANCH  12  18
ENDBRANCH   9  10
ENDBRANCH   1   9
BRANCH   4  20
HETATM   20  S1  UNL     1      26.110   7.123  49.438  1.00  0.00     0.185 S 
HETATM   21  O2  UNL     1      27.288   6.490  48.718  1.00  0.00    -0.223 OA
BRANCH  20  22
HETATM   22  O3  UNL     1      26.629   8.067  50.726  1.00  0.00    -0.302 OA
HETATM   23  H11 UNL     1      26.124   8.901  50.825  1.00  0.00     0.230 HD
ENDBRANCH  20  22
ENDBRANCH   4  20
TORSDOF 5
ENDMDL
MODEL 2
REMARK VINA RESULT:      -7.2      1.806      2.235
REMARK  5 active torsions:
REMARK  status: ('A' for Active; 'I' for Inactive)
REMARK    1  A    between atoms: C4_4  and  O1_5 
REMARK    2  A    between atoms: C6_7  and  C7_8 
REMARK    3  A    between atoms: C7_8  and  N1_9 
REMARK    4  A    between atoms: C10_12  and  S1_13 
REMARK    5  A    between atoms: S1_13  and  O3_15 
ROOT
HETATM    1  N1  UNL     1      24.985   2.141  52.018  1.00  0.00     0.100 N 
HETATM    2  C8  UNL     1      26.270   2.033  51.411  1.00  0.00     0.301 C 
HETATM    3  C9  UNL     1      26.583   3.195  50.504  1.00  0.00     0.024 C 
HETATM    4  C10 UNL     1      25.883   3.994  49.704  1.00  0.00     0.058 C 
HETATM    5  C11 UNL     1      24.429   4.107  49.329  1.00  0.00     0.218 C 
HETATM    6  O4  UNL     1      23.700   4.010  50.497  1.00  0.00    -0.384 OA
HETATM    7  C12 UNL     1      23.036   2.829  50.691  1.00  0.00     0.198 C 
HETATM    8  C13 UNL     1      23.870   1.707  51.253  1.00  0.00     0.299 C 
ENDROOT
BRANCH   1   9
HETATM    9  C7  UNL     1      25.006   1.483  53.295  1.00  0.00     0.337 C 
BRANCH   9  10
HETATM   10  C6  UNL     1      26.180   0.602  53.512  1.00  0.00     0.077 C 
HETATM   11  C5  UNL     1      26.184  -0.516  52.771  1.00  0.00     0.070 C 
HETATM   12  C4  UNL     1      27.151  -1.634  52.688  1.00  0.00     0.068 C 
HETATM   13  C3  UNL     1      28.413  -1.578  53.143  1.00  0.00     0.045 C 
HETATM   14  C2  UNL     1      29.109  -0.465  53.798  1.00  0.00    -0.041 C 
HETATM   15  C1  UNL     1      30.438  -0.420  53.598  1.00  0.00     0.021 C 
HETATM   16  C14 UNL     1      28.511   0.580  54.632  1.00  0.00     0.213 C 
HETATM   17  O5  UNL     1      27.184   0.888  54.387  1.00  0.00    -0.349 OA
BRANCH  12  18
HETATM   18  O1  UNL     1      26.739  -2.823  52.102  1.00  0.00    -0.361 OA
HETATM   19  H4  UNL     1      26.850  -3.016  51.096  1.00  0.00     0.217 HD
ENDBRANCH  12  18
ENDBRANCH   9  10
ENDBRANCH   1   9
BRANCH   4  20
HETATM   20  S1  UNL     1      26.843   5.235  48.854  1.00  0.00     0.185 S 
HETATM   21  O2  UNL     1      28.277   4.762  48.692  1.00  0.00    -0.223 OA
BRANCH  20  22
HETATM   22  O3  UNL     1      26.776   6.658  49.744  1.00  0.00    -0.302 OA
HETATM   23  H11 UNL     1      27.016   6.538  50.687  1.00  0.00     0.230 HD
ENDBRANCH  20  22
ENDBRANCH   4  20
TORSDOF 5
ENDMDL
MODEL 3
REMARK VINA RESULT:      -7.1      3.109      4.139
REMARK  5 active torsions:
REMARK  status: ('A' for Active; 'I' for Inactive)
REMARK    1  A    between atoms: C4_4  and  O1_5 
REMARK    2  A    between atoms: C6_7  and  C7_8 
REMARK    3  A    between atoms: C7_8  and  N1_9 
REMARK    4  A    between atoms: C10_12  and  S1_13 
REMARK    5  A    between atoms: S1_13  and  O3_15 
ROOT
HETATM    1  N1  UNL     1      23.741   1.016  52.747  1.00  0.00     0.100 N 
HETATM    2  C8  UNL     1      22.358   0.850  52.441  1.00  0.00     0.301 C 
HETATM    3  C9  UNL     1      22.056   1.067  50.981  1.00  0.00     0.024 C 
HETATM    4  C10 UNL     1      22.539   1.842  50.014  1.00  0.00     0.058 C 
HETATM    5  C11 UNL     1      23.630   2.876  49.931  1.00  0.00     0.218 C 
HETATM    6  O4  UNL     1      24.730   2.360  50.585  1.00  0.00    -0.384 OA
HETATM    7  C12 UNL     1      25.005   2.903  51.812  1.00  0.00     0.198 C 
HETATM    8  C13 UNL     1      24.203   2.341  52.958  1.00  0.00     0.299 C 
ENDROOT
BRANCH   1   9
HETATM    9  C7  UNL     1      24.084   0.180  53.864  1.00  0.00     0.337 C 
BRANCH   9  10
HETATM   10  C6  UNL     1      25.506  -0.243  53.900  1.00  0.00     0.077 C 
HETATM   11  C5  UNL     1      25.830  -1.189  53.007  1.00  0.00     0.070 C 
HETATM   12  C4  UNL     1      27.113  -1.870  52.721  1.00  0.00     0.068 C 
HETATM   13  C3  UNL     1      28.314  -1.422  53.124  1.00  0.00     0.045 C 
HETATM   14  C2  UNL     1      28.636  -0.220  53.901  1.00  0.00    -0.041 C 
HETATM   15  C1  UNL     1      29.842   0.320  53.652  1.00  0.00     0.021 C 
HETATM   16  C14 UNL     1      27.791   0.436  54.902  1.00  0.00     0.213 C 
HETATM   17  O5  UNL     1      26.423   0.276  54.762  1.00  0.00    -0.349 OA
BRANCH  12  18
HETATM   18  O1  UNL     1      27.089  -3.049  51.990  1.00  0.00    -0.361 OA
HETATM   19  H4  UNL     1      26.553  -3.151  51.116  1.00  0.00     0.217 HD
ENDBRANCH  12  18
ENDBRANCH   9  10
ENDBRANCH   1   9
BRANCH   4  20
HETATM   20  S1  UNL     1      21.744   1.647  48.429  1.00  0.00     0.185 S 
HETATM   21  O2  UNL     1      22.080   2.825  47.530  1.00  0.00    -0.223 OA
BRANCH  20  22
HETATM   22  O3  UNL     1      20.087   1.534  48.676  1.00  0.00    -0.302 OA
HETATM   23  H11 UNL     1      19.601   1.189  47.898  1.00  0.00     0.230 HD
ENDBRANCH  20  22
ENDBRANCH   4  20
TORSDOF 5
ENDMDL
MODEL 4
REMARK VINA RESULT:      -7.0      3.925      5.388
REMARK  5 active torsions:
REMARK  status: ('A' for Active; 'I' for Inactive)
REMARK    1  A    between atoms: C4_4  and  O1_5 
REMARK    2  A    between atoms: C6_7  and  C7_8 
REMARK    3  A    between atoms: C7_8  and  N1_9 
REMARK    4  A    between atoms: C10_12  and  S1_13 
REMARK    5  A    between atoms: S1_13  and  O3_15 
ROOT
HETATM    1  N1  UNL     1      24.236   1.738  51.699  1.00  0.00     0.100 N 
HETATM    2  C8  UNL     1      23.905   1.651  53.083  1.00  0.00     0.301 C 
HETATM    3  C9  UNL     1      22.770   0.695  53.349  1.00  0.00     0.024 C 
HETATM    4  C10 UNL     1      21.673   0.315  52.701  1.00  0.00     0.058 C 
HETATM    5  C11 UNL     1      21.048   0.671  51.378  1.00  0.00     0.218 C 
HETATM    6  O4  UNL     1      22.059   0.674  50.439  1.00  0.00    -0.384 OA
HETATM    7  C12 UNL     1      22.466   1.907  50.004  1.00  0.00     0.198 C 
HETATM    8  C13 UNL     1      23.452   2.612  50.900  1.00  0.00     0.299 C 
ENDROOT
BRANCH   1   9
HETATM    9  C7  UNL     1      25.632   2.049  51.564  1.00  0.00     0.337 C 
BRANCH   9  10
HETATM   10  C6  UNL     1      26.538   1.136  52.304  1.00  0.00     0.077 C 
HETATM   11  C5  UNL     1      26.490  -0.143  51.906  1.00  0.00     0.070 C 
HETATM   12  C4  UNL     1      27.217  -1.344  52.374  1.00  0.00     0.068 C 
HETATM   13  C3  UNL     1      28.335  -1.310  53.118  1.00  0.00     0.045 C 
HETATM   14  C2  UNL     1      29.071  -0.146  53.623  1.00  0.00    -0.041 C 
HETATM   15  C1  UNL     1      30.395  -0.324  53.779  1.00  0.00     0.021 C 
HETATM   16  C14 UNL     1      28.517   1.166  53.969  1.00  0.00     0.213 C 
HETATM   17  O5  UNL     1      27.360   1.546  53.310  1.00  0.00    -0.349 OA
BRANCH  12  18
HETATM   18  O1  UNL     1      26.724  -2.594  52.028  1.00  0.00    -0.361 OA
HETATM   19  H4  UNL     1      27.331  -3.367  51.720  1.00  0.00     0.217 HD
ENDBRANCH  12  18
ENDBRANCH   9  10
ENDBRANCH   1   9
BRANCH   4  20
HETATM   20  S1  UNL     1      20.678  -0.896  53.554  1.00  0.00     0.185 S 
HETATM   21  O2  UNL     1      19.210  -0.512  53.474  1.00  0.00    -0.223 OA
BRANCH  20  22
HETATM   22  O3  UNL     1      21.192  -0.975  55.151  1.00  0.00    -0.302 OA
HETATM   23  H11 UNL     1      20.458  -0.929  55.798  1.00  0.00     0.230 HD
ENDBRANCH  20  22
ENDBRANCH   4  20
TORSDOF 5
ENDMDL
MODEL 5
REMARK VINA RESULT:      -6.9      4.534      6.367
REMARK  5 active torsions:
REMARK  status: ('A' for Active; 'I' for Inactive)
REMARK    1  A    between atoms: C4_4  and  O1_5 
REMARK    2  A    between atoms: C6_7  and  C7_8 
REMARK    3  A    between atoms: C7_8  and  N1_9 
REMARK    4  A    between atoms: C10_12  and  S1_13 
REMARK    5  A    between atoms: S1_13  and  O3_15 
ROOT
HETATM    1  N1  UNL     1      22.760  -0.256  53.920  1.00  0.00     0.100 N 
HETATM    2  C8  UNL     1      21.611  -0.195  54.762  1.00  0.00     0.301 C 
HETATM    3  C9  UNL     1      20.325  -0.408  54.005  1.00  0.00     0.024 C 
HETATM    4  C10 UNL     1      19.881  -0.125  52.784  1.00  0.00     0.058 C 
HETATM    5  C11 UNL     1      20.469   0.549  51.573  1.00  0.00     0.218 C 
HETATM    6  O4  UNL     1      21.742   0.042  51.404  1.00  0.00    -0.384 OA
HETATM    7  C12 UNL     1      22.769   0.880  51.743  1.00  0.00     0.198 C 
HETATM    8  C13 UNL     1      23.106   0.924  53.212  1.00  0.00     0.299 C 
ENDROOT
BRANCH   1   9
HETATM    9  C7  UNL     1      23.881  -0.733  54.682  1.00  0.00     0.337 C 
BRANCH   9  10
HETATM   10  C6  UNL     1      25.201  -0.499  54.043  1.00  0.00     0.077 C 
HETATM   11  C5  UNL     1      25.759   0.685  54.332  1.00  0.00     0.070 C 
HETATM   12  C4  UNL     1      27.040   1.295  53.910  1.00  0.00     0.068 C 
HETATM   13  C3  UNL     1      28.064   0.610  53.374  1.00  0.00     0.045 C 
HETATM   14  C2  UNL     1      28.164  -0.826  53.089  1.00  0.00    -0.041 C 
HETATM   15  C1  UNL     1      29.405  -1.340  53.151  1.00  0.00     0.021 C 
HETATM   16  C14 UNL     1      27.067  -1.736  52.751  1.00  0.00     0.213 C 
HETATM   17  O5  UNL     1      25.811  -1.401  53.227  1.00  0.00    -0.349 OA
BRANCH  12  18
HETATM   18  O1  UNL     1      27.209   2.662  54.073  1.00  0.00    -0.361 OA
HETATM   19  H4  UNL     1      27.917   3.065  54.704  1.00  0.00     0.217 HD
ENDBRANCH  12  18
ENDBRANCH   9  10
ENDBRANCH   1   9
BRANCH   4  20
HETATM   20  S1  UNL     1      18.206  -0.645  52.455  1.00  0.00     0.185 S 
HETATM   21  O2  UNL     1      17.417   0.500  51.844  1.00  0.00    -0.223 OA
BRANCH  20  22
HETATM   22  O3  UNL     1      17.514  -1.150  53.899  1.00  0.00    -0.302 OA
HETATM   23  H11 UNL     1      16.983  -0.453  54.339  1.00  0.00     0.230 HD
ENDBRANCH  20  22
ENDBRANCH   4  20
TORSDOF 5
ENDMDL
MODEL 6
REMARK VINA RESULT:      -6.7      3.692      5.847
REMARK  5 active torsions:
REMARK  status: ('A' for Active; 'I' for Inactive)
REMARK    1  A    between atoms: C4_4  and  O1_5 
REMARK    2  A    between atoms: C6_7  and  C7_8 
REMARK    3  A    between atoms: C7_8  and  N1_9 
REMARK    4  A    between atoms: C10_12  and  S1_13 
REMARK    5  A    between atoms: S1_13  and  O3_15 
ROOT
HETATM    1  N1  UNL     1      24.091   0.668  53.110  1.00  0.00     0.100 N 
HETATM    2  C8  UNL     1      23.706   2.039  53.044  1.00  0.00     0.301 C 
HETATM    3  C9  UNL     1      24.374   2.776  51.912  1.00  0.00     0.024 C 
HETATM    4  C10 UNL     1      25.552   2.711  51.298  1.00  0.00     0.058 C 
HETATM    5  C11 UNL     1      26.783   1.857  51.454  1.00  0.00     0.218 C 
HETATM    6  O4  UNL     1      26.356   0.552  51.590  1.00  0.00    -0.384 OA
HETATM    7  C12 UNL     1      26.446   0.022  52.849  1.00  0.00     0.198 C 
HETATM    8  C13 UNL     1      25.309   0.369  53.775  1.00  0.00     0.299 C 
ENDROOT
BRANCH   1   9
HETATM    9  C7  UNL     1      23.012  -0.102  53.666  1.00  0.00     0.337 C 
BRANCH   9  10
HETATM   10  C6  UNL     1      21.783  -0.125  52.834  1.00  0.00     0.077 C 
HETATM   11  C5  UNL     1      20.653  -0.360  53.515  1.00  0.00     0.070 C 
HETATM   12  C4  UNL     1      19.244  -0.462  53.072  1.00  0.00     0.068 C 
HETATM   13  C3  UNL     1      18.788  -0.015  51.891  1.00  0.00     0.045 C 
HETATM   14  C2  UNL     1      19.526   0.646  50.808  1.00  0.00    -0.041 C 
HETATM   15  C1  UNL     1      18.809   1.509  50.066  1.00  0.00     0.021 C 
HETATM   16  C14 UNL     1      20.937   0.463  50.463  1.00  0.00     0.213 C 
HETATM   17  O5  UNL     1      21.783   0.074  51.487  1.00  0.00    -0.349 OA
BRANCH  12  18
HETATM   18  O1  UNL     1      18.323  -1.056  53.923  1.00  0.00    -0.361 OA
HETATM   19  H4  UNL     1      18.329  -2.065  54.134  1.00  0.00     0.217 HD
ENDBRANCH  12  18
ENDBRANCH   9  10
ENDBRANCH   1   9
BRANCH   4  20
HETATM   20  S1  UNL     1      25.775   3.888  49.976  1.00  0.00     0.185 S 
HETATM   21  O2  UNL     1      27.148   3.714  49.350  1.00  0.00    -0.223 OA
BRANCH  20  22
HETATM   22  O3  UNL     1      25.594   5.435  50.606  1.00  0.00    -0.302 OA
HETATM   23  H11 UNL     1      26.290   5.675  51.252  1.00  0.00     0.230 HD
ENDBRANCH  20  22
ENDBRANCH   4  20
TORSDOF 5
ENDMDL
MODEL 7
REMARK VINA RESULT:      -6.6      3.942      6.110
REMARK  5 active torsions:
REMARK  status: ('A' for Active; 'I' for Inactive)
REMARK    1  A    between atoms: C4_4  and  O1_5 
REMARK    2  A    between atoms: C6_7  and  C7_8 
REMARK    3  A    between atoms: C7_8  and  N1_9 
REMARK    4  A    between atoms: C10_12  and  S1_13 
REMARK    5  A    between atoms: S1_13  and  O3_15 
ROOT
HETATM    1  N1  UNL     1      23.418   2.305  52.249  1.00  0.00     0.100 N 
HETATM    2  C8  UNL     1      23.934   1.211  53.001  1.00  0.00     0.301 C 
HETATM    3  C9  UNL     1      25.426   1.295  53.199  1.00  0.00     0.024 C 
HETATM    4  C10 UNL     1      26.456   1.753  52.494  1.00  0.00     0.058 C 
HETATM    5  C11 UNL     1      26.608   2.412  51.148  1.00  0.00     0.218 C 
HETATM    6  O4  UNL     1      25.627   3.378  51.055  1.00  0.00    -0.384 OA
HETATM    7  C12 UNL     1      24.576   3.085  50.228  1.00  0.00     0.198 C 
HETATM    8  C13 UNL     1      23.504   2.217  50.835  1.00  0.00     0.299 C 
ENDROOT
BRANCH   1   9
HETATM    9  C7  UNL     1      22.064   2.564  52.656  1.00  0.00     0.337 C 
BRANCH   9  10
HETATM   10  C6  UNL     1      21.173   1.377  52.614  1.00  0.00     0.077 C 
HETATM   11  C5  UNL     1      21.256   0.579  53.687  1.00  0.00     0.070 C 
HETATM   12  C4  UNL     1      20.554  -0.678  54.032  1.00  0.00     0.068 C 
HETATM   13  C3  UNL     1      19.429  -1.104  53.434  1.00  0.00     0.045 C 
HETATM   14  C2  UNL     1      18.661  -0.472  52.356  1.00  0.00    -0.041 C 
HETATM   15  C1  UNL     1      17.340  -0.726  52.364  1.00  0.00     0.021 C 
HETATM   16  C14 UNL     1      19.180   0.392  51.293  1.00  0.00     0.213 C 
HETATM   17  O5  UNL     1      20.333   1.104  51.578  1.00  0.00    -0.349 OA
BRANCH  12  18
HETATM   18  O1  UNL     1      21.080  -1.477  55.036  1.00  0.00    -0.361 OA
HETATM   19  H4  UNL     1      22.092  -1.551  55.217  1.00  0.00     0.217 HD
ENDBRANCH  12  18
ENDBRANCH   9  10
ENDBRANCH   1   9
BRANCH   4  20
HETATM   20  S1  UNL     1      28.047   1.569  53.280  1.00  0.00     0.185 S 
HETATM   21  O2  UNL     1      27.867   1.360  54.774  1.00  0.00    -0.223 OA
BRANCH  20  22
HETATM   22  O3  UNL     1      28.954   2.948  52.971  1.00  0.00    -0.302 OA
HETATM   23  H11 UNL     1      28.984   3.571  53.728  1.00  0.00     0.230 HD
ENDBRANCH  20  22
ENDBRANCH   4  20
TORSDOF 5
ENDMDL
MODEL 8
REMARK VINA RESULT:      -6.6      2.139      3.255
REMARK  5 active torsions:
REMARK  status: ('A' for Active; 'I' for Inactive)
REMARK    1  A    between atoms: C4_4  and  O1_5 
REMARK    2  A    between atoms: C6_7  and  C7_8 
REMARK    3  A    between atoms: C7_8  and  N1_9 
REMARK    4  A    between atoms: C10_12  and  S1_13 
REMARK    5  A    between atoms: S1_13  and  O3_15 
ROOT
HETATM    1  N1  UNL     1      22.415   3.205  50.557  1.00  0.00     0.100 N 
HETATM    2  C8  UNL     1      22.769   3.393  49.189  1.00  0.00     0.301 C 
HETATM    3  C9  UNL     1      24.016   4.223  49.020  1.00  0.00     0.024 C 
HETATM    4  C10 UNL     1      24.580   5.235  49.671  1.00  0.00     0.058 C 
HETATM    5  C11 UNL     1      24.229   6.033  50.899  1.00  0.00     0.218 C 
HETATM    6  O4  UNL     1      23.836   5.133  51.869  1.00  0.00    -0.384 OA
HETATM    7  C12 UNL     1      22.493   5.087  52.132  1.00  0.00     0.198 C 
HETATM    8  C13 UNL     1      21.680   4.245  51.183  1.00  0.00     0.299 C 
ENDROOT
BRANCH   1   9
HETATM    9  C7  UNL     1      21.734   1.948  50.703  1.00  0.00     0.337 C 
BRANCH   9  10
HETATM   10  C6  UNL     1      22.401   0.991  51.620  1.00  0.00     0.077 C 
HETATM   11  C5  UNL     1      23.677   1.288  51.905  1.00  0.00     0.070 C 
HETATM   12  C4  UNL     1      24.676   0.607  52.759  1.00  0.00     0.068 C 
HETATM   13  C3  UNL     1      24.373  -0.313  53.689  1.00  0.00     0.045 C 
HETATM   14  C2  UNL     1      23.059  -0.844  54.069  1.00  0.00    -0.041 C 
HETATM   15  C1  UNL     1      22.946  -1.240  55.349  1.00  0.00     0.021 C 
HETATM   16  C14 UNL     1      21.882  -0.982  53.208  1.00  0.00     0.213 C 
HETATM   17  O5  UNL     1      21.785  -0.105  52.142  1.00  0.00    -0.349 OA
BRANCH  12  18
HETATM   18  O1  UNL     1      26.015   0.932  52.600  1.00  0.00    -0.361 OA
HETATM   19  H4  UNL     1      26.701   0.283  52.187  1.00  0.00     0.217 HD
ENDBRANCH  12  18
ENDBRANCH   9  10
ENDBRANCH   1   9
BRANCH   4  20
HETATM   20  S1  UNL     1      26.112   5.820  48.967  1.00  0.00     0.185 S 
HETATM   21  O2  UNL     1      27.102   4.674  48.851  1.00  0.00    -0.223 OA
BRANCH  20  22
HETATM   22  O3  UNL     1      26.716   7.040  49.950  1.00  0.00    -0.302 OA
HETATM   23  H11 UNL     1      26.793   6.778  50.891  1.00  0.00     0.230 HD
ENDBRANCH  20  22
ENDBRANCH   4  20
TORSDOF 5
ENDMDL
MODEL 9
REMARK VINA RESULT:      -6.6      2.667      7.000
REMARK  5 active torsions:
REMARK  status: ('A' for Active; 'I' for Inactive)
REMARK    1  A    between atoms: C4_4  and  O1_5 
REMARK    2  A    between atoms: C6_7  and  C7_8 
REMARK    3  A    between atoms: C7_8  and  N1_9 
REMARK    4  A    between atoms: C10_12  and  S1_13 
REMARK    5  A    between atoms: S1_13  and  O3_15 
ROOT
HETATM    1  N1  UNL     1      24.664   2.281  51.247  1.00  0.00     0.100 N 
HETATM    2  C8  UNL     1      26.062   2.503  51.417  1.00  0.00     0.301 C 
HETATM    3  C9  UNL     1      26.773   1.307  51.997  1.00  0.00     0.024 C 
HETATM    4  C10 UNL     1      26.464   0.339  52.855  1.00  0.00     0.058 C 
HETATM    5  C11 UNL     1      25.239  -0.014  53.656  1.00  0.00     0.218 C 
HETATM    6  O4  UNL     1      24.153   0.102  52.812  1.00  0.00    -0.384 OA
HETATM    7  C12 UNL     1      23.352   1.193  53.015  1.00  0.00     0.198 C 
HETATM    8  C13 UNL     1      23.835   2.473  52.384  1.00  0.00     0.299 C 
ENDROOT
BRANCH   1   9
HETATM    9  C7  UNL     1      24.190   3.066  50.140  1.00  0.00     0.337 C 
BRANCH   9  10
HETATM   10  C6  UNL     1      23.814   4.458  50.492  1.00  0.00     0.077 C 
HETATM   11  C5  UNL     1      24.816   5.344  50.412  1.00  0.00     0.070 C 
HETATM   12  C4  UNL     1      24.861   6.801  50.673  1.00  0.00     0.068 C 
HETATM   13  C3  UNL     1      23.777   7.590  50.748  1.00  0.00     0.045 C 
HETATM   14  C2  UNL     1      22.362   7.229  50.601  1.00  0.00    -0.041 C 
HETATM   15  C1  UNL     1      21.569   8.199  50.114  1.00  0.00     0.021 C 
HETATM   16  C14 UNL     1      21.742   5.943  50.927  1.00  0.00     0.213 C 
HETATM   17  O5  UNL     1      22.557   4.826  50.866  1.00  0.00    -0.349 OA
BRANCH  12  18
HETATM   18  O1  UNL     1      26.098   7.404  50.852  1.00  0.00    -0.361 OA
HETATM   19  H4  UNL     1      26.987   6.925  50.646  1.00  0.00     0.217 HD
ENDBRANCH  12  18
ENDBRANCH   9  10
ENDBRANCH   1   9
BRANCH   4  20
HETATM   20  S1  UNL     1      27.769  -0.838  53.161  1.00  0.00     0.185 S 
HETATM   21  O2  UNL     1      27.237  -2.254  53.012  1.00  0.00    -0.223 OA
BRANCH  20  22
HETATM   22  O3  UNL     1      28.364  -0.580  54.710  1.00  0.00    -0.302 OA
HETATM   23  H11 UNL     1      27.734  -0.111  55.295  1.00  0.00     0.230 HD
ENDBRANCH  20  22
ENDBRANCH   4  20
TORSDOF 5
ENDMDL
