MODEL 1
REMARK VINA RESULT:      -8.8      0.000      0.000
REMARK  4 active torsions:
REMARK  status: ('A' for Active; 'I' for Inactive)
REMARK    1  A    between atoms: C2_2  and  O1_3 
REMARK    2  A    between atoms: O1_3  and  C3_4 
REMARK    3  A    between atoms: C3_4  and  C4_6 
REMARK    4  A    between atoms: N3_21  and  N4_22 
ROOT
HETATM    1  C4  UNL     1      26.038   0.154  52.823  1.00  0.00     0.041 A 
HETATM    2  C5  UNL     1      24.715   0.298  53.185  1.00  0.00     0.018 A 
HETATM    3  C6  UNL     1      23.932   1.265  52.613  1.00  0.00     0.016 A 
HETATM    4  C7  UNL     1      24.609   1.994  51.702  1.00  0.00     0.014 A 
HETATM    5  C8  UNL     1      25.906   1.938  51.267  1.00  0.00     0.060 A 
HETATM    6  C9  UNL     1      26.638   0.954  51.878  1.00  0.00     0.049 A 
HETATM    7  N1  UNL     1      26.596   2.717  50.317  1.00  0.00    -0.299 N 
HETATM    8  N2  UNL     1      26.291   3.682  49.364  1.00  0.00    -0.298 N 
HETATM    9  C10 UNL     1      25.825   5.030  49.083  1.00  0.00     0.077 A 
HETATM   10  C11 UNL     1      26.737   6.057  49.084  1.00  0.00     0.052 A 
HETATM   11  C12 UNL     1      26.420   7.411  48.847  1.00  0.00     0.013 A 
HETATM   12 BR1  UNL     1      27.772   8.742  48.892  1.00  0.00    -0.051 Br
HETATM   13  C13 UNL     1      25.086   7.589  48.614  1.00  0.00     0.021 A 
HETATM   14  C14 UNL     1      24.097   6.604  48.594  1.00  0.00     0.035 A 
HETATM   15  C15 UNL     1      24.494   5.281  48.840  1.00  0.00     0.078 A 
HETATM   16  N3  UNL     1      23.348   4.443  48.780  1.00  0.00    -0.287 N 
HETATM   17  C16 UNL     1      23.737   3.691  49.875  1.00  0.00     0.134 C 
HETATM   18  C17 UNL     1      24.040   3.113  50.987  1.00  0.00     0.074 C 
HETATM   19  C18 UNL     1      23.484   4.056  51.892  1.00  0.00     0.102 C 
HETATM   20  N5  UNL     1      23.012   4.841  52.629  1.00  0.00    -0.191 NA
HETATM   21  H9  UNL     1      27.624   2.631  50.196  1.00  0.00     0.187 HD
HETATM   22  H10 UNL     1      26.414   3.546  48.319  1.00  0.00     0.187 HD
ENDROOT
BRANCH  16  23
HETATM   23  N4  UNL     1      22.273   4.419  47.955  1.00  0.00    -0.243 NA
HETATM   24  H14 UNL     1      21.617   5.201  48.014  1.00  0.00     0.143 HD
HETATM   25  H15 UNL     1      22.575   4.296  46.976  1.00  0.00     0.143 HD
ENDBRANCH  16  23
BRANCH   1  26
HETATM   26  C3  UNL     1      26.872  -0.893  53.475  1.00  0.00     0.293 C 
HETATM   27  O2  UNL     1      26.913  -2.053  52.995  1.00  0.00    -0.259 OA
BRANCH  26  28
HETATM   28  O1  UNL     1      27.597  -0.571  54.616  1.00  0.00    -0.318 OA
BRANCH  28  29
HETATM   29  C2  UNL     1      28.827   0.156  54.495  1.00  0.00     0.174 C 
HETATM   30  C1  UNL     1      29.833  -0.534  53.653  1.00  0.00     0.034 C 
ENDBRANCH  28  29
ENDBRANCH  26  28
ENDBRANCH   1  26
TORSDOF 4
ENDMDL
MODEL 2
REMARK VINA RESULT:      -8.6      1.343      1.716
REMARK  4 active torsions:
REMARK  status: ('A' for Active; 'I' for Inactive)
REMARK    1  A    between atoms: C2_2  and  O1_3 
REMARK    2  A    between atoms: O1_3  and  C3_4 
REMARK    3  A    between atoms: C3_4  and  C4_6 
REMARK    4  A    between atoms: N3_21  and  N4_22 
ROOT
HETATM    1  C4  UNL     1      27.132   1.199  53.539  1.00  0.00     0.041 A 
HETATM    2  C5  UNL     1      25.869   0.699  53.771  1.00  0.00     0.018 A 
HETATM    3  C6  UNL     1      24.805   1.097  53.007  1.00  0.00     0.016 A 
HETATM    4  C7  UNL     1      25.165   1.986  52.058  1.00  0.00     0.014 A 
HETATM    5  C8  UNL     1      26.374   2.543  51.739  1.00  0.00     0.060 A 
HETATM    6  C9  UNL     1      27.396   2.108  52.540  1.00  0.00     0.049 A 
HETATM    7  N1  UNL     1      26.727   3.478  50.746  1.00  0.00    -0.299 N 
HETATM    8  N2  UNL     1      26.130   4.081  49.645  1.00  0.00    -0.298 N 
HETATM    9  C10 UNL     1      25.116   4.991  49.139  1.00  0.00     0.077 A 
HETATM   10  C11 UNL     1      25.409   6.331  49.065  1.00  0.00     0.052 A 
HETATM   11  C12 UNL     1      24.515   7.324  48.614  1.00  0.00     0.013 A 
HETATM   12 BR1  UNL     1      25.035   9.148  48.577  1.00  0.00    -0.051 Br
HETATM   13  C13 UNL     1      23.308   6.797  48.253  1.00  0.00     0.021 A 
HETATM   14  C14 UNL     1      22.930   5.453  48.295  1.00  0.00     0.035 A 
HETATM   15  C15 UNL     1      23.877   4.527  48.758  1.00  0.00     0.078 A 
HETATM   16  N3  UNL     1      23.299   3.230  48.727  1.00  0.00    -0.287 N 
HETATM   17  C16 UNL     1      23.846   2.866  49.945  1.00  0.00     0.134 C 
HETATM   18  C17 UNL     1      24.233   2.611  51.148  1.00  0.00     0.074 C 
HETATM   19  C18 UNL     1      23.171   3.227  51.863  1.00  0.00     0.102 C 
HETATM   20  N5  UNL     1      22.281   3.734  52.441  1.00  0.00    -0.191 NA
HETATM   21  H9  UNL     1      27.674   3.903  50.720  1.00  0.00     0.187 HD
HETATM   22  H10 UNL     1      26.447   3.935  48.642  1.00  0.00     0.187 HD
ENDROOT
BRANCH  16  23
HETATM   23  N4  UNL     1      22.495   2.606  47.831  1.00  0.00    -0.243 NA
HETATM   24  H14 UNL     1      22.294   1.616  47.989  1.00  0.00     0.143 HD
HETATM   25  H15 UNL     1      21.610   3.124  47.722  1.00  0.00     0.143 HD
ENDBRANCH  16  23
BRANCH   1  26
HETATM   26  C3  UNL     1      28.269   0.763  54.398  1.00  0.00     0.293 C 
HETATM   27  O2  UNL     1      28.949   1.616  55.019  1.00  0.00    -0.259 OA
BRANCH  26  28
HETATM   28  O1  UNL     1      28.564  -0.592  54.498  1.00  0.00    -0.318 OA
BRANCH  28  29
HETATM   29  C2  UNL     1      29.426  -1.204  53.529  1.00  0.00     0.174 C 
HETATM   30  C1  UNL     1      28.969  -2.550  53.109  1.00  0.00     0.034 C 
ENDBRANCH  28  29
ENDBRANCH  26  28
ENDBRANCH   1  26
TORSDOF 4
ENDMDL
MODEL 3
REMARK VINA RESULT:      -8.6      4.681      6.587
REMARK  4 active torsions:
REMARK  status: ('A' for Active; 'I' for Inactive)
REMARK    1  A    between atoms: C2_2  and  O1_3 
REMARK    2  A    between atoms: O1_3  and  C3_4 
REMARK    3  A    between atoms: C3_4  and  C4_6 
REMARK    4  A    between atoms: N3_21  and  N4_22 
ROOT
HETATM    1  C4  UNL     1      26.034   1.463  52.224  1.00  0.00     0.041 A 
HETATM    2  C5  UNL     1      25.793   2.143  51.049  1.00  0.00     0.018 A 
HETATM    3  C6  UNL     1      24.513   2.379  50.625  1.00  0.00     0.016 A 
HETATM    4  C7  UNL     1      23.595   1.883  51.479  1.00  0.00     0.014 A 
HETATM    5  C8  UNL     1      23.719   1.202  52.660  1.00  0.00     0.060 A 
HETATM    6  C9  UNL     1      25.021   0.995  53.029  1.00  0.00     0.049 A 
HETATM    7  N1  UNL     1      22.742   0.685  53.535  1.00  0.00    -0.299 N 
HETATM    8  N2  UNL     1      21.363   0.754  53.689  1.00  0.00    -0.298 N 
HETATM    9  C10 UNL     1      20.048   0.425  53.165  1.00  0.00     0.077 A 
HETATM   10  C11 UNL     1      19.503  -0.800  53.468  1.00  0.00     0.052 A 
HETATM   11  C12 UNL     1      18.250  -1.255  53.011  1.00  0.00     0.013 A 
HETATM   12 BR1  UNL     1      17.615  -2.979  53.487  1.00  0.00    -0.051 Br
HETATM   13  C13 UNL     1      17.627  -0.329  52.224  1.00  0.00     0.021 A 
HETATM   14  C14 UNL     1      18.106   0.933  51.869  1.00  0.00     0.035 A 
HETATM   15  C15 UNL     1      19.364   1.311  52.363  1.00  0.00     0.078 A 
HETATM   16  N3  UNL     1      19.668   2.615  51.888  1.00  0.00    -0.287 N 
HETATM   17  C16 UNL     1      20.991   2.303  51.629  1.00  0.00     0.134 C 
HETATM   18  C17 UNL     1      22.170   1.944  51.249  1.00  0.00     0.074 C 
HETATM   19  C18 UNL     1      21.843   1.398  49.980  1.00  0.00     0.102 C 
HETATM   20  N5  UNL     1      21.558   0.957  48.928  1.00  0.00    -0.191 NA
HETATM   21  H9  UNL     1      23.004   0.072  54.331  1.00  0.00     0.187 HD
HETATM   22  H10 UNL     1      20.879   1.198  54.523  1.00  0.00     0.187 HD
ENDROOT
BRANCH  16  23
HETATM   23  N4  UNL     1      18.916   3.733  51.736  1.00  0.00    -0.243 NA
HETATM   24  H14 UNL     1      19.161   4.545  52.306  1.00  0.00     0.143 HD
HETATM   25  H15 UNL     1      18.880   4.008  50.742  1.00  0.00     0.143 HD
ENDBRANCH  16  23
BRANCH   1  26
HETATM   26  C3  UNL     1      27.437   1.203  52.653  1.00  0.00     0.293 C 
HETATM   27  O2  UNL     1      28.255   2.153  52.733  1.00  0.00    -0.259 OA
BRANCH  26  28
HETATM   28  O1  UNL     1      27.824  -0.097  52.957  1.00  0.00    -0.318 OA
BRANCH  28  29
HETATM   29  C2  UNL     1      28.626  -0.345  54.120  1.00  0.00     0.174 C 
HETATM   30  C1  UNL     1      29.953  -0.923  53.803  1.00  0.00     0.034 C 
ENDBRANCH  28  29
ENDBRANCH  26  28
ENDBRANCH   1  26
TORSDOF 4
ENDMDL
MODEL 4
REMARK VINA RESULT:      -8.2      4.870      6.896
REMARK  4 active torsions:
REMARK  status: ('A' for Active; 'I' for Inactive)
REMARK    1  A    between atoms: C2_2  and  O1_3 
REMARK    2  A    between atoms: O1_3  and  C3_4 
REMARK    3  A    between atoms: C3_4  and  C4_6 
REMARK    4  A    between atoms: N3_21  and  N4_22 
ROOT
HETATM    1  C4  UNL     1      30.304   6.281  47.519  1.00  0.00     0.041 A 
HETATM    2  C5  UNL     1      29.862   7.574  47.335  1.00  0.00     0.018 A 
HETATM    3  C6  UNL     1      28.605   7.948  47.728  1.00  0.00     0.016 A 
HETATM    4  C7  UNL     1      27.921   6.928  48.286  1.00  0.00     0.014 A 
HETATM    5  C8  UNL     1      28.258   5.622  48.519  1.00  0.00     0.060 A 
HETATM    6  C9  UNL     1      29.524   5.308  48.102  1.00  0.00     0.049 A 
HETATM    7  N1  UNL     1      27.523   4.568  49.098  1.00  0.00    -0.299 N 
HETATM    8  N2  UNL     1      26.323   4.407  49.779  1.00  0.00    -0.298 N 
HETATM    9  C10 UNL     1      24.870   4.453  49.740  1.00  0.00     0.077 A 
HETATM   10  C11 UNL     1      24.185   3.341  49.316  1.00  0.00     0.052 A 
HETATM   11  C12 UNL     1      22.782   3.254  49.211  1.00  0.00     0.013 A 
HETATM   12 BR1  UNL     1      21.954   1.663  48.593  1.00  0.00    -0.051 Br
HETATM   13  C13 UNL     1      22.170   4.417  49.585  1.00  0.00     0.021 A 
HETATM   14  C14 UNL     1      22.788   5.588  50.028  1.00  0.00     0.035 A 
HETATM   15  C15 UNL     1      24.190   5.594  50.102  1.00  0.00     0.078 A 
HETATM   16  N3  UNL     1      24.617   6.867  50.566  1.00  0.00    -0.287 N 
HETATM   17  C16 UNL     1      25.676   6.928  49.678  1.00  0.00     0.134 C 
HETATM   18  C17 UNL     1      26.554   7.031  48.738  1.00  0.00     0.074 C 
HETATM   19  C18 UNL     1      25.718   7.525  47.701  1.00  0.00     0.102 C 
HETATM   20  N5  UNL     1      25.016   7.942  46.856  1.00  0.00    -0.191 NA
HETATM   21  H9  UNL     1      27.879   3.592  49.081  1.00  0.00     0.187 HD
HETATM   22  H10 UNL     1      26.249   4.092  50.790  1.00  0.00     0.187 HD
ENDROOT
BRANCH  16  23
HETATM   23  N4  UNL     1      24.136   7.704  51.518  1.00  0.00    -0.243 NA
HETATM   24  H14 UNL     1      23.496   8.442  51.215  1.00  0.00     0.143 HD
HETATM   25  H15 UNL     1      23.702   7.164  52.283  1.00  0.00     0.143 HD
ENDBRANCH  16  23
BRANCH   1  26
HETATM   26  C3  UNL     1      31.670   5.896  47.066  1.00  0.00     0.293 C 
HETATM   27  O2  UNL     1      32.145   6.392  46.014  1.00  0.00    -0.259 OA
BRANCH  26  28
HETATM   28  O1  UNL     1      32.403   4.985  47.817  1.00  0.00    -0.318 OA
BRANCH  28  29
HETATM   29  C2  UNL     1      33.004   3.854  47.172  1.00  0.00     0.174 C 
HETATM   30  C1  UNL     1      32.017   2.953  46.534  1.00  0.00     0.034 C 
ENDBRANCH  28  29
ENDBRANCH  26  28
ENDBRANCH   1  26
TORSDOF 4
ENDMDL
MODEL 5
REMARK VINA RESULT:      -7.8      5.529      7.517
REMARK  4 active torsions:
REMARK  status: ('A' for Active; 'I' for Inactive)
REMARK    1  A    between atoms: C2_2  and  O1_3 
REMARK    2  A    between atoms: O1_3  and  C3_4 
REMARK    3  A    between atoms: C3_4  and  C4_6 
REMARK    4  A    between atoms: N3_21  and  N4_22 
ROOT
HETATM    1  C4  UNL     1      31.866   5.682  47.030  1.00  0.00     0.041 A 
HETATM    2  C5  UNL     1      32.033   7.034  46.820  1.00  0.00     0.018 A 
HETATM    3  C6  UNL     1      31.068   7.928  47.198  1.00  0.00     0.016 A 
HETATM    4  C7  UNL     1      30.009   7.321  47.772  1.00  0.00     0.014 A 
HETATM    5  C8  UNL     1      29.740   6.004  48.030  1.00  0.00     0.060 A 
HETATM    6  C9  UNL     1      30.741   5.160  47.627  1.00  0.00     0.049 A 
HETATM    7  N1  UNL     1      28.621   5.388  48.626  1.00  0.00    -0.299 N 
HETATM    8  N2  UNL     1      27.473   5.782  49.302  1.00  0.00    -0.298 N 
HETATM    9  C10 UNL     1      26.187   6.458  49.256  1.00  0.00     0.077 A 
HETATM   10  C11 UNL     1      25.083   5.750  48.848  1.00  0.00     0.052 A 
HETATM   11  C12 UNL     1      23.783   6.284  48.738  1.00  0.00     0.013 A 
HETATM   12 BR1  UNL     1      22.340   5.204  48.145  1.00  0.00    -0.051 Br
HETATM   13  C13 UNL     1      23.743   7.604  49.086  1.00  0.00     0.021 A 
HETATM   14  C14 UNL     1      24.813   8.395  49.511  1.00  0.00     0.035 A 
HETATM   15  C15 UNL     1      26.075   7.788  49.593  1.00  0.00     0.078 A 
HETATM   16  N3  UNL     1      27.018   8.755  50.034  1.00  0.00    -0.287 N 
HETATM   17  C16 UNL     1      27.994   8.329  49.152  1.00  0.00     0.134 C 
HETATM   18  C17 UNL     1      28.825   8.020  48.215  1.00  0.00     0.074 C 
HETATM   19  C18 UNL     1      28.287   8.810  47.164  1.00  0.00     0.102 C 
HETATM   20  N5  UNL     1      27.835   9.476  46.307  1.00  0.00    -0.191 NA
HETATM   21  H9  UNL     1      28.513   4.356  48.629  1.00  0.00     0.187 HD
HETATM   22  H10 UNL     1      27.272   5.550  50.319  1.00  0.00     0.187 HD
ENDROOT
BRANCH  16  23
HETATM   23  N4  UNL     1      26.955   9.736  50.968  1.00  0.00    -0.243 NA
HETATM   24  H14 UNL     1      26.052  10.195  51.108  1.00  0.00     0.143 HD
HETATM   25  H15 UNL     1      27.310   9.392  51.874  1.00  0.00     0.143 HD
ENDBRANCH  16  23
BRANCH   1  26
HETATM   26  C3  UNL     1      32.924   4.730  46.591  1.00  0.00     0.293 C 
HETATM   27  O2  UNL     1      33.480   4.880  45.475  1.00  0.00    -0.259 OA
BRANCH  26  28
HETATM   28  O1  UNL     1      33.282   3.679  47.428  1.00  0.00    -0.318 OA
BRANCH  28  29
HETATM   29  C2  UNL     1      33.587   2.396  46.865  1.00  0.00     0.174 C 
HETATM   30  C1  UNL     1      32.441   1.456  46.898  1.00  0.00     0.034 C 
ENDBRANCH  28  29
ENDBRANCH  26  28
ENDBRANCH   1  26
TORSDOF 4
ENDMDL
MODEL 6
REMARK VINA RESULT:      -7.7      5.052      6.587
REMARK  4 active torsions:
REMARK  status: ('A' for Active; 'I' for Inactive)
REMARK    1  A    between atoms: C2_2  and  O1_3 
REMARK    2  A    between atoms: O1_3  and  C3_4 
REMARK    3  A    between atoms: C3_4  and  C4_6 
REMARK    4  A    between atoms: N3_21  and  N4_22 
ROOT
HETATM    1  C4  UNL     1      24.630  -0.003  53.422  1.00  0.00     0.041 A 
HETATM    2  C5  UNL     1      25.060   0.797  52.385  1.00  0.00     0.018 A 
HETATM    3  C6  UNL     1      24.161   1.441  51.577  1.00  0.00     0.016 A 
HETATM    4  C7  UNL     1      22.885   1.190  51.934  1.00  0.00     0.014 A 
HETATM    5  C8  UNL     1      22.350   0.423  52.935  1.00  0.00     0.060 A 
HETATM    6  C9  UNL     1      23.298  -0.196  53.705  1.00  0.00     0.049 A 
HETATM    7  N1  UNL     1      21.009   0.168  53.286  1.00  0.00    -0.299 N 
HETATM    8  N2  UNL     1      19.750   0.643  52.941  1.00  0.00    -0.298 N 
HETATM    9  C10 UNL     1      18.717   0.767  51.925  1.00  0.00     0.077 A 
HETATM   10  C11 UNL     1      17.807  -0.252  51.781  1.00  0.00     0.052 A 
HETATM   11  C12 UNL     1      16.769  -0.272  50.827  1.00  0.00     0.013 A 
HETATM   12 BR1  UNL     1      15.583  -1.749  50.718  1.00  0.00    -0.051 Br
HETATM   13  C13 UNL     1      16.769   0.852  50.051  1.00  0.00     0.021 A 
HETATM   14  C14 UNL     1      17.653   1.930  50.131  1.00  0.00     0.035 A 
HETATM   15  C15 UNL     1      18.660   1.872  51.107  1.00  0.00     0.078 A 
HETATM   16  N3  UNL     1      19.447   3.051  51.020  1.00  0.00    -0.287 N 
HETATM   17  C16 UNL     1      20.637   2.371  51.206  1.00  0.00     0.134 C 
HETATM   18  C17 UNL     1      21.737   1.697  51.220  1.00  0.00     0.074 C 
HETATM   19  C18 UNL     1      21.817   1.366  49.841  1.00  0.00     0.102 C 
HETATM   20  N5  UNL     1      21.875   1.107  48.696  1.00  0.00    -0.191 NA
HETATM   21  H9  UNL     1      20.767  -0.549  53.997  1.00  0.00     0.187 HD
HETATM   22  H10 UNL     1      19.102   1.155  53.609  1.00  0.00     0.187 HD
ENDROOT
BRANCH  16  23
HETATM   23  N4  UNL     1      19.128   4.353  50.813  1.00  0.00    -0.243 NA
HETATM   24  H14 UNL     1      18.207   4.667  51.127  1.00  0.00     0.143 HD
HETATM   25  H15 UNL     1      19.855   4.967  51.211  1.00  0.00     0.143 HD
ENDBRANCH  16  23
BRANCH   1  26
HETATM   26  C3  UNL     1      25.629  -0.707  54.274  1.00  0.00     0.293 C 
HETATM   27  O2  UNL     1      25.272  -1.229  55.359  1.00  0.00    -0.259 OA
BRANCH  26  28
HETATM   28  O1  UNL     1      26.953  -0.774  53.855  1.00  0.00    -0.318 OA
BRANCH  28  29
HETATM   29  C2  UNL     1      27.955  -0.014  54.544  1.00  0.00     0.174 C 
HETATM   30  C1  UNL     1      29.044   0.457  53.656  1.00  0.00     0.034 C 
ENDBRANCH  28  29
ENDBRANCH  26  28
ENDBRANCH   1  26
TORSDOF 4
ENDMDL
MODEL 7
REMARK VINA RESULT:      -7.5      6.325      7.866
REMARK  4 active torsions:
REMARK  status: ('A' for Active; 'I' for Inactive)
REMARK    1  A    between atoms: C2_2  and  O1_3 
REMARK    2  A    between atoms: O1_3  and  C3_4 
REMARK    3  A    between atoms: C3_4  and  C4_6 
REMARK    4  A    between atoms: N3_21  and  N4_22 
ROOT
HETATM    1  C4  UNL     1      22.853   1.769  52.675  1.00  0.00     0.041 A 
HETATM    2  C5  UNL     1      22.761   0.395  52.613  1.00  0.00     0.018 A 
HETATM    3  C6  UNL     1      21.585  -0.215  52.267  1.00  0.00     0.016 A 
HETATM    4  C7  UNL     1      20.606   0.677  52.010  1.00  0.00     0.014 A 
HETATM    5  C8  UNL     1      20.587   2.046  52.038  1.00  0.00     0.060 A 
HETATM    6  C9  UNL     1      21.790   2.595  52.393  1.00  0.00     0.049 A 
HETATM    7  N1  UNL     1      19.548   2.960  51.772  1.00  0.00    -0.299 N 
HETATM    8  N2  UNL     1      18.257   2.926  51.257  1.00  0.00    -0.298 N 
HETATM    9  C10 UNL     1      16.879   2.495  51.419  1.00  0.00     0.077 A 
HETATM   10  C11 UNL     1      16.018   3.290  52.137  1.00  0.00     0.052 A 
HETATM   11  C12 UNL     1      14.665   2.984  52.388  1.00  0.00     0.013 A 
HETATM   12 BR1  UNL     1      13.582   4.159  53.412  1.00  0.00    -0.051 Br
HETATM   13  C13 UNL     1      14.298   1.794  51.828  1.00  0.00     0.021 A 
HETATM   14  C14 UNL     1      15.106   0.929  51.085  1.00  0.00     0.035 A 
HETATM   15  C15 UNL     1      16.443   1.305  50.882  1.00  0.00     0.078 A 
HETATM   16  N3  UNL     1      17.087   0.298  50.115  1.00  0.00    -0.287 N 
HETATM   17  C16 UNL     1      18.248   0.351  50.866  1.00  0.00     0.134 C 
HETATM   18  C17 UNL     1      19.251   0.307  51.675  1.00  0.00     0.074 C 
HETATM   19  C18 UNL     1      18.715  -0.574  52.652  1.00  0.00     0.102 C 
HETATM   20  N5  UNL     1      18.262  -1.311  53.448  1.00  0.00    -0.191 NA
HETATM   21  H9  UNL     1      19.660   3.973  51.968  1.00  0.00     0.187 HD
HETATM   22  H10 UNL     1      17.966   3.394  50.350  1.00  0.00     0.187 HD
ENDROOT
BRANCH  16  23
HETATM   23  N4  UNL     1      16.685  -0.442  49.052  1.00  0.00    -0.243 NA
HETATM   24  H14 UNL     1      15.744  -0.838  49.084  1.00  0.00     0.143 HD
HETATM   25  H15 UNL     1      16.804   0.093  48.178  1.00  0.00     0.143 HD
ENDBRANCH  16  23
BRANCH   1  26
HETATM   26  C3  UNL     1      24.140   2.406  53.073  1.00  0.00     0.293 C 
HETATM   27  O2  UNL     1      24.265   3.655  53.019  1.00  0.00    -0.259 OA
BRANCH  26  28
HETATM   28  O1  UNL     1      25.192   1.604  53.499  1.00  0.00    -0.318 OA
BRANCH  28  29
HETATM   29  C2  UNL     1      26.380   1.507  52.702  1.00  0.00     0.174 C 
HETATM   30  C1  UNL     1      26.490   0.223  51.971  1.00  0.00     0.034 C 
ENDBRANCH  28  29
ENDBRANCH  26  28
ENDBRANCH   1  26
TORSDOF 4
ENDMDL
MODEL 8
REMARK VINA RESULT:      -7.3      3.691      5.434
REMARK  4 active torsions:
REMARK  status: ('A' for Active; 'I' for Inactive)
REMARK    1  A    between atoms: C2_2  and  O1_3 
REMARK    2  A    between atoms: O1_3  and  C3_4 
REMARK    3  A    between atoms: C3_4  and  C4_6 
REMARK    4  A    between atoms: N3_21  and  N4_22 
ROOT
HETATM    1  C4  UNL     1      24.209   4.626  51.036  1.00  0.00     0.041 A 
HETATM    2  C5  UNL     1      23.729   5.918  50.990  1.00  0.00     0.018 A 
HETATM    3  C6  UNL     1      24.407   6.895  50.312  1.00  0.00     0.016 A 
HETATM    4  C7  UNL     1      25.532   6.426  49.734  1.00  0.00     0.014 A 
HETATM    5  C8  UNL     1      26.097   5.179  49.712  1.00  0.00     0.060 A 
HETATM    6  C9  UNL     1      25.374   4.248  50.410  1.00  0.00     0.049 A 
HETATM    7  N1  UNL     1      27.280   4.711  49.107  1.00  0.00    -0.299 N 
HETATM    8  N2  UNL     1      28.234   5.187  48.216  1.00  0.00    -0.298 N 
HETATM    9  C10 UNL     1      29.311   6.127  47.950  1.00  0.00     0.077 A 
HETATM   10  C11 UNL     1      30.587   5.796  48.339  1.00  0.00     0.052 A 
HETATM   11  C12 UNL     1      31.718   6.619  48.162  1.00  0.00     0.013 A 
HETATM   12 BR1  UNL     1      33.428   6.054  48.759  1.00  0.00    -0.051 Br
HETATM   13  C13 UNL     1      31.399   7.799  47.552  1.00  0.00     0.021 A 
HETATM   14  C14 UNL     1      30.135   8.212  47.126  1.00  0.00     0.035 A 
HETATM   15  C15 UNL     1      29.060   7.335  47.340  1.00  0.00     0.078 A 
HETATM   16  N3  UNL     1      27.874   7.938  46.845  1.00  0.00    -0.287 N 
HETATM   17  C16 UNL     1      27.111   7.518  47.919  1.00  0.00     0.134 C 
HETATM   18  C17 UNL     1      26.464   7.253  49.003  1.00  0.00     0.074 C 
HETATM   19  C18 UNL     1      26.875   8.362  49.789  1.00  0.00     0.102 C 
HETATM   20  N5  UNL     1      27.217   9.290  50.425  1.00  0.00    -0.191 NA
HETATM   21  H9  UNL     1      27.640   3.756  49.298  1.00  0.00     0.187 HD
HETATM   22  H10 UNL     1      28.401   4.780  47.249  1.00  0.00     0.187 HD
ENDROOT
BRANCH  16  23
HETATM   23  N4  UNL     1      27.613   8.669  45.732  1.00  0.00    -0.243 NA
HETATM   24  H14 UNL     1      26.881   9.379  45.797  1.00  0.00     0.143 HD
HETATM   25  H15 UNL     1      28.481   9.100  45.376  1.00  0.00     0.143 HD
ENDBRANCH  16  23
BRANCH   1  26
HETATM   26  C3  UNL     1      23.461   3.587  51.797  1.00  0.00     0.293 C 
HETATM   27  O2  UNL     1      22.472   3.914  52.499  1.00  0.00    -0.259 OA
BRANCH  26  28
HETATM   28  O1  UNL     1      23.872   2.262  51.721  1.00  0.00    -0.318 OA
BRANCH  28  29
HETATM   29  C2  UNL     1      24.326   1.590  52.903  1.00  0.00     0.174 C 
HETATM   30  C1  UNL     1      25.489   2.249  53.540  1.00  0.00     0.034 C 
ENDBRANCH  28  29
ENDBRANCH  26  28
ENDBRANCH   1  26
TORSDOF 4
ENDMDL
MODEL 9
REMARK VINA RESULT:      -7.3      4.419      7.242
REMARK  4 active torsions:
REMARK  status: ('A' for Active; 'I' for Inactive)
REMARK    1  A    between atoms: C2_2  and  O1_3 
REMARK    2  A    between atoms: O1_3  and  C3_4 
REMARK    3  A    between atoms: C3_4  and  C4_6 
REMARK    4  A    between atoms: N3_21  and  N4_22 
ROOT
HETATM    1  C4  UNL     1      25.011   7.633  48.884  1.00  0.00     0.041 A 
HETATM    2  C5  UNL     1      23.974   7.364  48.015  1.00  0.00     0.018 A 
HETATM    3  C6  UNL     1      23.073   6.369  48.285  1.00  0.00     0.016 A 
HETATM    4  C7  UNL     1      23.338   5.745  49.451  1.00  0.00     0.014 A 
HETATM    5  C8  UNL     1      24.325   5.928  50.382  1.00  0.00     0.060 A 
HETATM    6  C9  UNL     1      25.195   6.934  50.055  1.00  0.00     0.049 A 
HETATM    7  N1  UNL     1      24.588   5.258  51.593  1.00  0.00    -0.299 N 
HETATM    8  N2  UNL     1      23.960   4.323  52.406  1.00  0.00    -0.298 N 
HETATM    9  C10 UNL     1      23.488   2.958  52.575  1.00  0.00     0.077 A 
HETATM   10  C11 UNL     1      24.366   2.009  53.039  1.00  0.00     0.052 A 
HETATM   11  C12 UNL     1      24.048   0.648  53.231  1.00  0.00     0.013 A 
HETATM   12 BR1  UNL     1      25.358  -0.571  53.863  1.00  0.00    -0.051 Br
HETATM   13  C13 UNL     1      22.752   0.376  52.900  1.00  0.00     0.021 A 
HETATM   14  C14 UNL     1      21.797   1.277  52.425  1.00  0.00     0.035 A 
HETATM   15  C15 UNL     1      22.193   2.614  52.260  1.00  0.00     0.078 A 
HETATM   16  N3  UNL     1      21.088   3.359  51.767  1.00  0.00    -0.287 N 
HETATM   17  C16 UNL     1      21.864   4.081  50.878  1.00  0.00     0.134 C 
HETATM   18  C17 UNL     1      22.579   4.623  49.952  1.00  0.00     0.074 C 
HETATM   19  C18 UNL     1      22.506   3.592  48.977  1.00  0.00     0.102 C 
HETATM   20  N5  UNL     1      22.429   2.734  48.177  1.00  0.00    -0.191 NA
HETATM   21  H9  UNL     1      25.463   5.432  52.125  1.00  0.00     0.187 HD
HETATM   22  H10 UNL     1      23.622   4.522  53.393  1.00  0.00     0.187 HD
ENDROOT
BRANCH  16  23
HETATM   23  N4  UNL     1      19.765   3.339  52.063  1.00  0.00    -0.243 NA
HETATM   24  H14 UNL     1      19.110   3.275  51.281  1.00  0.00     0.143 HD
HETATM   25  H15 UNL     1      19.562   2.593  52.746  1.00  0.00     0.143 HD
ENDBRANCH  16  23
BRANCH   1  26
HETATM   26  C3  UNL     1      25.988   8.709  48.557  1.00  0.00     0.293 C 
HETATM   27  O2  UNL     1      25.595   9.894  48.423  1.00  0.00    -0.259 OA
BRANCH  26  28
HETATM   28  O1  UNL     1      27.330   8.383  48.401  1.00  0.00    -0.318 OA
BRANCH  28  29
HETATM   29  C2  UNL     1      27.706   7.334  47.498  1.00  0.00     0.174 C 
HETATM   30  C1  UNL     1      28.364   6.190  48.173  1.00  0.00     0.034 C 
ENDBRANCH  28  29
ENDBRANCH  26  28
ENDBRANCH   1  26
TORSDOF 4
ENDMDL
