MODEL 1
REMARK VINA RESULT:      -7.9      0.000      0.000
REMARK  5 active torsions:
REMARK  status: ('A' for Active; 'I' for Inactive)
REMARK    1  A    between atoms: N1_3  and  C3_4 
REMARK    2  A    between atoms: C9_12  and  C10_13 
REMARK    3  A    between atoms: C12_16  and  N4_17 
REMARK    4  A    between atoms: N4_17  and  S1_18 
REMARK    5  A    between atoms: S1_18  and  C13_21 
ROOT
HETATM    1  C1  UNL     1      22.674  -1.604  55.337  1.00  0.00     0.037 C 
HETATM    2  C2  UNL     1      22.125  -0.678  54.781  1.00  0.00    -0.000 C 
HETATM    3  N1  UNL     1      21.517   0.399  54.144  1.00  0.00    -0.314 N 
HETATM    4  H2  UNL     1      21.161   1.003  54.895  1.00  0.00     0.176 HD
ENDROOT
BRANCH   3   5
HETATM    5  C3  UNL     1      21.361   0.702  52.791  1.00  0.00     0.074 A 
HETATM    6  C4  UNL     1      20.249   0.343  52.064  1.00  0.00     0.090 A 
HETATM    7  C5  UNL     1      19.151  -0.383  52.655  1.00  0.00     0.103 C 
HETATM    8  C6  UNL     1      20.049   0.624  50.711  1.00  0.00     0.142 A 
HETATM    9  N2  UNL     1      18.255  -0.963  53.116  1.00  0.00    -0.191 NA
HETATM   10  N3  UNL     1      21.017   1.296  50.072  1.00  0.00    -0.259 NA
HETATM   11  C7  UNL     1      22.120   1.659  50.772  1.00  0.00     0.070 A 
HETATM   12  C8  UNL     1      23.056   2.349  50.009  1.00  0.00     0.048 A 
HETATM   13  C16 UNL     1      22.349   1.393  52.123  1.00  0.00     0.024 A 
HETATM   14  C9  UNL     1      24.177   2.723  50.699  1.00  0.00     0.014 A 
HETATM   15  C12 UNL     1      24.464   2.494  52.021  1.00  0.00     0.055 A 
HETATM   16  C15 UNL     1      23.508   1.809  52.731  1.00  0.00     0.047 A 
BRANCH  14  17
HETATM   17  C10 UNL     1      25.179   3.444  49.942  1.00  0.00     0.037 C 
HETATM   18  C11 UNL     1      24.836   4.530  49.299  1.00  0.00     0.037 C 
HETATM   19 CL1  UNL     1      26.778   3.702  49.342  1.00  0.00    -0.084 Cl
ENDBRANCH  14  17
BRANCH  15  20
HETATM   20  N4  UNL     1      25.681   2.953  52.587  1.00  0.00    -0.280 N 
HETATM   21  H7  UNL     1      25.907   3.943  52.752  1.00  0.00     0.179 HD
BRANCH  20  22
HETATM   22  S1  UNL     1      26.845   1.761  53.016  1.00  0.00     0.252 S 
HETATM   23  O1  UNL     1      28.207   2.291  52.648  1.00  0.00    -0.201 OA
HETATM   24  O2  UNL     1      26.842   1.608  54.510  1.00  0.00    -0.201 OA
BRANCH  22  25
HETATM   25  C13 UNL     1      26.546   0.240  52.218  1.00  0.00     0.121 C 
HETATM   26  C14 UNL     1      26.782  -1.052  52.392  1.00  0.00     0.025 C 
ENDBRANCH  22  25
ENDBRANCH  20  22
ENDBRANCH  15  20
ENDBRANCH   3   5
TORSDOF 5
ENDMDL
MODEL 2
REMARK VINA RESULT:      -7.7      2.749      5.250
REMARK  5 active torsions:
REMARK  status: ('A' for Active; 'I' for Inactive)
REMARK    1  A    between atoms: N1_3  and  C3_4 
REMARK    2  A    between atoms: C9_12  and  C10_13 
REMARK    3  A    between atoms: C12_16  and  N4_17 
REMARK    4  A    between atoms: N4_17  and  S1_18 
REMARK    5  A    between atoms: S1_18  and  C13_21 
ROOT
HETATM    1  C1  UNL     1      27.115   5.475  48.628  1.00  0.00     0.037 C 
HETATM    2  C2  UNL     1      26.242   5.201  49.422  1.00  0.00    -0.000 C 
HETATM    3  N1  UNL     1      25.225   4.902  50.323  1.00  0.00    -0.314 N 
HETATM    4  H2  UNL     1      25.311   5.591  51.080  1.00  0.00     0.176 HD
ENDROOT
BRANCH   3   5
HETATM    5  C3  UNL     1      24.243   3.911  50.310  1.00  0.00     0.074 A 
HETATM    6  C4  UNL     1      23.234   3.865  49.375  1.00  0.00     0.090 A 
HETATM    7  C5  UNL     1      23.117   4.851  48.328  1.00  0.00     0.103 C 
HETATM    8  C6  UNL     1      22.231   2.895  49.322  1.00  0.00     0.142 A 
HETATM    9  N2  UNL     1      23.010   5.634  47.475  1.00  0.00    -0.191 NA
HETATM   10  N3  UNL     1      22.255   1.934  50.256  1.00  0.00    -0.259 NA
HETATM   11  C7  UNL     1      23.241   1.962  51.186  1.00  0.00     0.070 A 
HETATM   12  C8  UNL     1      23.166   0.919  52.103  1.00  0.00     0.048 A 
HETATM   13  C16 UNL     1      24.256   2.917  51.265  1.00  0.00     0.024 A 
HETATM   14  C9  UNL     1      24.154   0.932  53.050  1.00  0.00     0.014 A 
HETATM   15  C12 UNL     1      25.177   1.837  53.184  1.00  0.00     0.055 A 
HETATM   16  C15 UNL     1      25.207   2.848  52.254  1.00  0.00     0.047 A 
BRANCH  14  17
HETATM   17  C10 UNL     1      24.114  -0.137  54.026  1.00  0.00     0.037 C 
HETATM   18  C11 UNL     1      23.013  -0.826  54.174  1.00  0.00     0.037 C 
HETATM   19 CL1  UNL     1      24.798  -1.134  55.259  1.00  0.00    -0.084 Cl
ENDBRANCH  14  17
BRANCH  15  20
HETATM   20  N4  UNL     1      26.126   1.706  54.229  1.00  0.00    -0.280 N 
HETATM   21  H7  UNL     1      25.938   1.931  55.215  1.00  0.00     0.179 HD
BRANCH  20  22
HETATM   22  S1  UNL     1      27.691   1.135  53.801  1.00  0.00     0.252 S 
HETATM   23  O1  UNL     1      28.442   2.276  53.166  1.00  0.00    -0.201 OA
HETATM   24  O2  UNL     1      28.434   0.790  55.061  1.00  0.00    -0.201 OA
BRANCH  22  25
HETATM   25  C13 UNL     1      27.614  -0.226  52.714  1.00  0.00     0.121 C 
HETATM   26  C14 UNL     1      27.315  -1.516  52.735  1.00  0.00     0.025 C 
ENDBRANCH  22  25
ENDBRANCH  20  22
ENDBRANCH  15  20
ENDBRANCH   3   5
TORSDOF 5
ENDMDL
MODEL 3
REMARK VINA RESULT:      -7.5      3.746      6.791
REMARK  5 active torsions:
REMARK  status: ('A' for Active; 'I' for Inactive)
REMARK    1  A    between atoms: N1_3  and  C3_4 
REMARK    2  A    between atoms: C9_12  and  C10_13 
REMARK    3  A    between atoms: C12_16  and  N4_17 
REMARK    4  A    between atoms: N4_17  and  S1_18 
REMARK    5  A    between atoms: S1_18  and  C13_21 
ROOT
HETATM    1  C1  UNL     1      26.473   3.289  49.677  1.00  0.00     0.037 C 
HETATM    2  C2  UNL     1      26.336   3.052  50.857  1.00  0.00    -0.000 C 
HETATM    3  N1  UNL     1      26.154   2.784  52.211  1.00  0.00    -0.314 N 
HETATM    4  H2  UNL     1      26.215   3.693  52.686  1.00  0.00     0.176 HD
ENDROOT
BRANCH   3   5
HETATM    5  C3  UNL     1      25.931   1.587  52.893  1.00  0.00     0.074 A 
HETATM    6  C4  UNL     1      26.942   0.849  53.465  1.00  0.00     0.090 A 
HETATM    7  C5  UNL     1      28.322   1.264  53.401  1.00  0.00     0.103 C 
HETATM    8  C6  UNL     1      26.767  -0.351  54.156  1.00  0.00     0.142 A 
HETATM    9  N2  UNL     1      29.439   1.586  53.362  1.00  0.00    -0.191 NA
HETATM   10  N3  UNL     1      25.516  -0.820  54.269  1.00  0.00    -0.259 NA
HETATM   11  C7  UNL     1      24.507  -0.107  53.712  1.00  0.00     0.070 A 
HETATM   12  C8  UNL     1      23.255  -0.687  53.890  1.00  0.00     0.048 A 
HETATM   13  C16 UNL     1      24.649   1.095  53.016  1.00  0.00     0.024 A 
HETATM   14  C9  UNL     1      22.225   0.019  53.334  1.00  0.00     0.014 A 
HETATM   15  C12 UNL     1      22.295   1.201  52.640  1.00  0.00     0.055 A 
HETATM   16  C15 UNL     1      23.553   1.733  52.491  1.00  0.00     0.047 A 
BRANCH  14  17
HETATM   17  C10 UNL     1      20.903  -0.550  53.495  1.00  0.00     0.037 C 
HETATM   18  C11 UNL     1      20.748  -1.598  54.261  1.00  0.00     0.037 C 
HETATM   19 CL1  UNL     1      19.202  -0.622  53.203  1.00  0.00    -0.084 Cl
ENDBRANCH  14  17
BRANCH  15  20
HETATM   20  N4  UNL     1      21.122   1.808  52.124  1.00  0.00    -0.280 N 
HETATM   21  H7  UNL     1      20.398   2.255  52.702  1.00  0.00     0.179 HD
BRANCH  20  22
HETATM   22  S1  UNL     1      20.910   1.783  50.417  1.00  0.00     0.252 S 
HETATM   23  O1  UNL     1      21.469   0.483  49.901  1.00  0.00    -0.201 OA
HETATM   24  O2  UNL     1      19.438   1.757  50.119  1.00  0.00    -0.201 OA
BRANCH  22  25
HETATM   25  C13 UNL     1      21.693   3.136  49.643  1.00  0.00     0.121 C 
HETATM   26  C14 UNL     1      22.788   3.402  48.946  1.00  0.00     0.025 C 
ENDBRANCH  22  25
ENDBRANCH  20  22
ENDBRANCH  15  20
ENDBRANCH   3   5
TORSDOF 5
ENDMDL
MODEL 4
REMARK VINA RESULT:      -7.5      2.677      5.074
REMARK  5 active torsions:
REMARK  status: ('A' for Active; 'I' for Inactive)
REMARK    1  A    between atoms: N1_3  and  C3_4 
REMARK    2  A    between atoms: C9_12  and  C10_13 
REMARK    3  A    between atoms: C12_16  and  N4_17 
REMARK    4  A    between atoms: N4_17  and  S1_18 
REMARK    5  A    between atoms: S1_18  and  C13_21 
ROOT
HETATM    1  C1  UNL     1      24.628   5.766  49.970  1.00  0.00     0.037 C 
HETATM    2  C2  UNL     1      24.425   4.612  49.664  1.00  0.00    -0.000 C 
HETATM    3  N1  UNL     1      24.203   3.279  49.333  1.00  0.00    -0.314 N 
HETATM    4  H2  UNL     1      25.042   2.975  48.823  1.00  0.00     0.176 HD
ENDROOT
BRANCH   3   5
HETATM    5  C3  UNL     1      23.122   2.433  49.584  1.00  0.00     0.074 A 
HETATM    6  C4  UNL     1      22.074   2.274  48.706  1.00  0.00     0.090 A 
HETATM    7  C5  UNL     1      22.016   2.979  47.448  1.00  0.00     0.103 C 
HETATM    8  C6  UNL     1      20.972   1.441  48.913  1.00  0.00     0.142 A 
HETATM    9  N2  UNL     1      21.955   3.536  46.430  1.00  0.00    -0.191 NA
HETATM   10  N3  UNL     1      20.935   0.743  50.057  1.00  0.00    -0.259 NA
HETATM   11  C7  UNL     1      21.959   0.886  50.933  1.00  0.00     0.070 A 
HETATM   12  C8  UNL     1      21.815   0.116  52.083  1.00  0.00     0.048 A 
HETATM   13  C16 UNL     1      23.072   1.709  50.756  1.00  0.00     0.024 A 
HETATM   14  C9  UNL     1      22.839   0.248  52.980  1.00  0.00     0.014 A 
HETATM   15  C12 UNL     1      23.957   1.036  52.868  1.00  0.00     0.055 A 
HETATM   16  C15 UNL     1      24.053   1.777  51.715  1.00  0.00     0.047 A 
BRANCH  14  17
HETATM   17  C10 UNL     1      22.729  -0.536  54.192  1.00  0.00     0.037 C 
HETATM   18  C11 UNL     1      21.543  -0.837  54.653  1.00  0.00     0.037 C 
HETATM   19 CL1  UNL     1      23.374  -1.407  55.538  1.00  0.00    -0.084 Cl
ENDBRANCH  14  17
BRANCH  15  20
HETATM   20  N4  UNL     1      24.932   1.059  53.897  1.00  0.00    -0.280 N 
HETATM   21  H7  UNL     1      24.829   1.571  54.783  1.00  0.00     0.179 HD
BRANCH  20  22
HETATM   22  S1  UNL     1      26.379   0.167  53.627  1.00  0.00     0.252 S 
HETATM   23  O1  UNL     1      26.754  -0.507  54.920  1.00  0.00    -0.201 OA
HETATM   24  O2  UNL     1      26.084  -0.933  52.647  1.00  0.00    -0.201 OA
BRANCH  22  25
HETATM   25  C13 UNL     1      27.679   1.186  53.068  1.00  0.00     0.121 C 
HETATM   26  C14 UNL     1      28.313   2.294  53.422  1.00  0.00     0.025 C 
ENDBRANCH  22  25
ENDBRANCH  20  22
ENDBRANCH  15  20
ENDBRANCH   3   5
TORSDOF 5
ENDMDL
MODEL 5
REMARK VINA RESULT:      -7.4      4.235      6.899
REMARK  5 active torsions:
REMARK  status: ('A' for Active; 'I' for Inactive)
REMARK    1  A    between atoms: N1_3  and  C3_4 
REMARK    2  A    between atoms: C9_12  and  C10_13 
REMARK    3  A    between atoms: C12_16  and  N4_17 
REMARK    4  A    between atoms: N4_17  and  S1_18 
REMARK    5  A    between atoms: S1_18  and  C13_21 
ROOT
HETATM    1  C1  UNL     1      24.618   3.245  51.917  1.00  0.00     0.037 C 
HETATM    2  C2  UNL     1      24.509   2.052  52.097  1.00  0.00    -0.000 C 
HETATM    3  N1  UNL     1      24.406   0.682  52.316  1.00  0.00    -0.314 N 
HETATM    4  H2  UNL     1      24.950   0.238  51.566  1.00  0.00     0.176 HD
ENDROOT
BRANCH   3   5
HETATM    5  C3  UNL     1      23.739  -0.047  53.301  1.00  0.00     0.074 A 
HETATM    6  C4  UNL     1      24.375  -0.589  54.395  1.00  0.00     0.090 A 
HETATM    7  C5  UNL     1      25.795  -0.440  54.604  1.00  0.00     0.103 C 
HETATM    8  C6  UNL     1      23.751  -1.324  55.404  1.00  0.00     0.142 A 
HETATM    9  N2  UNL     1      26.937  -0.327  54.791  1.00  0.00    -0.191 NA
HETATM   10  N3  UNL     1      22.429  -1.517  55.298  1.00  0.00    -0.259 NA
HETATM   11  C7  UNL     1      21.785  -0.991  54.227  1.00  0.00     0.070 A 
HETATM   12  C8  UNL     1      20.418  -1.253  54.220  1.00  0.00     0.048 A 
HETATM   13  C16 UNL     1      22.380  -0.252  53.203  1.00  0.00     0.024 A 
HETATM   14  C9  UNL     1      19.752  -0.730  53.146  1.00  0.00     0.014 A 
HETATM   15  C12 UNL     1      20.273   0.002  52.109  1.00  0.00     0.055 A 
HETATM   16  C15 UNL     1      21.627   0.234  52.162  1.00  0.00     0.047 A 
BRANCH  14  17
HETATM   17  C10 UNL     1      18.327  -0.980  53.098  1.00  0.00     0.037 C 
HETATM   18  C11 UNL     1      17.865  -2.132  53.511  1.00  0.00     0.037 C 
HETATM   19 CL1  UNL     1      16.689  -0.549  52.757  1.00  0.00    -0.084 Cl
ENDBRANCH  14  17
BRANCH  15  20
HETATM   20  N4  UNL     1      19.438   0.474  51.065  1.00  0.00    -0.280 N 
HETATM   21  H7  UNL     1      18.986  -0.130  50.365  1.00  0.00     0.179 HD
BRANCH  20  22
HETATM   22  S1  UNL     1      19.178   2.172  50.975  1.00  0.00     0.252 S 
HETATM   23  O1  UNL     1      17.748   2.399  50.558  1.00  0.00    -0.201 OA
HETATM   24  O2  UNL     1      19.310   2.748  52.357  1.00  0.00    -0.201 OA
BRANCH  22  25
HETATM   25  C13 UNL     1      20.271   2.943  49.857  1.00  0.00     0.121 C 
HETATM   26  C14 UNL     1      21.571   3.139  49.693  1.00  0.00     0.025 C 
ENDBRANCH  22  25
ENDBRANCH  20  22
ENDBRANCH  15  20
ENDBRANCH   3   5
TORSDOF 5
ENDMDL
MODEL 6
REMARK VINA RESULT:      -7.4      2.842      5.340
REMARK  5 active torsions:
REMARK  status: ('A' for Active; 'I' for Inactive)
REMARK    1  A    between atoms: N1_3  and  C3_4 
REMARK    2  A    between atoms: C9_12  and  C10_13 
REMARK    3  A    between atoms: C12_16  and  N4_17 
REMARK    4  A    between atoms: N4_17  and  S1_18 
REMARK    5  A    between atoms: S1_18  and  C13_21 
ROOT
HETATM    1  C1  UNL     1      26.814   5.194  49.211  1.00  0.00     0.037 C 
HETATM    2  C2  UNL     1      26.066   4.256  49.382  1.00  0.00    -0.000 C 
HETATM    3  N1  UNL     1      25.219   3.174  49.600  1.00  0.00    -0.314 N 
HETATM    4  H2  UNL     1      25.707   2.356  49.215  1.00  0.00     0.176 HD
ENDROOT
BRANCH   3   5
HETATM    5  C3  UNL     1      23.962   3.092  50.199  1.00  0.00     0.074 A 
HETATM    6  C4  UNL     1      22.899   3.881  49.824  1.00  0.00     0.090 A 
HETATM    7  C5  UNL     1      23.008   4.862  48.771  1.00  0.00     0.103 C 
HETATM    8  C6  UNL     1      21.624   3.836  50.393  1.00  0.00     0.142 A 
HETATM    9  N2  UNL     1      23.078   5.653  47.923  1.00  0.00    -0.191 NA
HETATM   10  N3  UNL     1      21.423   2.954  51.382  1.00  0.00    -0.259 NA
HETATM   11  C7  UNL     1      22.459   2.168  51.766  1.00  0.00     0.070 A 
HETATM   12  C8  UNL     1      22.137   1.293  52.799  1.00  0.00     0.048 A 
HETATM   13  C16 UNL     1      23.743   2.190  51.218  1.00  0.00     0.024 A 
HETATM   14  C9  UNL     1      23.170   0.493  53.200  1.00  0.00     0.014 A 
HETATM   15  C12 UNL     1      24.451   0.463  52.706  1.00  0.00     0.055 A 
HETATM   16  C15 UNL     1      24.718   1.345  51.687  1.00  0.00     0.047 A 
BRANCH  14  17
HETATM   17  C10 UNL     1      22.879  -0.433  54.274  1.00  0.00     0.037 C 
HETATM   18  C11 UNL     1      21.634  -0.744  54.530  1.00  0.00     0.037 C 
HETATM   19 CL1  UNL     1      23.315  -1.491  55.569  1.00  0.00    -0.084 Cl
ENDBRANCH  14  17
BRANCH  15  20
HETATM   20  N4  UNL     1      25.410  -0.435  53.237  1.00  0.00    -0.280 N 
HETATM   21  H7  UNL     1      25.432  -1.445  53.038  1.00  0.00     0.179 HD
BRANCH  20  22
HETATM   22  S1  UNL     1      26.607   0.222  54.283  1.00  0.00     0.252 S 
HETATM   23  O1  UNL     1      26.248   1.660  54.551  1.00  0.00    -0.201 OA
HETATM   24  O2  UNL     1      26.526  -0.486  55.605  1.00  0.00    -0.201 OA
BRANCH  22  25
HETATM   25  C13 UNL     1      28.207   0.109  53.597  1.00  0.00     0.121 C 
HETATM   26  C14 UNL     1      29.363  -0.492  53.832  1.00  0.00     0.025 C 
ENDBRANCH  22  25
ENDBRANCH  20  22
ENDBRANCH  15  20
ENDBRANCH   3   5
TORSDOF 5
ENDMDL
MODEL 7
REMARK VINA RESULT:      -7.3      3.121      5.300
REMARK  5 active torsions:
REMARK  status: ('A' for Active; 'I' for Inactive)
REMARK    1  A    between atoms: N1_3  and  C3_4 
REMARK    2  A    between atoms: C9_12  and  C10_13 
REMARK    3  A    between atoms: C12_16  and  N4_17 
REMARK    4  A    between atoms: N4_17  and  S1_18 
REMARK    5  A    between atoms: S1_18  and  C13_21 
ROOT
HETATM    1  C1  UNL     1      25.648   7.343  50.048  1.00  0.00     0.037 C 
HETATM    2  C2  UNL     1      24.959   6.831  50.903  1.00  0.00    -0.000 C 
HETATM    3  N1  UNL     1      24.153   6.262  51.884  1.00  0.00    -0.314 N 
HETATM    4  H2  UNL     1      24.449   6.688  52.771  1.00  0.00     0.176 HD
ENDROOT
BRANCH   3   5
HETATM    5  C3  UNL     1      23.133   5.313  51.803  1.00  0.00     0.074 A 
HETATM    6  C4  UNL     1      21.893   5.586  51.272  1.00  0.00     0.090 A 
HETATM    7  C5  UNL     1      21.553   6.890  50.754  1.00  0.00     0.103 C 
HETATM    8  C6  UNL     1      20.843   4.671  51.170  1.00  0.00     0.142 A 
HETATM    9  N2  UNL     1      21.264   7.932  50.328  1.00  0.00    -0.191 NA
HETATM   10  N3  UNL     1      21.062   3.430  51.626  1.00  0.00    -0.259 NA
HETATM   11  C7  UNL     1      22.278   3.142  52.153  1.00  0.00     0.070 A 
HETATM   12  C8  UNL     1      22.392   1.827  52.595  1.00  0.00     0.048 A 
HETATM   13  C16 UNL     1      23.346   4.033  52.269  1.00  0.00     0.024 A 
HETATM   14  C9  UNL     1      23.612   1.519  53.130  1.00  0.00     0.014 A 
HETATM   15  C12 UNL     1      24.700   2.344  53.274  1.00  0.00     0.055 A 
HETATM   16  C15 UNL     1      24.536   3.631  52.822  1.00  0.00     0.047 A 
BRANCH  14  17
HETATM   17  C10 UNL     1      23.774   0.160  53.603  1.00  0.00     0.037 C 
HETATM   18  C11 UNL     1      23.102  -0.802  53.027  1.00  0.00     0.037 C 
HETATM   19 CL1  UNL     1      24.448  -1.051  54.635  1.00  0.00    -0.084 Cl
ENDBRANCH  14  17
BRANCH  15  20
HETATM   20  N4  UNL     1      25.901   1.863  53.854  1.00  0.00    -0.280 N 
HETATM   21  H7  UNL     1      26.073   1.807  54.867  1.00  0.00     0.179 HD
BRANCH  20  22
HETATM   22  S1  UNL     1      27.141   1.347  52.779  1.00  0.00     0.252 S 
HETATM   23  O1  UNL     1      26.481   0.692  51.593  1.00  0.00    -0.201 OA
HETATM   24  O2  UNL     1      27.848   2.562  52.249  1.00  0.00    -0.201 OA
BRANCH  22  25
HETATM   25  C13 UNL     1      28.253   0.246  53.546  1.00  0.00     0.121 C 
HETATM   26  C14 UNL     1      29.558   0.060  53.675  1.00  0.00     0.025 C 
ENDBRANCH  22  25
ENDBRANCH  20  22
ENDBRANCH  15  20
ENDBRANCH   3   5
TORSDOF 5
ENDMDL
MODEL 8
REMARK VINA RESULT:      -7.2      2.578      3.743
REMARK  5 active torsions:
REMARK  status: ('A' for Active; 'I' for Inactive)
REMARK    1  A    between atoms: N1_3  and  C3_4 
REMARK    2  A    between atoms: C9_12  and  C10_13 
REMARK    3  A    between atoms: C12_16  and  N4_17 
REMARK    4  A    between atoms: N4_17  and  S1_18 
REMARK    5  A    between atoms: S1_18  and  C13_21 
ROOT
HETATM    1  C1  UNL     1      26.363  -0.351  52.266  1.00  0.00     0.037 C 
HETATM    2  C2  UNL     1      25.416  -0.019  52.945  1.00  0.00    -0.000 C 
HETATM    3  N1  UNL     1      24.338   0.384  53.727  1.00  0.00    -0.314 N 
HETATM    4  H2  UNL     1      24.638   0.258  54.702  1.00  0.00     0.176 HD
ENDROOT
BRANCH   3   5
HETATM    5  C3  UNL     1      23.078   0.871  53.380  1.00  0.00     0.074 A 
HETATM    6  C4  UNL     1      21.907   0.231  53.717  1.00  0.00     0.090 A 
HETATM    7  C5  UNL     1      21.897  -1.004  54.463  1.00  0.00     0.103 C 
HETATM    8  C6  UNL     1      20.625   0.679  53.392  1.00  0.00     0.142 A 
HETATM    9  N2  UNL     1      21.871  -1.997  55.066  1.00  0.00    -0.191 NA
HETATM   10  N3  UNL     1      20.529   1.822  52.697  1.00  0.00    -0.259 NA
HETATM   11  C7  UNL     1      21.672   2.466  52.356  1.00  0.00     0.070 A 
HETATM   12  C8  UNL     1      21.453   3.637  51.638  1.00  0.00     0.048 A 
HETATM   13  C16 UNL     1      22.967   2.045  52.666  1.00  0.00     0.024 A 
HETATM   14  C9  UNL     1      22.596   4.301  51.284  1.00  0.00     0.014 A 
HETATM   15  C12 UNL     1      23.893   3.943  51.555  1.00  0.00     0.055 A 
HETATM   16  C15 UNL     1      24.056   2.779  52.266  1.00  0.00     0.047 A 
BRANCH  14  17
HETATM   17  C10 UNL     1      22.414   5.526  50.534  1.00  0.00     0.037 C 
HETATM   18  C11 UNL     1      21.672   6.478  51.036  1.00  0.00     0.037 C 
HETATM   19 CL1  UNL     1      22.665   6.561  49.174  1.00  0.00    -0.084 Cl
ENDBRANCH  14  17
BRANCH  15  20
HETATM   20  N4  UNL     1      24.973   4.749  51.113  1.00  0.00    -0.280 N 
HETATM   21  H7  UNL     1      25.174   5.694  51.467  1.00  0.00     0.179 HD
BRANCH  20  22
HETATM   22  S1  UNL     1      26.003   4.088  49.905  1.00  0.00     0.252 S 
HETATM   23  O1  UNL     1      26.995   3.183  50.588  1.00  0.00    -0.201 OA
HETATM   24  O2  UNL     1      25.180   3.209  49.006  1.00  0.00    -0.201 OA
BRANCH  22  25
HETATM   25  C13 UNL     1      26.829   5.329  49.000  1.00  0.00     0.121 C 
HETATM   26  C14 UNL     1      27.987   5.528  48.390  1.00  0.00     0.025 C 
ENDBRANCH  22  25
ENDBRANCH  20  22
ENDBRANCH  15  20
ENDBRANCH   3   5
TORSDOF 5
ENDMDL
MODEL 9
REMARK VINA RESULT:      -7.1      3.320      4.513
REMARK  5 active torsions:
REMARK  status: ('A' for Active; 'I' for Inactive)
REMARK    1  A    between atoms: N1_3  and  C3_4 
REMARK    2  A    between atoms: C9_12  and  C10_13 
REMARK    3  A    between atoms: C12_16  and  N4_17 
REMARK    4  A    between atoms: N4_17  and  S1_18 
REMARK    5  A    between atoms: S1_18  and  C13_21 
ROOT
HETATM    1  C1  UNL     1      19.086  -0.249  52.663  1.00  0.00     0.037 C 
HETATM    2  C2  UNL     1      20.079   0.358  52.996  1.00  0.00    -0.000 C 
HETATM    3  N1  UNL     1      21.221   1.044  53.401  1.00  0.00    -0.314 N 
HETATM    4  H2  UNL     1      20.888   1.825  53.978  1.00  0.00     0.176 HD
ENDROOT
BRANCH   3   5
HETATM    5  C3  UNL     1      22.573   0.816  53.142  1.00  0.00     0.074 A 
HETATM    6  C4  UNL     1      23.275  -0.235  53.687  1.00  0.00     0.090 A 
HETATM    7  C5  UNL     1      22.657  -1.189  54.575  1.00  0.00     0.103 C 
HETATM    8  C6  UNL     1      24.626  -0.503  53.458  1.00  0.00     0.142 A 
HETATM    9  N2  UNL     1      22.174  -1.969  55.289  1.00  0.00    -0.191 NA
HETATM   10  N3  UNL     1      25.290   0.331  52.644  1.00  0.00    -0.259 NA
HETATM   11  C7  UNL     1      24.615   1.372  52.098  1.00  0.00     0.070 A 
HETATM   12  C8  UNL     1      25.401   2.170  51.273  1.00  0.00     0.048 A 
HETATM   13  C16 UNL     1      23.266   1.666  52.307  1.00  0.00     0.024 A 
HETATM   14  C9  UNL     1      24.737   3.226  50.714  1.00  0.00     0.014 A 
HETATM   15  C12 UNL     1      23.418   3.571  50.877  1.00  0.00     0.055 A 
HETATM   16  C15 UNL     1      22.684   2.752  51.701  1.00  0.00     0.047 A 
BRANCH  14  17
HETATM   17  C10 UNL     1      25.519   4.083  49.847  1.00  0.00     0.037 C 
HETATM   18  C11 UNL     1      26.716   3.704  49.485  1.00  0.00     0.037 C 
HETATM   19 CL1  UNL     1      25.782   5.508  48.906  1.00  0.00    -0.084 Cl
ENDBRANCH  14  17
BRANCH  15  20
HETATM   20  N4  UNL     1      22.880   4.706  50.219  1.00  0.00    -0.280 N 
HETATM   21  H7  UNL     1      23.141   5.678  50.434  1.00  0.00     0.179 HD
BRANCH  20  22
HETATM   22  S1  UNL     1      21.715   4.421  48.986  1.00  0.00     0.252 S 
HETATM   23  O1  UNL     1      20.391   4.155  49.654  1.00  0.00    -0.201 OA
HETATM   24  O2  UNL     1      21.542   5.685  48.193  1.00  0.00    -0.201 OA
BRANCH  22  25
HETATM   25  C13 UNL     1      22.164   3.082  47.962  1.00  0.00     0.121 C 
HETATM   26  C14 UNL     1      22.174   1.758  47.983  1.00  0.00     0.025 C 
ENDBRANCH  22  25
ENDBRANCH  20  22
ENDBRANCH  15  20
ENDBRANCH   3   5
TORSDOF 5
ENDMDL
