MODEL 1
REMARK VINA RESULT:      -7.0      0.000      0.000
REMARK  8 active torsions:
REMARK  status: ('A' for Active; 'I' for Inactive)
REMARK    1  A    between atoms: C2_2  and  C3_3 
REMARK    2  A    between atoms: C3_3  and  C4_4 
REMARK    3  A    between atoms: C5_5  and  N1_6 
REMARK    4  A    between atoms: N1_6  and  C6_7 
REMARK    5  A    between atoms: C11_14  and  O1_15 
REMARK    6  A    between atoms: O1_15  and  C12_16 
REMARK    7  A    between atoms: C12_16  and  C13_17 
REMARK    8  A    between atoms: C13_17  and  N4_18 
ROOT
HETATM    1  C6  UNL     1      22.450   0.973  51.764  1.00  0.00     0.046 A 
HETATM    2  C7  UNL     1      21.138   1.071  51.362  1.00  0.00     0.049 A 
HETATM    3  C8  UNL     1      20.092   0.429  52.041  1.00  0.00     0.119 A 
HETATM    4  N2  UNL     1      20.412  -0.305  53.123  1.00  0.00    -0.259 NA
HETATM    5  C9  UNL     1      21.670  -0.450  53.578  1.00  0.00     0.086 A 
HETATM    6  C10 UNL     1      21.877  -1.227  54.699  1.00  0.00     0.152 A 
HETATM    7  N3  UNL     1      23.156  -1.327  55.100  1.00  0.00    -0.235 NA
HETATM    8  C11 UNL     1      24.186  -0.729  54.479  1.00  0.00     0.165 A 
HETATM    9  C16 UNL     1      23.949   0.041  53.360  1.00  0.00     0.074 A 
HETATM   10  C17 UNL     1      22.666   0.198  52.880  1.00  0.00     0.025 A 
ENDROOT
BRANCH   1  11
HETATM   11  N1  UNL     1      23.469   1.640  51.044  1.00  0.00    -0.365 N 
HETATM   12  H8  UNL     1      24.481   1.642  51.240  1.00  0.00     0.165 HD
BRANCH  11  13
HETATM   13  C5  UNL     1      22.981   2.392  49.910  1.00  0.00     0.085 C 
HETATM   14  C4  UNL     1      23.619   3.254  49.095  1.00  0.00    -0.004 C 
BRANCH  14  15
HETATM   15  C3  UNL     1      24.973   3.316  49.569  1.00  0.00     0.021 C 
BRANCH  15  16
HETATM   16  C2  UNL     1      26.259   3.255  49.706  1.00  0.00    -0.006 C 
HETATM   17  C1  UNL     1      26.995   4.399  49.123  1.00  0.00     0.011 C 
ENDBRANCH  15  16
ENDBRANCH  14  15
ENDBRANCH  11  13
ENDBRANCH   1  11
BRANCH   8  18
HETATM   18  O1  UNL     1      25.498  -0.842  54.905  1.00  0.00    -0.333 OA
BRANCH  18  19
HETATM   19  C12 UNL     1      26.468   0.178  54.833  1.00  0.00     0.207 C 
BRANCH  19  20
HETATM   20  C13 UNL     1      27.561  -0.216  53.898  1.00  0.00     0.298 C 
BRANCH  20  21
HETATM   21  N4  UNL     1      28.883   0.003  54.454  1.00  0.00     0.082 N 
HETATM   22  C14 UNL     1      29.818  -0.796  53.687  1.00  0.00     0.309 C 
HETATM   23  C15 UNL     1      29.309   1.377  54.392  1.00  0.00     0.309 C 
ENDBRANCH  20  21
ENDBRANCH  19  20
ENDBRANCH  18  19
ENDBRANCH   8  18
TORSDOF 8
ENDMDL
MODEL 2
REMARK VINA RESULT:      -6.6      2.188      5.663
REMARK  8 active torsions:
REMARK  status: ('A' for Active; 'I' for Inactive)
REMARK    1  A    between atoms: C2_2  and  C3_3 
REMARK    2  A    between atoms: C3_3  and  C4_4 
REMARK    3  A    between atoms: C5_5  and  N1_6 
REMARK    4  A    between atoms: N1_6  and  C6_7 
REMARK    5  A    between atoms: C11_14  and  O1_15 
REMARK    6  A    between atoms: O1_15  and  C12_16 
REMARK    7  A    between atoms: C12_16  and  C13_17 
REMARK    8  A    between atoms: C13_17  and  N4_18 
ROOT
HETATM    1  C6  UNL     1      25.777   0.450  52.981  1.00  0.00     0.046 A 
HETATM    2  C7  UNL     1      25.815  -0.484  53.991  1.00  0.00     0.049 A 
HETATM    3  C8  UNL     1      24.655  -0.973  54.609  1.00  0.00     0.119 A 
HETATM    4  N2  UNL     1      23.473  -0.492  54.180  1.00  0.00    -0.259 NA
HETATM    5  C9  UNL     1      23.353   0.421  53.199  1.00  0.00     0.086 A 
HETATM    6  C10 UNL     1      22.087   0.838  52.843  1.00  0.00     0.152 A 
HETATM    7  N3  UNL     1      22.040   1.750  51.857  1.00  0.00    -0.235 NA
HETATM    8  C11 UNL     1      23.126   2.243  51.238  1.00  0.00     0.165 A 
HETATM    9  C16 UNL     1      24.378   1.808  51.616  1.00  0.00     0.074 A 
HETATM   10  C17 UNL     1      24.518   0.873  52.620  1.00  0.00     0.025 A 
ENDROOT
BRANCH   1  11
HETATM   11  N1  UNL     1      26.976   0.911  52.389  1.00  0.00    -0.365 N 
HETATM   12  H8  UNL     1      27.433   0.558  51.534  1.00  0.00     0.165 HD
BRANCH  11  13
HETATM   13  C5  UNL     1      27.594   2.005  53.104  1.00  0.00     0.085 C 
HETATM   14  C4  UNL     1      28.746   2.052  53.800  1.00  0.00    -0.004 C 
BRANCH  14  15
HETATM   15  C3  UNL     1      29.313   0.734  53.715  1.00  0.00     0.021 C 
BRANCH  15  16
HETATM   16  C2  UNL     1      30.045  -0.302  53.464  1.00  0.00    -0.006 C 
HETATM   17  C1  UNL     1      29.299  -1.576  53.373  1.00  0.00     0.011 C 
ENDBRANCH  15  16
ENDBRANCH  14  15
ENDBRANCH  11  13
ENDBRANCH   1  11
BRANCH   8  18
HETATM   18  O1  UNL     1      23.060   3.182  50.223  1.00  0.00    -0.333 OA
BRANCH  18  19
HETATM   19  C12 UNL     1      24.010   3.335  49.193  1.00  0.00     0.207 C 
BRANCH  19  20
HETATM   20  C13 UNL     1      24.403   4.769  49.064  1.00  0.00     0.298 C 
BRANCH  20  21
HETATM   21  N4  UNL     1      25.700   5.051  49.648  1.00  0.00     0.082 N 
HETATM   22  C14 UNL     1      26.512   3.859  49.506  1.00  0.00     0.309 C 
HETATM   23  C15 UNL     1      26.388   6.143  49.011  1.00  0.00     0.309 C 
ENDBRANCH  20  21
ENDBRANCH  19  20
ENDBRANCH  18  19
ENDBRANCH   8  18
TORSDOF 8
ENDMDL
MODEL 3
REMARK VINA RESULT:      -6.5      1.808      2.996
REMARK  8 active torsions:
REMARK  status: ('A' for Active; 'I' for Inactive)
REMARK    1  A    between atoms: C2_2  and  C3_3 
REMARK    2  A    between atoms: C3_3  and  C4_4 
REMARK    3  A    between atoms: C5_5  and  N1_6 
REMARK    4  A    between atoms: N1_6  and  C6_7 
REMARK    5  A    between atoms: C11_14  and  O1_15 
REMARK    6  A    between atoms: O1_15  and  C12_16 
REMARK    7  A    between atoms: C12_16  and  C13_17 
REMARK    8  A    between atoms: C13_17  and  N4_18 
ROOT
HETATM    1  C6  UNL     1      24.552   3.246  50.705  1.00  0.00     0.046 A 
HETATM    2  C7  UNL     1      23.591   3.207  49.721  1.00  0.00     0.049 A 
HETATM    3  C8  UNL     1      22.567   2.248  49.706  1.00  0.00     0.119 A 
HETATM    4  N2  UNL     1      22.548   1.344  50.703  1.00  0.00    -0.259 NA
HETATM    5  C9  UNL     1      23.451   1.317  51.700  1.00  0.00     0.086 A 
HETATM    6  C10 UNL     1      23.330   0.342  52.669  1.00  0.00     0.152 A 
HETATM    7  N3  UNL     1      24.264   0.374  53.635  1.00  0.00    -0.235 NA
HETATM    8  C11 UNL     1      25.260   1.275  53.687  1.00  0.00     0.165 A 
HETATM    9  C16 UNL     1      25.356   2.237  52.704  1.00  0.00     0.074 A 
HETATM   10  C17 UNL     1      24.439   2.277  51.675  1.00  0.00     0.025 A 
ENDROOT
BRANCH   1  11
HETATM   11  N1  UNL     1      25.564   4.235  50.675  1.00  0.00    -0.365 N 
HETATM   12  H8  UNL     1      25.591   5.124  51.197  1.00  0.00     0.165 HD
BRANCH  11  13
HETATM   13  C5  UNL     1      26.666   3.911  49.797  1.00  0.00     0.085 C 
HETATM   14  C4  UNL     1      27.245   4.636  48.821  1.00  0.00    -0.004 C 
BRANCH  14  15
HETATM   15  C3  UNL     1      26.536   5.885  48.784  1.00  0.00     0.021 C 
BRANCH  15  16
HETATM   16  C2  UNL     1      25.778   6.889  48.479  1.00  0.00    -0.006 C 
HETATM   17  C1  UNL     1      24.358   6.542  48.253  1.00  0.00     0.011 C 
ENDBRANCH  15  16
ENDBRANCH  14  15
ENDBRANCH  11  13
ENDBRANCH   1  11
BRANCH   8  18
HETATM   18  O1  UNL     1      26.213   1.293  54.689  1.00  0.00    -0.333 OA
BRANCH  18  19
HETATM   19  C12 UNL     1      27.115   0.247  54.975  1.00  0.00     0.207 C 
BRANCH  19  20
HETATM   20  C13 UNL     1      28.470   0.578  54.447  1.00  0.00     0.298 C 
BRANCH  20  21
HETATM   21  N4  UNL     1      28.851  -0.249  53.318  1.00  0.00     0.082 N 
HETATM   22  C14 UNL     1      29.967  -1.074  53.737  1.00  0.00     0.309 C 
HETATM   23  C15 UNL     1      27.796  -1.117  52.864  1.00  0.00     0.309 C 
ENDBRANCH  20  21
ENDBRANCH  19  20
ENDBRANCH  18  19
ENDBRANCH   8  18
TORSDOF 8
ENDMDL
MODEL 4
REMARK VINA RESULT:      -6.5      2.432      5.277
REMARK  8 active torsions:
REMARK  status: ('A' for Active; 'I' for Inactive)
REMARK    1  A    between atoms: C2_2  and  C3_3 
REMARK    2  A    between atoms: C3_3  and  C4_4 
REMARK    3  A    between atoms: C5_5  and  N1_6 
REMARK    4  A    between atoms: N1_6  and  C6_7 
REMARK    5  A    between atoms: C11_14  and  O1_15 
REMARK    6  A    between atoms: O1_15  and  C12_16 
REMARK    7  A    between atoms: C12_16  and  C13_17 
REMARK    8  A    between atoms: C13_17  and  N4_18 
ROOT
HETATM    1  C6  UNL     1      23.349  -0.178  53.644  1.00  0.00     0.046 A 
HETATM    2  C7  UNL     1      22.745  -1.017  54.551  1.00  0.00     0.049 A 
HETATM    3  C8  UNL     1      21.389  -1.366  54.468  1.00  0.00     0.119 A 
HETATM    4  N2  UNL     1      20.675  -0.847  53.452  1.00  0.00    -0.259 NA
HETATM    5  C9  UNL     1      21.193  -0.020  52.526  1.00  0.00     0.086 A 
HETATM    6  C10 UNL     1      20.363   0.449  51.529  1.00  0.00     0.152 A 
HETATM    7  N3  UNL     1      20.945   1.269  50.637  1.00  0.00    -0.235 NA
HETATM    8  C11 UNL     1      22.239   1.628  50.680  1.00  0.00     0.165 A 
HETATM    9  C16 UNL     1      23.044   1.144  51.688  1.00  0.00     0.074 A 
HETATM   10  C17 UNL     1      22.528   0.297  52.646  1.00  0.00     0.025 A 
ENDROOT
BRANCH   1  11
HETATM   11  N1  UNL     1      24.721   0.144  53.772  1.00  0.00    -0.365 N 
HETATM   12  H8  UNL     1      25.133   0.987  54.200  1.00  0.00     0.165 HD
BRANCH  11  13
HETATM   13  C5  UNL     1      25.606  -0.860  53.226  1.00  0.00     0.085 C 
HETATM   14  C4  UNL     1      26.629  -0.742  52.358  1.00  0.00    -0.004 C 
BRANCH  14  15
HETATM   15  C3  UNL     1      26.709   0.655  52.031  1.00  0.00     0.021 C 
BRANCH  15  16
HETATM   16  C2  UNL     1      27.031   1.905  51.937  1.00  0.00    -0.006 C 
HETATM   17  C1  UNL     1      26.395   2.621  50.809  1.00  0.00     0.011 C 
ENDBRANCH  15  16
ENDBRANCH  14  15
ENDBRANCH  11  13
ENDBRANCH   1  11
BRANCH   8  18
HETATM   18  O1  UNL     1      22.822   2.473  49.752  1.00  0.00    -0.333 OA
BRANCH  18  19
HETATM   19  C12 UNL     1      22.442   3.811  49.517  1.00  0.00     0.207 C 
BRANCH  19  20
HETATM   20  C13 UNL     1      23.426   4.743  50.139  1.00  0.00     0.298 C 
BRANCH  20  21
HETATM   21  N4  UNL     1      22.910   5.395  51.327  1.00  0.00     0.082 N 
HETATM   22  C14 UNL     1      21.463   5.325  51.269  1.00  0.00     0.309 C 
HETATM   23  C15 UNL     1      23.341   4.775  52.552  1.00  0.00     0.309 C 
ENDBRANCH  20  21
ENDBRANCH  19  20
ENDBRANCH  18  19
ENDBRANCH   8  18
TORSDOF 8
ENDMDL
MODEL 5
REMARK VINA RESULT:      -6.5      2.094      4.995
REMARK  8 active torsions:
REMARK  status: ('A' for Active; 'I' for Inactive)
REMARK    1  A    between atoms: C2_2  and  C3_3 
REMARK    2  A    between atoms: C3_3  and  C4_4 
REMARK    3  A    between atoms: C5_5  and  N1_6 
REMARK    4  A    between atoms: N1_6  and  C6_7 
REMARK    5  A    between atoms: C11_14  and  O1_15 
REMARK    6  A    between atoms: O1_15  and  C12_16 
REMARK    7  A    between atoms: C12_16  and  C13_17 
REMARK    8  A    between atoms: C13_17  and  N4_18 
ROOT
HETATM    1  C6  UNL     1      23.946   0.049  53.769  1.00  0.00     0.046 A 
HETATM    2  C7  UNL     1      23.449  -0.951  54.574  1.00  0.00     0.049 A 
HETATM    3  C8  UNL     1      22.074  -1.164  54.748  1.00  0.00     0.119 A 
HETATM    4  N2  UNL     1      21.230  -0.346  54.091  1.00  0.00    -0.259 NA
HETATM    5  C9  UNL     1      21.638   0.652  53.287  1.00  0.00     0.086 A 
HETATM    6  C10 UNL     1      20.680   1.426  52.665  1.00  0.00     0.152 A 
HETATM    7  N3  UNL     1      21.156   2.404  51.875  1.00  0.00    -0.235 NA
HETATM    8  C11 UNL     1      22.464   2.642  51.681  1.00  0.00     0.165 A 
HETATM    9  C16 UNL     1      23.399   1.853  52.317  1.00  0.00     0.074 A 
HETATM   10  C17 UNL     1      22.997   0.826  53.145  1.00  0.00     0.025 A 
ENDROOT
BRANCH   1  11
HETATM   11  N1  UNL     1      25.343   0.223  53.627  1.00  0.00    -0.365 N 
HETATM   12  H8  UNL     1      25.915   1.019  53.949  1.00  0.00     0.165 HD
BRANCH  11  13
HETATM   13  C5  UNL     1      25.997  -0.872  52.947  1.00  0.00     0.085 C 
HETATM   14  C4  UNL     1      27.306  -1.173  52.838  1.00  0.00    -0.004 C 
BRANCH  14  15
HETATM   15  C3  UNL     1      28.008  -0.151  53.563  1.00  0.00     0.021 C 
BRANCH  15  16
HETATM   16  C2  UNL     1      28.877   0.694  54.015  1.00  0.00    -0.006 C 
HETATM   17  C1  UNL     1      28.623   2.102  53.635  1.00  0.00     0.011 C 
ENDBRANCH  15  16
ENDBRANCH  14  15
ENDBRANCH  11  13
ENDBRANCH   1  11
BRANCH   8  18
HETATM   18  O1  UNL     1      22.937   3.653  50.864  1.00  0.00    -0.333 OA
BRANCH  18  19
HETATM   19  C12 UNL     1      24.243   4.185  50.900  1.00  0.00     0.207 C 
BRANCH  19  20
HETATM   20  C13 UNL     1      24.831   4.199  49.529  1.00  0.00     0.298 C 
BRANCH  20  21
HETATM   21  N4  UNL     1      26.102   3.504  49.455  1.00  0.00     0.082 N 
HETATM   22  C14 UNL     1      27.099   4.462  49.022  1.00  0.00     0.309 C 
HETATM   23  C15 UNL     1      26.525   2.953  50.716  1.00  0.00     0.309 C 
ENDBRANCH  20  21
ENDBRANCH  19  20
ENDBRANCH  18  19
ENDBRANCH   8  18
TORSDOF 8
ENDMDL
MODEL 6
REMARK VINA RESULT:      -6.5      1.823      5.509
REMARK  8 active torsions:
REMARK  status: ('A' for Active; 'I' for Inactive)
REMARK    1  A    between atoms: C2_2  and  C3_3 
REMARK    2  A    between atoms: C3_3  and  C4_4 
REMARK    3  A    between atoms: C5_5  and  N1_6 
REMARK    4  A    between atoms: N1_6  and  C6_7 
REMARK    5  A    between atoms: C11_14  and  O1_15 
REMARK    6  A    between atoms: O1_15  and  C12_16 
REMARK    7  A    between atoms: C12_16  and  C13_17 
REMARK    8  A    between atoms: C13_17  and  N4_18 
ROOT
HETATM    1  C6  UNL     1      26.683   2.110  52.759  1.00  0.00     0.046 A 
HETATM    2  C7  UNL     1      27.988   2.445  53.040  1.00  0.00     0.049 A 
HETATM    3  C8  UNL     1      28.739   1.787  54.025  1.00  0.00     0.119 A 
HETATM    4  N2  UNL     1      28.136   0.795  54.706  1.00  0.00    -0.259 NA
HETATM    5  C9  UNL     1      26.866   0.409  54.491  1.00  0.00     0.086 A 
HETATM    6  C10 UNL     1      26.355  -0.622  55.251  1.00  0.00     0.152 A 
HETATM    7  N3  UNL     1      25.082  -0.957  54.983  1.00  0.00    -0.235 NA
HETATM    8  C11 UNL     1      24.328  -0.353  54.048  1.00  0.00     0.165 A 
HETATM    9  C16 UNL     1      24.865   0.675  53.304  1.00  0.00     0.074 A 
HETATM   10  C17 UNL     1      26.165   1.083  53.514  1.00  0.00     0.025 A 
ENDROOT
BRANCH   1  11
HETATM   11  N1  UNL     1      25.969   2.804  51.754  1.00  0.00    -0.365 N 
HETATM   12  H8  UNL     1      25.073   3.307  51.852  1.00  0.00     0.165 HD
BRANCH  11  13
HETATM   13  C5  UNL     1      26.612   2.778  50.460  1.00  0.00     0.085 C 
HETATM   14  C4  UNL     1      26.584   3.673  49.454  1.00  0.00    -0.004 C 
BRANCH  14  15
HETATM   15  C3  UNL     1      25.742   4.746  49.904  1.00  0.00     0.021 C 
BRANCH  15  16
HETATM   16  C2  UNL     1      24.956   5.770  49.996  1.00  0.00    -0.006 C 
HETATM   17  C1  UNL     1      25.647   7.057  50.228  1.00  0.00     0.011 C 
ENDBRANCH  15  16
ENDBRANCH  14  15
ENDBRANCH  11  13
ENDBRANCH   1  11
BRANCH   8  18
HETATM   18  O1  UNL     1      23.018  -0.712  53.784  1.00  0.00    -0.333 OA
BRANCH  18  19
HETATM   19  C12 UNL     1      22.005  -0.866  54.753  1.00  0.00     0.207 C 
BRANCH  19  20
HETATM   20  C13 UNL     1      20.934   0.151  54.546  1.00  0.00     0.298 C 
BRANCH  20  21
HETATM   21  N4  UNL     1      20.651   0.392  53.144  1.00  0.00     0.082 N 
HETATM   22  C14 UNL     1      19.390  -0.253  52.836  1.00  0.00     0.309 C 
HETATM   23  C15 UNL     1      20.534   1.788  52.816  1.00  0.00     0.309 C 
ENDBRANCH  20  21
ENDBRANCH  19  20
ENDBRANCH  18  19
ENDBRANCH   8  18
TORSDOF 8
ENDMDL
MODEL 7
REMARK VINA RESULT:      -6.4      1.914      2.276
REMARK  8 active torsions:
REMARK  status: ('A' for Active; 'I' for Inactive)
REMARK    1  A    between atoms: C2_2  and  C3_3 
REMARK    2  A    between atoms: C3_3  and  C4_4 
REMARK    3  A    between atoms: C5_5  and  N1_6 
REMARK    4  A    between atoms: N1_6  and  C6_7 
REMARK    5  A    between atoms: C11_14  and  O1_15 
REMARK    6  A    between atoms: O1_15  and  C12_16 
REMARK    7  A    between atoms: C12_16  and  C13_17 
REMARK    8  A    between atoms: C13_17  and  N4_18 
ROOT
HETATM    1  C6  UNL     1      22.798   3.578  52.358  1.00  0.00     0.046 A 
HETATM    2  C7  UNL     1      21.557   4.139  52.162  1.00  0.00     0.049 A 
HETATM    3  C8  UNL     1      20.377   3.382  52.181  1.00  0.00     0.119 A 
HETATM    4  N2  UNL     1      20.492   2.058  52.400  1.00  0.00    -0.259 NA
HETATM    5  C9  UNL     1      21.668   1.436  52.599  1.00  0.00     0.086 A 
HETATM    6  C10 UNL     1      21.661   0.074  52.815  1.00  0.00     0.152 A 
HETATM    7  N3  UNL     1      22.869  -0.482  53.008  1.00  0.00    -0.235 NA
HETATM    8  C11 UNL     1      24.023   0.207  52.999  1.00  0.00     0.165 A 
HETATM    9  C16 UNL     1      23.999   1.568  52.780  1.00  0.00     0.074 A 
HETATM   10  C17 UNL     1      22.802   2.219  52.572  1.00  0.00     0.025 A 
ENDROOT
BRANCH   1  11
HETATM   11  N1  UNL     1      23.959   4.387  52.330  1.00  0.00    -0.365 N 
HETATM   12  H8  UNL     1      24.830   4.258  52.868  1.00  0.00     0.165 HD
BRANCH  11  13
HETATM   13  C5  UNL     1      23.862   5.510  51.425  1.00  0.00     0.085 C 
HETATM   14  C4  UNL     1      24.223   5.622  50.132  1.00  0.00    -0.004 C 
BRANCH  14  15
HETATM   15  C3  UNL     1      24.766   4.345  49.762  1.00  0.00     0.021 C 
BRANCH  15  16
HETATM   16  C2  UNL     1      25.531   3.329  49.521  1.00  0.00    -0.006 C 
HETATM   17  C1  UNL     1      26.633   3.144  50.491  1.00  0.00     0.011 C 
ENDBRANCH  15  16
ENDBRANCH  14  15
ENDBRANCH  11  13
ENDBRANCH   1  11
BRANCH   8  18
HETATM   18  O1  UNL     1      25.259  -0.382  53.200  1.00  0.00    -0.333 OA
BRANCH  18  19
HETATM   19  C12 UNL     1      26.444  -0.040  52.517  1.00  0.00     0.207 C 
BRANCH  19  20
HETATM   20  C13 UNL     1      27.564  -0.924  52.954  1.00  0.00     0.298 C 
BRANCH  20  21
HETATM   21  N4  UNL     1      28.682  -0.183  53.505  1.00  0.00     0.082 N 
HETATM   22  C14 UNL     1      28.321   0.216  54.851  1.00  0.00     0.309 C 
HETATM   23  C15 UNL     1      29.898  -0.951  53.575  1.00  0.00     0.309 C 
ENDBRANCH  20  21
ENDBRANCH  19  20
ENDBRANCH  18  19
ENDBRANCH   8  18
TORSDOF 8
ENDMDL
MODEL 8
REMARK VINA RESULT:      -6.4      2.174      5.420
REMARK  8 active torsions:
REMARK  status: ('A' for Active; 'I' for Inactive)
REMARK    1  A    between atoms: C2_2  and  C3_3 
REMARK    2  A    between atoms: C3_3  and  C4_4 
REMARK    3  A    between atoms: C5_5  and  N1_6 
REMARK    4  A    between atoms: N1_6  and  C6_7 
REMARK    5  A    between atoms: C11_14  and  O1_15 
REMARK    6  A    between atoms: O1_15  and  C12_16 
REMARK    7  A    between atoms: C12_16  and  C13_17 
REMARK    8  A    between atoms: C13_17  and  N4_18 
ROOT
HETATM    1  C6  UNL     1      23.753   0.272  53.197  1.00  0.00     0.046 A 
HETATM    2  C7  UNL     1      23.448  -0.620  54.199  1.00  0.00     0.049 A 
HETATM    3  C8  UNL     1      24.414  -1.108  55.091  1.00  0.00     0.119 A 
HETATM    4  N2  UNL     1      25.678  -0.670  54.940  1.00  0.00    -0.259 NA
HETATM    5  C9  UNL     1      26.054   0.201  53.986  1.00  0.00     0.086 A 
HETATM    6  C10 UNL     1      27.379   0.579  53.929  1.00  0.00     0.152 A 
HETATM    7  N3  UNL     1      27.685   1.452  52.954  1.00  0.00    -0.235 NA
HETATM    8  C11 UNL     1      26.791   1.944  52.079  1.00  0.00     0.165 A 
HETATM    9  C16 UNL     1      25.474   1.548  52.160  1.00  0.00     0.074 A 
HETATM   10  C17 UNL     1      25.073   0.654  53.131  1.00  0.00     0.025 A 
ENDROOT
BRANCH   1  11
HETATM   11  N1  UNL     1      22.741   0.735  52.322  1.00  0.00    -0.365 N 
HETATM   12  H8  UNL     1      22.821   1.464  51.596  1.00  0.00     0.165 HD
BRANCH  11  13
HETATM   13  C5  UNL     1      21.468   0.075  52.506  1.00  0.00     0.085 C 
HETATM   14  C4  UNL     1      20.378   0.048  51.715  1.00  0.00    -0.004 C 
BRANCH  14  15
HETATM   15  C3  UNL     1      20.704   0.846  50.566  1.00  0.00     0.021 C 
BRANCH  15  16
HETATM   16  C2  UNL     1      20.679   1.578  49.500  1.00  0.00    -0.006 C 
HETATM   17  C1  UNL     1      21.823   1.372  48.585  1.00  0.00     0.011 C 
ENDBRANCH  15  16
ENDBRANCH  14  15
ENDBRANCH  11  13
ENDBRANCH   1  11
BRANCH   8  18
HETATM   18  O1  UNL     1      27.123   2.844  51.081  1.00  0.00    -0.333 OA
BRANCH  18  19
HETATM   19  C12 UNL     1      26.434   2.996  49.860  1.00  0.00     0.207 C 
BRANCH  19  20
HETATM   20  C13 UNL     1      26.746   4.323  49.255  1.00  0.00     0.298 C 
BRANCH  20  21
HETATM   21  N4  UNL     1      25.568   5.148  49.072  1.00  0.00     0.082 N 
HETATM   22  C14 UNL     1      24.410   4.327  49.366  1.00  0.00     0.309 C 
HETATM   23  C15 UNL     1      25.535   6.298  49.936  1.00  0.00     0.309 C 
ENDBRANCH  20  21
ENDBRANCH  19  20
ENDBRANCH  18  19
ENDBRANCH   8  18
TORSDOF 8
ENDMDL
MODEL 9
REMARK VINA RESULT:      -6.2      2.110      5.915
REMARK  8 active torsions:
REMARK  status: ('A' for Active; 'I' for Inactive)
REMARK    1  A    between atoms: C2_2  and  C3_3 
REMARK    2  A    between atoms: C3_3  and  C4_4 
REMARK    3  A    between atoms: C5_5  and  N1_6 
REMARK    4  A    between atoms: N1_6  and  C6_7 
REMARK    5  A    between atoms: C11_14  and  O1_15 
REMARK    6  A    between atoms: O1_15  and  C12_16 
REMARK    7  A    between atoms: C12_16  and  C13_17 
REMARK    8  A    between atoms: C13_17  and  N4_18 
ROOT
HETATM    1  C6  UNL     1      25.523   1.895  52.111  1.00  0.00     0.046 A 
HETATM    2  C7  UNL     1      26.539   2.365  51.310  1.00  0.00     0.049 A 
HETATM    3  C8  UNL     1      26.308   3.234  50.233  1.00  0.00     0.119 A 
HETATM    4  N2  UNL     1      25.036   3.606  49.997  1.00  0.00    -0.259 NA
HETATM    5  C9  UNL     1      23.990   3.190  50.734  1.00  0.00     0.086 A 
HETATM    6  C10 UNL     1      22.730   3.640  50.397  1.00  0.00     0.152 A 
HETATM    7  N3  UNL     1      21.732   3.187  51.174  1.00  0.00    -0.235 NA
HETATM    8  C11 UNL     1      21.910   2.355  52.215  1.00  0.00     0.165 A 
HETATM    9  C16 UNL     1      23.180   1.921  52.527  1.00  0.00     0.074 A 
HETATM   10  C17 UNL     1      24.262   2.337  51.781  1.00  0.00     0.025 A 
ENDROOT
BRANCH   1  11
HETATM   11  N1  UNL     1      25.808   1.020  53.185  1.00  0.00    -0.365 N 
HETATM   12  H8  UNL     1      25.986   1.269  54.171  1.00  0.00     0.165 HD
BRANCH  11  13
HETATM   13  C5  UNL     1      25.842  -0.374  52.805  1.00  0.00     0.085 C 
HETATM   14  C4  UNL     1      26.865  -1.251  52.796  1.00  0.00    -0.004 C 
BRANCH  14  15
HETATM   15  C3  UNL     1      28.013  -0.523  53.259  1.00  0.00     0.021 C 
BRANCH  15  16
HETATM   16  C2  UNL     1      29.168  -0.161  53.715  1.00  0.00    -0.006 C 
HETATM   17  C1  UNL     1      30.180  -1.239  53.756  1.00  0.00     0.011 C 
ENDBRANCH  15  16
ENDBRANCH  14  15
ENDBRANCH  11  13
ENDBRANCH   1  11
BRANCH   8  18
HETATM   18  O1  UNL     1      20.870   1.898  53.006  1.00  0.00    -0.333 OA
BRANCH  18  19
HETATM   19  C12 UNL     1      20.545   0.543  53.221  1.00  0.00     0.207 C 
BRANCH  19  20
HETATM   20  C13 UNL     1      21.030   0.104  54.562  1.00  0.00     0.298 C 
BRANCH  20  21
HETATM   21  N4  UNL     1      21.707  -1.178  54.522  1.00  0.00     0.082 N 
HETATM   22  C14 UNL     1      22.125  -1.409  53.154  1.00  0.00     0.309 C 
HETATM   23  C15 UNL     1      22.873  -1.235  55.364  1.00  0.00     0.309 C 
ENDBRANCH  20  21
ENDBRANCH  19  20
ENDBRANCH  18  19
ENDBRANCH   8  18
TORSDOF 8
ENDMDL
