MODEL 1
REMARK VINA RESULT:      -8.4      0.000      0.000
REMARK  7 active torsions:
REMARK  status: ('A' for Active; 'I' for Inactive)
REMARK    1  A    between atoms: C2_2  and  C3_3 
REMARK       I    between atoms: C3_3  and  N1_5 
REMARK    2  A    between atoms: N1_5  and  C4_6 
REMARK    3  A    between atoms: C7_9  and  N2_10 
REMARK    4  A    between atoms: N2_10  and  P1_11 
REMARK    5  A    between atoms: P1_11  and  C8_12 
REMARK    6  A    between atoms: C8_12  and  C10_14 
REMARK    7  A    between atoms: C19_25  and  O2_26 
ROOT
HETATM    1  C4  UNL     1      25.388   2.108  53.461  1.00  0.00     0.069 A 
HETATM    2  C5  UNL     1      24.854   3.302  53.073  1.00  0.00     0.050 A 
HETATM    3  C6  UNL     1      23.592   3.305  52.520  1.00  0.00     0.041 A 
HETATM    4  C7  UNL     1      23.088   4.535  52.141  1.00  0.00     0.140 A 
HETATM    5  N3  UNL     1      21.868   4.590  51.599  1.00  0.00    -0.224 NA
HETATM    6  C16 UNL     1      21.134   3.465  51.421  1.00  0.00     0.236 A 
HETATM    7  N4  UNL     1      21.604   2.236  51.783  1.00  0.00    -0.241 NA
HETATM    8  C17 UNL     1      22.832   2.154  52.333  1.00  0.00     0.075 A 
HETATM    9  C18 UNL     1      23.417   0.977  52.739  1.00  0.00     0.071 A 
HETATM   10  C19 UNL     1      24.682   0.919  53.302  1.00  0.00     0.097 A 
ENDROOT
BRANCH   4  11
HETATM   11  N2  UNL     1      23.748   5.790  52.270  1.00  0.00    -0.351 N 
HETATM   12  H8  UNL     1      24.217   6.221  53.097  1.00  0.00     0.166 HD
BRANCH  11  13
HETATM   13  P1  UNL     1      23.923   6.986  50.942  1.00  0.00    -0.020 P 
HETATM   14  H9  UNL     1      25.045   7.875  51.141  1.00  0.00     0.081 HD
BRANCH  13  15
HETATM   15  C8  UNL     1      23.970   6.178  49.274  1.00  0.00     0.060 C 
HETATM   16  C9  UNL     1      23.659   7.186  48.213  1.00  0.00     0.021 C 
BRANCH  15  17
HETATM   17  C10 UNL     1      25.360   5.696  49.071  1.00  0.00    -0.049 A 
HETATM   18  C11 UNL     1      25.838   4.430  49.351  1.00  0.00     0.008 A 
HETATM   19  C12 UNL     1      27.167   4.112  49.110  1.00  0.00     0.001 A 
HETATM   20  C13 UNL     1      27.995   5.108  48.583  1.00  0.00     0.000 A 
HETATM   21  C14 UNL     1      27.542   6.379  48.295  1.00  0.00     0.001 A 
HETATM   22  C15 UNL     1      26.204   6.661  48.549  1.00  0.00     0.008 A 
ENDBRANCH  15  17
ENDBRANCH  13  15
ENDBRANCH  11  13
ENDBRANCH   4  11
BRANCH   1  23
HETATM   23  N1  UNL     1      26.679   1.962  54.046  1.00  0.00    -0.325 N 
HETATM   24  C3  UNL     1      27.816   2.055  53.201  1.00  0.00     0.221 C 
HETATM   25  O1  UNL     1      27.449   2.264  52.006  1.00  0.00    -0.273 OA
HETATM   26  H6  UNL     1      26.683   1.793  55.084  1.00  0.00     0.169 HD
BRANCH  24  27
HETATM   27  C2  UNL     1      29.127   1.900  53.836  1.00  0.00     0.098 C 
HETATM   28  C1  UNL     1      29.570   0.439  53.889  1.00  0.00     0.014 C 
ENDBRANCH  24  27
ENDBRANCH   1  23
BRANCH  10  29
HETATM   29  O2  UNL     1      25.184  -0.314  53.680  1.00  0.00    -0.354 OA
HETATM   30  C20 UNL     1      25.992  -1.114  52.844  1.00  0.00     0.210 C 
ENDBRANCH  10  29
TORSDOF 7
ENDMDL
MODEL 2
REMARK VINA RESULT:      -7.9      1.418      1.998
REMARK  7 active torsions:
REMARK  status: ('A' for Active; 'I' for Inactive)
REMARK    1  A    between atoms: C2_2  and  C3_3 
REMARK       I    between atoms: C3_3  and  N1_5 
REMARK    2  A    between atoms: N1_5  and  C4_6 
REMARK    3  A    between atoms: C7_9  and  N2_10 
REMARK    4  A    between atoms: N2_10  and  P1_11 
REMARK    5  A    between atoms: P1_11  and  C8_12 
REMARK    6  A    between atoms: C8_12  and  C10_14 
REMARK    7  A    between atoms: C19_25  and  O2_26 
ROOT
HETATM    1  C4  UNL     1      25.526   0.867  52.784  1.00  0.00     0.069 A 
HETATM    2  C5  UNL     1      24.612   1.835  52.490  1.00  0.00     0.050 A 
HETATM    3  C6  UNL     1      23.275   1.543  52.652  1.00  0.00     0.041 A 
HETATM    4  C7  UNL     1      22.382   2.551  52.343  1.00  0.00     0.140 A 
HETATM    5  N3  UNL     1      21.074   2.316  52.485  1.00  0.00    -0.224 NA
HETATM    6  C16 UNL     1      20.626   1.114  52.922  1.00  0.00     0.236 A 
HETATM    7  N4  UNL     1      21.482   0.099  53.234  1.00  0.00    -0.241 NA
HETATM    8  C17 UNL     1      22.807   0.311  53.100  1.00  0.00     0.075 A 
HETATM    9  C18 UNL     1      23.770  -0.630  53.382  1.00  0.00     0.071 A 
HETATM   10  C19 UNL     1      25.126  -0.387  53.237  1.00  0.00     0.097 A 
ENDROOT
BRANCH   4  11
HETATM   11  N2  UNL     1      22.713   3.855  51.876  1.00  0.00    -0.351 N 
HETATM   12  H8  UNL     1      22.880   4.737  52.408  1.00  0.00     0.166 HD
BRANCH  11  13
HETATM   13  P1  UNL     1      22.929   4.289  50.148  1.00  0.00    -0.020 P 
HETATM   14  H9  UNL     1      21.690   4.241  49.405  1.00  0.00     0.081 HD
BRANCH  13  15
HETATM   15  C8  UNL     1      23.798   5.913  49.936  1.00  0.00     0.060 C 
HETATM   16  C9  UNL     1      23.906   6.607  51.258  1.00  0.00     0.021 C 
BRANCH  15  17
HETATM   17  C10 UNL     1      25.169   5.605  49.455  1.00  0.00    -0.049 A 
HETATM   18  C11 UNL     1      26.016   6.467  48.785  1.00  0.00     0.008 A 
HETATM   19  C12 UNL     1      27.278   6.046  48.391  1.00  0.00     0.001 A 
HETATM   20  C13 UNL     1      27.656   4.734  48.691  1.00  0.00     0.000 A 
HETATM   21  C14 UNL     1      26.828   3.855  49.358  1.00  0.00     0.001 A 
HETATM   22  C15 UNL     1      25.571   4.311  49.738  1.00  0.00     0.008 A 
ENDBRANCH  15  17
ENDBRANCH  13  15
ENDBRANCH  11  13
ENDBRANCH   4  11
BRANCH   1  23
HETATM   23  N1  UNL     1      26.937   1.035  52.661  1.00  0.00    -0.325 N 
HETATM   24  C3  UNL     1      27.679   1.371  53.823  1.00  0.00     0.221 C 
HETATM   25  O1  UNL     1      26.901   1.465  54.820  1.00  0.00    -0.273 OA
HETATM   26  H6  UNL     1      27.321   0.893  51.692  1.00  0.00     0.169 HD
BRANCH  24  27
HETATM   27  C2  UNL     1      29.125   1.536  53.659  1.00  0.00     0.098 C 
HETATM   28  C1  UNL     1      29.850   0.196  53.568  1.00  0.00     0.014 C 
ENDBRANCH  24  27
ENDBRANCH   1  23
BRANCH  10  29
HETATM   29  O2  UNL     1      26.019  -1.399  53.547  1.00  0.00    -0.354 OA
HETATM   30  C20 UNL     1      26.726  -2.137  52.573  1.00  0.00     0.210 C 
ENDBRANCH  10  29
TORSDOF 7
ENDMDL
MODEL 3
REMARK VINA RESULT:      -7.9      2.944      5.488
REMARK  7 active torsions:
REMARK  status: ('A' for Active; 'I' for Inactive)
REMARK    1  A    between atoms: C2_2  and  C3_3 
REMARK       I    between atoms: C3_3  and  N1_5 
REMARK    2  A    between atoms: N1_5  and  C4_6 
REMARK    3  A    between atoms: C7_9  and  N2_10 
REMARK    4  A    between atoms: N2_10  and  P1_11 
REMARK    5  A    between atoms: P1_11  and  C8_12 
REMARK    6  A    between atoms: C8_12  and  C10_14 
REMARK    7  A    between atoms: C19_25  and  O2_26 
ROOT
HETATM    1  C4  UNL     1      26.209   0.827  52.234  1.00  0.00     0.069 A 
HETATM    2  C5  UNL     1      24.963   0.307  52.427  1.00  0.00     0.050 A 
HETATM    3  C6  UNL     1      24.682  -0.282  53.640  1.00  0.00     0.041 A 
HETATM    4  C7  UNL     1      23.408  -0.796  53.795  1.00  0.00     0.140 A 
HETATM    5  N3  UNL     1      23.086  -1.377  54.954  1.00  0.00    -0.224 NA
HETATM    6  C16 UNL     1      23.987  -1.465  55.963  1.00  0.00     0.236 A 
HETATM    7  N4  UNL     1      25.252  -0.969  55.841  1.00  0.00    -0.241 NA
HETATM    8  C17 UNL     1      25.601  -0.377  54.681  1.00  0.00     0.075 A 
HETATM    9  C18 UNL     1      26.843   0.163  54.434  1.00  0.00     0.071 A 
HETATM   10  C19 UNL     1      27.177   0.766  53.233  1.00  0.00     0.097 A 
ENDROOT
BRANCH   4  11
HETATM   11  N2  UNL     1      22.367  -0.772  52.823  1.00  0.00    -0.351 N 
HETATM   12  H8  UNL     1      22.201  -1.394  52.002  1.00  0.00     0.166 HD
BRANCH  11  13
HETATM   13  P1  UNL     1      21.026   0.421  52.801  1.00  0.00    -0.020 P 
HETATM   14  H9  UNL     1      21.415   1.703  53.341  1.00  0.00     0.081 HD
BRANCH  13  15
HETATM   15  C8  UNL     1      20.260   0.583  51.120  1.00  0.00     0.060 C 
HETATM   16  C9  UNL     1      18.970   1.334  51.220  1.00  0.00     0.021 C 
BRANCH  15  17
HETATM   17  C10 UNL     1      21.204   1.380  50.295  1.00  0.00    -0.049 A 
HETATM   18  C11 UNL     1      22.025   2.398  50.743  1.00  0.00     0.008 A 
HETATM   19  C12 UNL     1      22.864   3.062  49.860  1.00  0.00     0.001 A 
HETATM   20  C13 UNL     1      22.847   2.671  48.517  1.00  0.00     0.000 A 
HETATM   21  C14 UNL     1      22.037   1.658  48.047  1.00  0.00     0.001 A 
HETATM   22  C15 UNL     1      21.210   1.015  48.961  1.00  0.00     0.008 A 
ENDBRANCH  15  17
ENDBRANCH  13  15
ENDBRANCH  11  13
ENDBRANCH   4  11
BRANCH   1  23
HETATM   23  N1  UNL     1      26.633   1.463  51.031  1.00  0.00    -0.325 N 
HETATM   24  C3  UNL     1      26.268   2.818  50.820  1.00  0.00     0.221 C 
HETATM   25  O1  UNL     1      25.589   3.240  51.804  1.00  0.00    -0.273 OA
HETATM   26  H6  UNL     1      27.196   0.858  50.380  1.00  0.00     0.169 HD
BRANCH  24  27
HETATM   27  C2  UNL     1      26.719   3.438  49.572  1.00  0.00     0.098 C 
HETATM   28  C1  UNL     1      26.054   4.792  49.330  1.00  0.00     0.014 C 
ENDBRANCH  24  27
ENDBRANCH   1  23
BRANCH  10  29
HETATM   29  O2  UNL     1      28.454   1.280  53.081  1.00  0.00    -0.354 OA
HETATM   30  C20 UNL     1      28.890   2.471  53.700  1.00  0.00     0.210 C 
ENDBRANCH  10  29
TORSDOF 7
ENDMDL
MODEL 4
REMARK VINA RESULT:      -7.9      1.351      2.435
REMARK  7 active torsions:
REMARK  status: ('A' for Active; 'I' for Inactive)
REMARK    1  A    between atoms: C2_2  and  C3_3 
REMARK       I    between atoms: C3_3  and  N1_5 
REMARK    2  A    between atoms: N1_5  and  C4_6 
REMARK    3  A    between atoms: C7_9  and  N2_10 
REMARK    4  A    between atoms: N2_10  and  P1_11 
REMARK    5  A    between atoms: P1_11  and  C8_12 
REMARK    6  A    between atoms: C8_12  and  C10_14 
REMARK    7  A    between atoms: C19_25  and  O2_26 
ROOT
HETATM    1  C4  UNL     1      25.449   1.914  53.555  1.00  0.00     0.069 A 
HETATM    2  C5  UNL     1      24.878   3.090  53.168  1.00  0.00     0.050 A 
HETATM    3  C6  UNL     1      23.591   3.061  52.675  1.00  0.00     0.041 A 
HETATM    4  C7  UNL     1      23.050   4.275  52.295  1.00  0.00     0.140 A 
HETATM    5  N3  UNL     1      21.804   4.298  51.810  1.00  0.00    -0.224 NA
HETATM    6  C16 UNL     1      21.082   3.158  51.691  1.00  0.00     0.236 A 
HETATM    7  N4  UNL     1      21.588   1.946  52.057  1.00  0.00    -0.241 NA
HETATM    8  C17 UNL     1      22.843   1.895  52.550  1.00  0.00     0.075 A 
HETATM    9  C18 UNL     1      23.465   0.737  52.953  1.00  0.00     0.071 A 
HETATM   10  C19 UNL     1      24.756   0.711  53.456  1.00  0.00     0.097 A 
ENDROOT
BRANCH   4  11
HETATM   11  N2  UNL     1      23.694   5.543  52.365  1.00  0.00    -0.351 N 
HETATM   12  H8  UNL     1      24.074   6.058  53.189  1.00  0.00     0.166 HD
BRANCH  11  13
HETATM   13  P1  UNL     1      24.010   6.600  50.949  1.00  0.00    -0.020 P 
HETATM   14  H9  UNL     1      24.793   7.765  51.291  1.00  0.00     0.081 HD
BRANCH  13  15
HETATM   15  C8  UNL     1      24.748   5.665  49.527  1.00  0.00     0.060 C 
HETATM   16  C9  UNL     1      25.808   4.735  50.027  1.00  0.00     0.021 C 
BRANCH  15  17
HETATM   17  C10 UNL     1      23.653   4.854  48.935  1.00  0.00    -0.049 A 
HETATM   18  C11 UNL     1      22.491   5.338  48.366  1.00  0.00     0.008 A 
HETATM   19  C12 UNL     1      21.547   4.463  47.847  1.00  0.00     0.001 A 
HETATM   20  C13 UNL     1      21.810   3.092  47.922  1.00  0.00     0.000 A 
HETATM   21  C14 UNL     1      22.963   2.585  48.486  1.00  0.00     0.001 A 
HETATM   22  C15 UNL     1      23.887   3.491  48.995  1.00  0.00     0.008 A 
ENDBRANCH  15  17
ENDBRANCH  13  15
ENDBRANCH  11  13
ENDBRANCH   4  11
BRANCH   1  23
HETATM   23  N1  UNL     1      26.769   1.801  54.081  1.00  0.00    -0.325 N 
HETATM   24  C3  UNL     1      27.864   1.937  53.188  1.00  0.00     0.221 C 
HETATM   25  O1  UNL     1      27.438   2.147  52.013  1.00  0.00    -0.273 OA
HETATM   26  H6  UNL     1      26.824   1.621  55.116  1.00  0.00     0.169 HD
BRANCH  24  27
HETATM   27  C2  UNL     1      29.205   1.815  53.763  1.00  0.00     0.098 C 
HETATM   28  C1  UNL     1      29.708   0.373  53.748  1.00  0.00     0.014 C 
ENDBRANCH  24  27
ENDBRANCH   1  23
BRANCH  10  29
HETATM   29  O2  UNL     1      25.296  -0.506  53.837  1.00  0.00    -0.354 OA
HETATM   30  C20 UNL     1      26.104  -1.295  52.991  1.00  0.00     0.210 C 
ENDBRANCH  10  29
TORSDOF 7
ENDMDL
MODEL 5
REMARK VINA RESULT:      -7.7      2.330      5.655
REMARK  7 active torsions:
REMARK  status: ('A' for Active; 'I' for Inactive)
REMARK    1  A    between atoms: C2_2  and  C3_3 
REMARK       I    between atoms: C3_3  and  N1_5 
REMARK    2  A    between atoms: N1_5  and  C4_6 
REMARK    3  A    between atoms: C7_9  and  N2_10 
REMARK    4  A    between atoms: N2_10  and  P1_11 
REMARK    5  A    between atoms: P1_11  and  C8_12 
REMARK    6  A    between atoms: C8_12  and  C10_14 
REMARK    7  A    between atoms: C19_25  and  O2_26 
ROOT
HETATM    1  C4  UNL     1      25.295   3.003  50.980  1.00  0.00     0.069 A 
HETATM    2  C5  UNL     1      24.023   3.135  51.452  1.00  0.00     0.050 A 
HETATM    3  C6  UNL     1      23.323   4.279  51.133  1.00  0.00     0.041 A 
HETATM    4  C7  UNL     1      22.037   4.373  51.630  1.00  0.00     0.140 A 
HETATM    5  N3  UNL     1      21.318   5.464  51.349  1.00  0.00    -0.224 NA
HETATM    6  C16 UNL     1      21.834   6.462  50.591  1.00  0.00     0.236 A 
HETATM    7  N4  UNL     1      23.100   6.399  50.086  1.00  0.00    -0.241 NA
HETATM    8  C17 UNL     1      23.846   5.308  50.356  1.00  0.00     0.075 A 
HETATM    9  C18 UNL     1      25.133   5.125  49.907  1.00  0.00     0.071 A 
HETATM   10  C19 UNL     1      25.879   3.995  50.197  1.00  0.00     0.097 A 
ENDROOT
BRANCH   4  11
HETATM   11  N2  UNL     1      21.373   3.405  52.435  1.00  0.00    -0.351 N 
HETATM   12  H8  UNL     1      21.567   3.097  53.414  1.00  0.00     0.166 HD
BRANCH  11  13
HETATM   13  P1  UNL     1      19.960   2.435  51.899  1.00  0.00    -0.020 P 
HETATM   14  H9  UNL     1      19.212   3.082  50.846  1.00  0.00     0.081 HD
BRANCH  13  15
HETATM   15  C8  UNL     1      20.431   0.700  51.448  1.00  0.00     0.060 C 
HETATM   16  C9  UNL     1      21.346   0.714  50.264  1.00  0.00     0.021 C 
BRANCH  15  17
HETATM   17  C10 UNL     1      21.174   0.143  52.608  1.00  0.00    -0.049 A 
HETATM   18  C11 UNL     1      20.634  -0.230  53.823  1.00  0.00     0.008 A 
HETATM   19  C12 UNL     1      21.448  -0.740  54.825  1.00  0.00     0.001 A 
HETATM   20  C13 UNL     1      22.816  -0.858  54.564  1.00  0.00     0.000 A 
HETATM   21  C14 UNL     1      23.378  -0.492  53.358  1.00  0.00     0.001 A 
HETATM   22  C15 UNL     1      22.532   0.014  52.378  1.00  0.00     0.008 A 
ENDBRANCH  15  17
ENDBRANCH  13  15
ENDBRANCH  11  13
ENDBRANCH   4  11
BRANCH   1  23
HETATM   23  N1  UNL     1      26.129   1.875  51.234  1.00  0.00    -0.325 N 
HETATM   24  C3  UNL     1      26.533   1.623  52.571  1.00  0.00     0.221 C 
HETATM   25  O1  UNL     1      26.048   2.504  53.341  1.00  0.00    -0.273 OA
HETATM   26  H6  UNL     1      26.382   1.307  50.386  1.00  0.00     0.169 HD
BRANCH  24  27
HETATM   27  C2  UNL     1      27.389   0.456  52.794  1.00  0.00     0.098 C 
HETATM   28  C1  UNL     1      26.738  -0.837  52.306  1.00  0.00     0.014 C 
ENDBRANCH  24  27
ENDBRANCH   1  23
BRANCH  10  29
HETATM   29  O2  UNL     1      27.167   3.903  49.698  1.00  0.00    -0.354 OA
HETATM   30  C20 UNL     1      27.670   4.749  48.686  1.00  0.00     0.210 C 
ENDBRANCH  10  29
TORSDOF 7
ENDMDL
MODEL 6
REMARK VINA RESULT:      -7.7      1.644      2.044
REMARK  7 active torsions:
REMARK  status: ('A' for Active; 'I' for Inactive)
REMARK    1  A    between atoms: C2_2  and  C3_3 
REMARK       I    between atoms: C3_3  and  N1_5 
REMARK    2  A    between atoms: N1_5  and  C4_6 
REMARK    3  A    between atoms: C7_9  and  N2_10 
REMARK    4  A    between atoms: N2_10  and  P1_11 
REMARK    5  A    between atoms: P1_11  and  C8_12 
REMARK    6  A    between atoms: C8_12  and  C10_14 
REMARK    7  A    between atoms: C19_25  and  O2_26 
ROOT
HETATM    1  C4  UNL     1      24.968   0.926  52.965  1.00  0.00     0.069 A 
HETATM    2  C5  UNL     1      24.935   2.158  52.381  1.00  0.00     0.050 A 
HETATM    3  C6  UNL     1      23.709   2.755  52.182  1.00  0.00     0.041 A 
HETATM    4  C7  UNL     1      23.720   4.002  51.588  1.00  0.00     0.140 A 
HETATM    5  N3  UNL     1      22.555   4.622  51.374  1.00  0.00    -0.224 NA
HETATM    6  C16 UNL     1      21.383   4.044  51.731  1.00  0.00     0.236 A 
HETATM    7  N4  UNL     1      21.339   2.813  52.318  1.00  0.00    -0.241 NA
HETATM    8  C17 UNL     1      22.501   2.167  52.545  1.00  0.00     0.075 A 
HETATM    9  C18 UNL     1      22.590   0.925  53.130  1.00  0.00     0.071 A 
HETATM   10  C19 UNL     1      23.797   0.282  53.353  1.00  0.00     0.097 A 
ENDROOT
BRANCH   4  11
HETATM   11  N2  UNL     1      24.873   4.723  51.165  1.00  0.00    -0.351 N 
HETATM   12  H8  UNL     1      25.505   5.355  51.703  1.00  0.00     0.166 HD
BRANCH  11  13
HETATM   13  P1  UNL     1      25.531   4.696  49.494  1.00  0.00    -0.020 P 
HETATM   14  H9  UNL     1      24.689   3.960  48.579  1.00  0.00     0.081 HD
BRANCH  13  15
HETATM   15  C8  UNL     1      25.915   6.397  48.865  1.00  0.00     0.060 C 
HETATM   16  C9  UNL     1      25.829   7.384  49.986  1.00  0.00     0.021 C 
BRANCH  15  17
HETATM   17  C10 UNL     1      27.318   6.364  48.375  1.00  0.00    -0.049 A 
HETATM   18  C11 UNL     1      28.222   5.334  48.549  1.00  0.00     0.008 A 
HETATM   19  C12 UNL     1      29.507   5.435  48.035  1.00  0.00     0.001 A 
HETATM   20  C13 UNL     1      29.850   6.602  47.345  1.00  0.00     0.000 A 
HETATM   21  C14 UNL     1      28.963   7.644  47.159  1.00  0.00     0.001 A 
HETATM   22  C15 UNL     1      27.685   7.507  47.687  1.00  0.00     0.008 A 
ENDBRANCH  15  17
ENDBRANCH  13  15
ENDBRANCH  11  13
ENDBRANCH   4  11
BRANCH   1  23
HETATM   23  N1  UNL     1      26.165   0.198  53.228  1.00  0.00    -0.325 N 
HETATM   24  C3  UNL     1      26.985   0.617  54.308  1.00  0.00     0.221 C 
HETATM   25  O1  UNL     1      26.469   1.626  54.876  1.00  0.00    -0.273 OA
HETATM   26  H6  UNL     1      26.347  -0.612  52.582  1.00  0.00     0.169 HD
BRANCH  24  27
HETATM   27  C2  UNL     1      28.207  -0.154  54.548  1.00  0.00     0.098 C 
HETATM   28  C1  UNL     1      28.667  -0.905  53.301  1.00  0.00     0.014 C 
ENDBRANCH  24  27
ENDBRANCH   1  23
BRANCH  10  29
HETATM   29  O2  UNL     1      23.783  -0.968  53.948  1.00  0.00    -0.354 OA
HETATM   30  C20 UNL     1      23.086  -1.251  55.142  1.00  0.00     0.210 C 
ENDBRANCH  10  29
TORSDOF 7
ENDMDL
MODEL 7
REMARK VINA RESULT:      -7.6      3.525      6.946
REMARK  7 active torsions:
REMARK  status: ('A' for Active; 'I' for Inactive)
REMARK    1  A    between atoms: C2_2  and  C3_3 
REMARK       I    between atoms: C3_3  and  N1_5 
REMARK    2  A    between atoms: N1_5  and  C4_6 
REMARK    3  A    between atoms: C7_9  and  N2_10 
REMARK    4  A    between atoms: N2_10  and  P1_11 
REMARK    5  A    between atoms: P1_11  and  C8_12 
REMARK    6  A    between atoms: C8_12  and  C10_14 
REMARK    7  A    between atoms: C19_25  and  O2_26 
ROOT
HETATM    1  C4  UNL     1      26.161   0.917  52.259  1.00  0.00     0.069 A 
HETATM    2  C5  UNL     1      24.872   0.496  52.407  1.00  0.00     0.050 A 
HETATM    3  C6  UNL     1      24.533  -0.176  53.562  1.00  0.00     0.041 A 
HETATM    4  C7  UNL     1      23.218  -0.585  53.673  1.00  0.00     0.140 A 
HETATM    5  N3  UNL     1      22.840  -1.240  54.775  1.00  0.00    -0.224 NA
HETATM    6  C16 UNL     1      23.724  -1.501  55.767  1.00  0.00     0.236 A 
HETATM    7  N4  UNL     1      25.029  -1.112  55.687  1.00  0.00    -0.241 NA
HETATM    8  C17 UNL     1      25.436  -0.449  54.585  1.00  0.00     0.075 A 
HETATM    9  C18 UNL     1      26.722  -0.003  54.385  1.00  0.00     0.071 A 
HETATM   10  C19 UNL     1      27.115   0.677  53.244  1.00  0.00     0.097 A 
ENDROOT
BRANCH   4  11
HETATM   11  N2  UNL     1      22.188  -0.378  52.711  1.00  0.00    -0.351 N 
HETATM   12  H8  UNL     1      22.028  -0.839  51.789  1.00  0.00     0.166 HD
BRANCH  11  13
HETATM   13  P1  UNL     1      20.851   0.807  52.894  1.00  0.00    -0.020 P 
HETATM   14  H9  UNL     1      21.250   1.983  53.633  1.00  0.00     0.081 HD
BRANCH  13  15
HETATM   15  C8  UNL     1      20.074   1.243  51.268  1.00  0.00     0.060 C 
HETATM   16  C9  UNL     1      20.954   0.788  50.147  1.00  0.00     0.021 C 
BRANCH  15  17
HETATM   17  C10 UNL     1      18.793   0.494  51.193  1.00  0.00    -0.049 A 
HETATM   18  C11 UNL     1      17.916   0.476  50.125  1.00  0.00     0.008 A 
HETATM   19  C12 UNL     1      16.749  -0.272  50.188  1.00  0.00     0.001 A 
HETATM   20  C13 UNL     1      16.494  -0.995  51.358  1.00  0.00     0.000 A 
HETATM   21  C14 UNL     1      17.354  -0.992  52.437  1.00  0.00     0.001 A 
HETATM   22  C15 UNL     1      18.514  -0.232  52.337  1.00  0.00     0.008 A 
ENDBRANCH  15  17
ENDBRANCH  13  15
ENDBRANCH  11  13
ENDBRANCH   4  11
BRANCH   1  23
HETATM   23  N1  UNL     1      26.646   1.620  51.117  1.00  0.00    -0.325 N 
HETATM   24  C3  UNL     1      26.156   2.931  50.876  1.00  0.00     0.221 C 
HETATM   25  O1  UNL     1      25.326   3.254  51.777  1.00  0.00    -0.273 OA
HETATM   26  H6  UNL     1      27.344   1.095  50.533  1.00  0.00     0.169 HD
BRANCH  24  27
HETATM   27  C2  UNL     1      26.675   3.623  49.694  1.00  0.00     0.098 C 
HETATM   28  C1  UNL     1      25.826   4.835  49.319  1.00  0.00     0.014 C 
ENDBRANCH  24  27
ENDBRANCH   1  23
BRANCH  10  29
HETATM   29  O2  UNL     1      28.433   1.086  53.135  1.00  0.00    -0.354 OA
HETATM   30  C20 UNL     1      29.499   0.457  53.813  1.00  0.00     0.210 C 
ENDBRANCH  10  29
TORSDOF 7
ENDMDL
MODEL 8
REMARK VINA RESULT:      -7.5      3.351      5.916
REMARK  7 active torsions:
REMARK  status: ('A' for Active; 'I' for Inactive)
REMARK    1  A    between atoms: C2_2  and  C3_3 
REMARK       I    between atoms: C3_3  and  N1_5 
REMARK    2  A    between atoms: N1_5  and  C4_6 
REMARK    3  A    between atoms: C7_9  and  N2_10 
REMARK    4  A    between atoms: N2_10  and  P1_11 
REMARK    5  A    between atoms: P1_11  and  C8_12 
REMARK    6  A    between atoms: C8_12  and  C10_14 
REMARK    7  A    between atoms: C19_25  and  O2_26 
ROOT
HETATM    1  C4  UNL     1      20.570   0.334  52.366  1.00  0.00     0.069 A 
HETATM    2  C5  UNL     1      21.924   0.458  52.463  1.00  0.00     0.050 A 
HETATM    3  C6  UNL     1      22.571  -0.212  53.479  1.00  0.00     0.041 A 
HETATM    4  C7  UNL     1      23.943  -0.060  53.541  1.00  0.00     0.140 A 
HETATM    5  N3  UNL     1      24.616  -0.690  54.510  1.00  0.00    -0.224 NA
HETATM    6  C16 UNL     1      23.970  -1.463  55.416  1.00  0.00     0.236 A 
HETATM    7  N4  UNL     1      22.617  -1.631  55.382  1.00  0.00    -0.241 NA
HETATM    8  C17 UNL     1      21.915  -1.007  54.414  1.00  0.00     0.075 A 
HETATM    9  C18 UNL     1      20.550  -1.097  54.273  1.00  0.00     0.071 A 
HETATM   10  C19 UNL     1      19.852  -0.445  53.269  1.00  0.00     0.097 A 
ENDROOT
BRANCH   4  11
HETATM   11  N2  UNL     1      24.745   0.718  52.658  1.00  0.00    -0.351 N 
HETATM   12  H8  UNL     1      25.257   0.437  51.793  1.00  0.00     0.166 HD
BRANCH  11  13
HETATM   13  P1  UNL     1      25.068   2.472  52.860  1.00  0.00    -0.020 P 
HETATM   14  H9  UNL     1      26.478   2.786  52.803  1.00  0.00     0.081 HD
BRANCH  13  15
HETATM   15  C8  UNL     1      24.082   3.507  51.681  1.00  0.00     0.060 C 
HETATM   16  C9  UNL     1      23.445   4.646  52.414  1.00  0.00     0.021 C 
BRANCH  15  17
HETATM   17  C10 UNL     1      25.042   4.063  50.693  1.00  0.00    -0.049 A 
HETATM   18  C11 UNL     1      26.108   3.395  50.120  1.00  0.00     0.008 A 
HETATM   19  C12 UNL     1      26.930   4.038  49.206  1.00  0.00     0.001 A 
HETATM   20  C13 UNL     1      26.646   5.371  48.891  1.00  0.00     0.000 A 
HETATM   21  C14 UNL     1      25.588   6.059  49.450  1.00  0.00     0.001 A 
HETATM   22  C15 UNL     1      24.786   5.382  50.361  1.00  0.00     0.008 A 
ENDBRANCH  15  17
ENDBRANCH  13  15
ENDBRANCH  11  13
ENDBRANCH   4  11
BRANCH   1  23
HETATM   23  N1  UNL     1      19.778   0.971  51.366  1.00  0.00    -0.325 N 
HETATM   24  C3  UNL     1      19.396   2.323  51.568  1.00  0.00     0.221 C 
HETATM   25  O1  UNL     1      19.859   2.741  52.671  1.00  0.00    -0.273 OA
HETATM   26  H6  UNL     1      19.536   0.369  50.538  1.00  0.00     0.169 HD
BRANCH  24  27
HETATM   27  C2  UNL     1      18.583   2.944  50.521  1.00  0.00     0.098 C 
HETATM   28  C1  UNL     1      18.214   1.955  49.417  1.00  0.00     0.014 C 
ENDBRANCH  24  27
ENDBRANCH   1  23
BRANCH  10  29
HETATM   29  O2  UNL     1      18.477  -0.599  53.209  1.00  0.00    -0.354 OA
HETATM   30  C20 UNL     1      17.817  -1.809  53.510  1.00  0.00     0.210 C 
ENDBRANCH  10  29
TORSDOF 7
ENDMDL
MODEL 9
REMARK VINA RESULT:      -7.5      2.397      4.923
REMARK  7 active torsions:
REMARK  status: ('A' for Active; 'I' for Inactive)
REMARK    1  A    between atoms: C2_2  and  C3_3 
REMARK       I    between atoms: C3_3  and  N1_5 
REMARK    2  A    between atoms: N1_5  and  C4_6 
REMARK    3  A    between atoms: C7_9  and  N2_10 
REMARK    4  A    between atoms: N2_10  and  P1_11 
REMARK    5  A    between atoms: P1_11  and  C8_12 
REMARK    6  A    between atoms: C8_12  and  C10_14 
REMARK    7  A    between atoms: C19_25  and  O2_26 
ROOT
HETATM    1  C4  UNL     1      22.658   1.325  52.713  1.00  0.00     0.069 A 
HETATM    2  C5  UNL     1      23.841   1.890  52.339  1.00  0.00     0.050 A 
HETATM    3  C6  UNL     1      25.009   1.234  52.661  1.00  0.00     0.041 A 
HETATM    4  C7  UNL     1      26.186   1.840  52.263  1.00  0.00     0.140 A 
HETATM    5  N3  UNL     1      27.346   1.242  52.553  1.00  0.00    -0.224 NA
HETATM    6  C16 UNL     1      27.374   0.065  53.223  1.00  0.00     0.236 A 
HETATM    7  N4  UNL     1      26.230  -0.558  53.629  1.00  0.00    -0.241 NA
HETATM    8  C17 UNL     1      25.047   0.025  53.349  1.00  0.00     0.075 A 
HETATM    9  C18 UNL     1      23.826  -0.502  53.703  1.00  0.00     0.071 A 
HETATM   10  C19 UNL     1      22.623   0.117  53.403  1.00  0.00     0.097 A 
ENDROOT
BRANCH   4  11
HETATM   11  N2  UNL     1      26.302   3.071  51.557  1.00  0.00    -0.351 N 
HETATM   12  H8  UNL     1      26.374   4.048  51.917  1.00  0.00     0.166 HD
BRANCH  11  13
HETATM   13  P1  UNL     1      26.349   3.214  49.768  1.00  0.00    -0.020 P 
HETATM   14  H9  UNL     1      25.794   2.057  49.104  1.00  0.00     0.081 HD
BRANCH  13  15
HETATM   15  C8  UNL     1      25.578   4.790  49.170  1.00  0.00     0.060 C 
HETATM   16  C9  UNL     1      24.822   5.441  50.286  1.00  0.00     0.021 C 
BRANCH  15  17
HETATM   17  C10 UNL     1      26.693   5.688  48.773  1.00  0.00    -0.049 A 
HETATM   18  C11 UNL     1      26.624   7.059  48.614  1.00  0.00     0.008 A 
HETATM   19  C12 UNL     1      27.749   7.779  48.238  1.00  0.00     0.001 A 
HETATM   20  C13 UNL     1      28.939   7.075  48.026  1.00  0.00     0.000 A 
HETATM   21  C14 UNL     1      29.032   5.707  48.178  1.00  0.00     0.001 A 
HETATM   22  C15 UNL     1      27.885   5.019  48.557  1.00  0.00     0.008 A 
ENDBRANCH  15  17
ENDBRANCH  13  15
ENDBRANCH  11  13
ENDBRANCH   4  11
BRANCH   1  23
HETATM   23  N1  UNL     1      21.379   1.896  52.444  1.00  0.00    -0.325 N 
HETATM   24  C3  UNL     1      20.758   1.604  51.202  1.00  0.00     0.221 C 
HETATM   25  O1  UNL     1      21.503   0.841  50.516  1.00  0.00    -0.273 OA
HETATM   26  H6  UNL     1      20.991   2.503  53.211  1.00  0.00     0.169 HD
BRANCH  24  27
HETATM   27  C2  UNL     1      19.446   2.208  50.960  1.00  0.00     0.098 C 
HETATM   28  C1  UNL     1      19.369   3.642  51.482  1.00  0.00     0.014 C 
ENDBRANCH  24  27
ENDBRANCH   1  23
BRANCH  10  29
HETATM   29  O2  UNL     1      21.446  -0.493  53.803  1.00  0.00    -0.354 OA
HETATM   30  C20 UNL     1      21.405  -1.648  54.612  1.00  0.00     0.210 C 
ENDBRANCH  10  29
TORSDOF 7
ENDMDL
