MODEL 1
REMARK VINA RESULT:      -9.1      0.000      0.000
REMARK  6 active torsions:
REMARK  status: ('A' for Active; 'I' for Inactive)
REMARK    1  A    between atoms: O1_2  and  C2_3 
REMARK    2  A    between atoms: C7_8  and  C8_9 
REMARK       I    between atoms: C8_9  and  N1_11 
REMARK    3  A    between atoms: N1_11  and  C9_12 
REMARK    4  A    between atoms: C14_17  and  N2_18 
REMARK    5  A    between atoms: N2_18  and  C15_19 
REMARK    6  A    between atoms: C18_23  and  C19_24 
ROOT
HETATM    1  C9  UNL     1      27.772   1.051  53.575  1.00  0.00     0.040 A 
HETATM    2  C10 UNL     1      29.088   1.029  53.639  1.00  0.00     0.028 A 
HETATM    3  C11 UNL     1      29.625  -0.307  53.466  1.00  0.00     0.007 A 
HETATM    4  C12 UNL     1      28.538  -1.079  53.293  1.00  0.00    -0.055 A 
HETATM    5  C13 UNL     1      28.613  -2.546  53.076  1.00  0.00     0.046 C 
HETATM    6  C14 UNL     1      27.231  -0.337  53.337  1.00  0.00     0.178 A 
ENDROOT
BRANCH   6   7
HETATM    7  N2  UNL     1      26.410  -0.780  54.426  1.00  0.00    -0.209 N 
HETATM    8  H15 UNL     1      26.952  -1.117  55.280  1.00  0.00     0.179 HD
BRANCH   7   9
HETATM    9  C15 UNL     1      25.003  -0.835  54.524  1.00  0.00     0.723 A 
HETATM   10  N3  UNL     1      24.403  -1.477  55.548  1.00  0.00    -0.075 NA
HETATM   11  C16 UNL     1      23.074  -1.533  55.680  1.00  0.00     0.139 A 
HETATM   12  C17 UNL     1      22.279  -0.914  54.737  1.00  0.00     0.053 A 
HETATM   13  C18 UNL     1      22.854  -0.247  53.677  1.00  0.00     0.089 A 
HETATM   14  N5  UNL     1      24.192  -0.251  53.638  1.00  0.00    -0.062 NA
BRANCH  13  15
HETATM   15  C19 UNL     1      22.006   0.415  52.688  1.00  0.00     0.011 A 
HETATM   16  C20 UNL     1      22.310   0.405  51.349  1.00  0.00     0.017 A 
HETATM   17  C21 UNL     1      21.375   1.077  50.602  1.00  0.00     0.020 A 
HETATM   18  C22 UNL     1      20.222   1.728  51.037  1.00  0.00     0.116 A 
HETATM   19  N4  UNL     1      20.028   1.670  52.386  1.00  0.00    -0.272 NA
HETATM   20  C23 UNL     1      20.894   1.030  53.211  1.00  0.00     0.130 A 
ENDBRANCH  13  15
ENDBRANCH   7   9
ENDBRANCH   6   7
BRANCH   1  21
HETATM   21  N1  UNL     1      26.987   2.226  53.715  1.00  0.00    -0.324 N 
HETATM   22  C8  UNL     1      26.177   2.529  52.645  1.00  0.00     0.258 C 
HETATM   23  O2  UNL     1      26.180   1.753  51.619  1.00  0.00    -0.267 OA
HETATM   24  H8  UNL     1      26.739   3.020  54.329  1.00  0.00     0.169 HD
BRANCH  22  25
HETATM   25  C7  UNL     1      25.254   3.143  51.785  1.00  0.00     0.065 A 
HETATM   26  C2  UNL     1      24.361   3.739  50.949  1.00  0.00     0.084 A 
HETATM   27  C3  UNL     1      24.224   4.296  49.734  1.00  0.00     0.038 A 
HETATM   28  C4  UNL     1      25.348   4.337  48.941  1.00  0.00     0.003 A 
HETATM   29  C5  UNL     1      26.519   3.786  49.502  1.00  0.00     0.001 A 
HETATM   30  C6  UNL     1      26.428   3.237  50.839  1.00  0.00     0.020 A 
BRANCH  26  31
HETATM   31  O1  UNL     1      23.433   3.530  52.017  1.00  0.00    -0.355 OA
HETATM   32  C1  UNL     1      22.444   4.414  52.398  1.00  0.00     0.210 C 
ENDBRANCH  26  31
ENDBRANCH  22  25
ENDBRANCH   1  21
TORSDOF 6
ENDMDL
MODEL 2
REMARK VINA RESULT:      -8.9      1.285      1.664
REMARK  6 active torsions:
REMARK  status: ('A' for Active; 'I' for Inactive)
REMARK    1  A    between atoms: O1_2  and  C2_3 
REMARK    2  A    between atoms: C7_8  and  C8_9 
REMARK       I    between atoms: C8_9  and  N1_11 
REMARK    3  A    between atoms: N1_11  and  C9_12 
REMARK    4  A    between atoms: C14_17  and  N2_18 
REMARK    5  A    between atoms: N2_18  and  C15_19 
REMARK    6  A    between atoms: C18_23  and  C19_24 
ROOT
HETATM    1  C9  UNL     1      26.805   1.725  53.214  1.00  0.00     0.040 A 
HETATM    2  C10 UNL     1      28.044   2.114  53.434  1.00  0.00     0.028 A 
HETATM    3  C11 UNL     1      28.970   0.999  53.487  1.00  0.00     0.007 A 
HETATM    4  C12 UNL     1      28.196  -0.081  53.282  1.00  0.00    -0.055 A 
HETATM    5  C13 UNL     1      28.731  -1.466  53.254  1.00  0.00     0.046 C 
HETATM    6  C14 UNL     1      26.737   0.224  53.084  1.00  0.00     0.178 A 
ENDROOT
BRANCH   6   7
HETATM    7  N2  UNL     1      25.932  -0.363  54.115  1.00  0.00    -0.209 N 
HETATM    8  H15 UNL     1      26.483  -0.746  54.943  1.00  0.00     0.179 HD
BRANCH   7   9
HETATM    9  C15 UNL     1      24.529  -0.505  54.187  1.00  0.00     0.723 A 
HETATM   10  N3  UNL     1      23.956  -1.261  55.145  1.00  0.00    -0.075 NA
HETATM   11  C16 UNL     1      22.630  -1.402  55.252  1.00  0.00     0.139 A 
HETATM   12  C17 UNL     1      21.812  -0.753  54.350  1.00  0.00     0.053 A 
HETATM   13  C18 UNL     1      22.359   0.030  53.357  1.00  0.00     0.089 A 
HETATM   14  N5  UNL     1      23.696   0.104  53.338  1.00  0.00    -0.062 NA
BRANCH  13  15
HETATM   15  C19 UNL     1      21.486   0.722  52.412  1.00  0.00     0.011 A 
HETATM   16  C20 UNL     1      20.975   0.095  51.302  1.00  0.00     0.017 A 
HETATM   17  C21 UNL     1      20.174   0.928  50.561  1.00  0.00     0.020 A 
HETATM   18  C22 UNL     1      19.849   2.260  50.804  1.00  0.00     0.116 A 
HETATM   19  N4  UNL     1      20.416   2.773  51.934  1.00  0.00    -0.272 NA
HETATM   20  C23 UNL     1      21.222   2.032  52.734  1.00  0.00     0.130 A 
ENDBRANCH  13  15
ENDBRANCH   7   9
ENDBRANCH   6   7
BRANCH   1  21
HETATM   21  N1  UNL     1      25.696   2.608  53.118  1.00  0.00    -0.324 N 
HETATM   22  C8  UNL     1      25.500   3.180  51.883  1.00  0.00     0.258 C 
HETATM   23  O2  UNL     1      26.304   2.888  50.922  1.00  0.00    -0.267 OA
HETATM   24  H8  UNL     1      24.904   3.042  53.620  1.00  0.00     0.169 HD
BRANCH  22  25
HETATM   25  C7  UNL     1      24.994   3.933  50.811  1.00  0.00     0.065 A 
HETATM   26  C2  UNL     1      24.502   4.660  49.773  1.00  0.00     0.084 A 
HETATM   27  C3  UNL     1      23.656   4.618  48.730  1.00  0.00     0.038 A 
HETATM   28  C4  UNL     1      22.968   3.442  48.537  1.00  0.00     0.003 A 
HETATM   29  C5  UNL     1      23.234   2.413  49.464  1.00  0.00     0.001 A 
HETATM   30  C6  UNL     1      24.192   2.687  50.515  1.00  0.00     0.020 A 
BRANCH  26  31
HETATM   31  O1  UNL     1      25.364   5.689  50.265  1.00  0.00    -0.355 OA
HETATM   32  C1  UNL     1      25.000   7.005  50.466  1.00  0.00     0.210 C 
ENDBRANCH  26  31
ENDBRANCH  22  25
ENDBRANCH   1  21
TORSDOF 6
ENDMDL
MODEL 3
REMARK VINA RESULT:      -8.7      1.876      5.626
REMARK  6 active torsions:
REMARK  status: ('A' for Active; 'I' for Inactive)
REMARK    1  A    between atoms: O1_2  and  C2_3 
REMARK    2  A    between atoms: C7_8  and  C8_9 
REMARK       I    between atoms: C8_9  and  N1_11 
REMARK    3  A    between atoms: N1_11  and  C9_12 
REMARK    4  A    between atoms: C14_17  and  N2_18 
REMARK    5  A    between atoms: N2_18  and  C15_19 
REMARK    6  A    between atoms: C18_23  and  C19_24 
ROOT
HETATM    1  C9  UNL     1      24.854   3.905  50.786  1.00  0.00     0.040 A 
HETATM    2  C10 UNL     1      25.876   4.466  50.172  1.00  0.00     0.028 A 
HETATM    3  C11 UNL     1      25.476   5.172  48.970  1.00  0.00     0.007 A 
HETATM    4  C12 UNL     1      24.144   4.994  48.911  1.00  0.00    -0.055 A 
HETATM    5  C13 UNL     1      23.299   5.553  47.826  1.00  0.00     0.046 C 
HETATM    6  C14 UNL     1      23.573   4.178  50.038  1.00  0.00     0.178 A 
ENDROOT
BRANCH   6   7
HETATM    7  N2  UNL     1      22.970   2.969  49.559  1.00  0.00    -0.209 N 
HETATM    8  H15 UNL     1      23.189   2.737  48.542  1.00  0.00     0.179 HD
BRANCH   7   9
HETATM    9  C15 UNL     1      22.135   2.053  50.236  1.00  0.00     0.723 A 
HETATM   10  N3  UNL     1      20.888   1.793  49.794  1.00  0.00    -0.075 NA
HETATM   11  C16 UNL     1      20.078   0.919  50.402  1.00  0.00     0.139 A 
HETATM   12  C17 UNL     1      20.529   0.255  51.524  1.00  0.00     0.053 A 
HETATM   13  C18 UNL     1      21.798   0.492  52.006  1.00  0.00     0.089 A 
HETATM   14  N5  UNL     1      22.527   1.385  51.325  1.00  0.00    -0.062 NA
BRANCH  13  15
HETATM   15  C19 UNL     1      22.272  -0.223  53.189  1.00  0.00     0.011 A 
HETATM   16  C20 UNL     1      23.586  -0.181  53.584  1.00  0.00     0.017 A 
HETATM   17  C21 UNL     1      23.807  -0.914  54.723  1.00  0.00     0.020 A 
HETATM   18  C22 UNL     1      22.892  -1.651  55.471  1.00  0.00     0.116 A 
HETATM   19  N4  UNL     1      21.620  -1.618  54.980  1.00  0.00    -0.272 NA
HETATM   20  C23 UNL     1      21.298  -0.922  53.861  1.00  0.00     0.130 A 
ENDBRANCH  13  15
ENDBRANCH   7   9
ENDBRANCH   6   7
BRANCH   1  21
HETATM   21  N1  UNL     1      24.961   3.150  51.985  1.00  0.00    -0.324 N 
HETATM   22  C8  UNL     1      25.966   2.211  52.005  1.00  0.00     0.258 C 
HETATM   23  O2  UNL     1      26.722   2.079  50.973  1.00  0.00    -0.267 OA
HETATM   24  H8  UNL     1      24.577   2.991  52.931  1.00  0.00     0.169 HD
BRANCH  22  25
HETATM   25  C7  UNL     1      26.845   1.187  52.390  1.00  0.00     0.065 A 
HETATM   26  C2  UNL     1      27.699   0.198  52.766  1.00  0.00     0.084 A 
HETATM   27  C3  UNL     1      28.832  -0.053  53.444  1.00  0.00     0.038 A 
HETATM   28  C4  UNL     1      29.458   1.027  54.025  1.00  0.00     0.003 A 
HETATM   29  C5  UNL     1      28.831   2.276  53.838  1.00  0.00     0.001 A 
HETATM   30  C6  UNL     1      27.607   2.305  53.064  1.00  0.00     0.020 A 
BRANCH  26  31
HETATM   31  O1  UNL     1      26.805  -0.657  52.049  1.00  0.00    -0.355 OA
HETATM   32  C1  UNL     1      26.589  -1.992  52.320  1.00  0.00     0.210 C 
ENDBRANCH  26  31
ENDBRANCH  22  25
ENDBRANCH   1  21
TORSDOF 6
ENDMDL
MODEL 4
REMARK VINA RESULT:      -8.7      1.982      6.306
REMARK  6 active torsions:
REMARK  status: ('A' for Active; 'I' for Inactive)
REMARK    1  A    between atoms: O1_2  and  C2_3 
REMARK    2  A    between atoms: C7_8  and  C8_9 
REMARK       I    between atoms: C8_9  and  N1_11 
REMARK    3  A    between atoms: N1_11  and  C9_12 
REMARK    4  A    between atoms: C14_17  and  N2_18 
REMARK    5  A    between atoms: N2_18  and  C15_19 
REMARK    6  A    between atoms: C18_23  and  C19_24 
ROOT
HETATM    1  C9  UNL     1      23.332   0.012  53.235  1.00  0.00     0.040 A 
HETATM    2  C10 UNL     1      23.338  -0.816  54.259  1.00  0.00     0.028 A 
HETATM    3  C11 UNL     1      22.008  -1.291  54.591  1.00  0.00     0.007 A 
HETATM    4  C12 UNL     1      21.210  -0.689  53.692  1.00  0.00    -0.055 A 
HETATM    5  C13 UNL     1      19.739  -0.887  53.655  1.00  0.00     0.046 C 
HETATM    6  C14 UNL     1      21.927   0.208  52.721  1.00  0.00     0.178 A 
ENDROOT
BRANCH   6   7
HETATM    7  N2  UNL     1      21.500   1.571  52.850  1.00  0.00    -0.209 N 
HETATM    8  H15 UNL     1      20.908   1.770  53.713  1.00  0.00     0.179 HD
BRANCH   7   9
HETATM    9  C15 UNL     1      21.749   2.672  52.003  1.00  0.00     0.723 A 
HETATM   10  N3  UNL     1      20.781   3.572  51.732  1.00  0.00    -0.075 NA
HETATM   11  C16 UNL     1      20.988   4.636  50.948  1.00  0.00     0.139 A 
HETATM   12  C17 UNL     1      22.237   4.826  50.392  1.00  0.00     0.053 A 
HETATM   13  C18 UNL     1      23.252   3.930  50.645  1.00  0.00     0.089 A 
HETATM   14  N5  UNL     1      22.940   2.900  51.442  1.00  0.00    -0.062 NA
BRANCH  13  15
HETATM   15  C19 UNL     1      24.574   4.143  50.060  1.00  0.00     0.011 A 
HETATM   16  C20 UNL     1      25.557   3.187  50.122  1.00  0.00     0.017 A 
HETATM   17  C21 UNL     1      26.712   3.594  49.501  1.00  0.00     0.020 A 
HETATM   18  C22 UNL     1      26.972   4.801  48.858  1.00  0.00     0.116 A 
HETATM   19  N4  UNL     1      25.920   5.670  48.863  1.00  0.00    -0.272 NA
HETATM   20  C23 UNL     1      24.736   5.363  49.448  1.00  0.00     0.130 A 
ENDBRANCH  13  15
ENDBRANCH   7   9
ENDBRANCH   6   7
BRANCH   1  21
HETATM   21  N1  UNL     1      24.495   0.629  52.701  1.00  0.00    -0.324 N 
HETATM   22  C8  UNL     1      25.687   0.230  53.261  1.00  0.00     0.258 C 
HETATM   23  O2  UNL     1      25.675  -0.648  54.200  1.00  0.00    -0.267 OA
HETATM   24  H8  UNL     1      24.864   1.305  52.012  1.00  0.00     0.169 HD
BRANCH  22  25
HETATM   25  C7  UNL     1      27.048   0.082  53.569  1.00  0.00     0.065 A 
HETATM   26  C2  UNL     1      28.367  -0.063  53.865  1.00  0.00     0.084 A 
HETATM   27  C3  UNL     1      29.403  -0.917  53.795  1.00  0.00     0.038 A 
HETATM   28  C4  UNL     1      29.156  -2.145  53.225  1.00  0.00     0.003 A 
HETATM   29  C5  UNL     1      27.836  -2.363  52.779  1.00  0.00     0.001 A 
HETATM   30  C6  UNL     1      26.880  -1.290  52.961  1.00  0.00     0.020 A 
BRANCH  26  31
HETATM   31  O1  UNL     1      28.256   1.265  54.382  1.00  0.00    -0.355 OA
HETATM   32  C1  UNL     1      28.659   2.411  53.729  1.00  0.00     0.210 C 
ENDBRANCH  26  31
ENDBRANCH  22  25
ENDBRANCH   1  21
TORSDOF 6
ENDMDL
MODEL 5
REMARK VINA RESULT:      -8.6      2.350      5.168
REMARK  6 active torsions:
REMARK  status: ('A' for Active; 'I' for Inactive)
REMARK    1  A    between atoms: O1_2  and  C2_3 
REMARK    2  A    between atoms: C7_8  and  C8_9 
REMARK       I    between atoms: C8_9  and  N1_11 
REMARK    3  A    between atoms: N1_11  and  C9_12 
REMARK    4  A    between atoms: C14_17  and  N2_18 
REMARK    5  A    between atoms: N2_18  and  C15_19 
REMARK    6  A    between atoms: C18_23  and  C19_24 
ROOT
HETATM    1  C9  UNL     1      24.437   3.380  51.428  1.00  0.00     0.040 A 
HETATM    2  C10 UNL     1      25.237   3.869  50.503  1.00  0.00     0.028 A 
HETATM    3  C11 UNL     1      24.619   3.883  49.191  1.00  0.00     0.007 A 
HETATM    4  C12 UNL     1      23.394   3.368  49.399  1.00  0.00    -0.055 A 
HETATM    5  C13 UNL     1      22.396   3.190  48.315  1.00  0.00     0.046 C 
HETATM    6  C14 UNL     1      23.112   2.983  50.825  1.00  0.00     0.178 A 
ENDROOT
BRANCH   6   7
HETATM    7  N2  UNL     1      22.871   1.576  50.953  1.00  0.00    -0.209 N 
HETATM    8  H15 UNL     1      23.342   0.976  50.207  1.00  0.00     0.179 HD
BRANCH   7   9
HETATM    9  C15 UNL     1      22.106   0.880  51.914  1.00  0.00     0.723 A 
HETATM   10  N3  UNL     1      22.627   0.561  53.117  1.00  0.00    -0.075 NA
HETATM   11  C16 UNL     1      21.924  -0.082  54.055  1.00  0.00     0.139 A 
HETATM   12  C17 UNL     1      20.617  -0.435  53.790  1.00  0.00     0.053 A 
HETATM   13  C18 UNL     1      20.048  -0.126  52.574  1.00  0.00     0.089 A 
HETATM   14  N5  UNL     1      20.838   0.517  51.705  1.00  0.00    -0.062 NA
BRANCH  13  15
HETATM   15  C19 UNL     1      18.660  -0.495  52.304  1.00  0.00     0.011 A 
HETATM   16  C20 UNL     1      17.984  -0.022  51.207  1.00  0.00     0.017 A 
HETATM   17  C21 UNL     1      16.700  -0.502  51.145  1.00  0.00     0.020 A 
HETATM   18  C22 UNL     1      16.053  -1.365  52.026  1.00  0.00     0.116 A 
HETATM   19  N4  UNL     1      16.826  -1.766  53.077  1.00  0.00    -0.272 NA
HETATM   20  C23 UNL     1      18.107  -1.348  53.229  1.00  0.00     0.130 A 
ENDBRANCH  13  15
ENDBRANCH   7   9
ENDBRANCH   6   7
BRANCH   1  21
HETATM   21  N1  UNL     1      24.788   3.248  52.798  1.00  0.00    -0.324 N 
HETATM   22  C8  UNL     1      25.584   2.168  53.105  1.00  0.00     0.258 C 
HETATM   23  O2  UNL     1      25.949   1.372  52.163  1.00  0.00    -0.267 OA
HETATM   24  H8  UNL     1      24.698   3.651  53.746  1.00  0.00     0.169 HD
BRANCH  22  25
HETATM   25  C7  UNL     1      26.362   1.218  53.783  1.00  0.00     0.065 A 
HETATM   26  C2  UNL     1      27.119   0.299  54.441  1.00  0.00     0.084 A 
HETATM   27  C3  UNL     1      28.367   0.026  54.858  1.00  0.00     0.038 A 
HETATM   28  C4  UNL     1      29.336   0.958  54.566  1.00  0.00     0.003 A 
HETATM   29  C5  UNL     1      28.900   2.098  53.858  1.00  0.00     0.001 A 
HETATM   30  C6  UNL     1      27.496   2.178  53.512  1.00  0.00     0.020 A 
BRANCH  26  31
HETATM   31  O1  UNL     1      25.890  -0.423  54.562  1.00  0.00    -0.355 OA
HETATM   32  C1  UNL     1      25.311  -0.818  55.750  1.00  0.00     0.210 C 
ENDBRANCH  26  31
ENDBRANCH  22  25
ENDBRANCH   1  21
TORSDOF 6
ENDMDL
MODEL 6
REMARK VINA RESULT:      -8.6      2.789      7.420
REMARK  6 active torsions:
REMARK  status: ('A' for Active; 'I' for Inactive)
REMARK    1  A    between atoms: O1_2  and  C2_3 
REMARK    2  A    between atoms: C7_8  and  C8_9 
REMARK       I    between atoms: C8_9  and  N1_11 
REMARK    3  A    between atoms: N1_11  and  C9_12 
REMARK    4  A    between atoms: C14_17  and  N2_18 
REMARK    5  A    between atoms: N2_18  and  C15_19 
REMARK    6  A    between atoms: C18_23  and  C19_24 
ROOT
HETATM    1  C9  UNL     1      23.284   1.176  52.175  1.00  0.00     0.040 A 
HETATM    2  C10 UNL     1      22.232   0.401  52.009  1.00  0.00     0.028 A 
HETATM    3  C11 UNL     1      21.619   0.577  50.706  1.00  0.00     0.007 A 
HETATM    4  C12 UNL     1      22.381   1.509  50.107  1.00  0.00    -0.055 A 
HETATM    5  C13 UNL     1      22.119   2.009  48.733  1.00  0.00     0.046 C 
HETATM    6  C14 UNL     1      23.526   2.012  50.943  1.00  0.00     0.178 A 
ENDROOT
BRANCH   6   7
HETATM    7  N2  UNL     1      23.401   3.413  51.219  1.00  0.00    -0.209 N 
HETATM    8  H15 UNL     1      22.973   3.641  52.168  1.00  0.00     0.179 HD
BRANCH   7   9
HETATM    9  C15 UNL     1      23.758   4.520  50.419  1.00  0.00     0.723 A 
HETATM   10  N3  UNL     1      22.841   5.445  50.065  1.00  0.00    -0.075 NA
HETATM   11  C16 UNL     1      23.150   6.514  49.323  1.00  0.00     0.139 A 
HETATM   12  C17 UNL     1      24.453   6.684  48.901  1.00  0.00     0.053 A 
HETATM   13  C18 UNL     1      25.418   5.763  49.244  1.00  0.00     0.089 A 
HETATM   14  N5  UNL     1      25.004   4.730  49.987  1.00  0.00    -0.062 NA
BRANCH  13  15
HETATM   15  C19 UNL     1      26.798   5.956  48.801  1.00  0.00     0.011 A 
HETATM   16  C20 UNL     1      27.659   4.900  48.632  1.00  0.00     0.017 A 
HETATM   17  C21 UNL     1      28.897   5.308  48.203  1.00  0.00     0.020 A 
HETATM   18  C22 UNL     1      29.341   6.602  47.940  1.00  0.00     0.116 A 
HETATM   19  N4  UNL     1      28.397   7.565  48.145  1.00  0.00    -0.272 NA
HETATM   20  C23 UNL     1      27.143   7.265  48.568  1.00  0.00     0.130 A 
ENDBRANCH  13  15
ENDBRANCH   7   9
ENDBRANCH   6   7
BRANCH   1  21
HETATM   21  N1  UNL     1      24.071   1.209  53.357  1.00  0.00    -0.324 N 
HETATM   22  C8  UNL     1      25.368   0.773  53.218  1.00  0.00     0.258 C 
HETATM   23  O2  UNL     1      25.775   0.376  52.064  1.00  0.00    -0.267 OA
HETATM   24  H8  UNL     1      24.091   1.443  54.364  1.00  0.00     0.169 HD
BRANCH  22  25
HETATM   25  C7  UNL     1      26.703   0.415  53.463  1.00  0.00     0.065 A 
HETATM   26  C2  UNL     1      27.996   0.066  53.699  1.00  0.00     0.084 A 
HETATM   27  C3  UNL     1      28.888  -0.931  53.565  1.00  0.00     0.038 A 
HETATM   28  C4  UNL     1      28.436  -2.092  52.981  1.00  0.00     0.003 A 
HETATM   29  C5  UNL     1      27.081  -2.098  52.589  1.00  0.00     0.001 A 
HETATM   30  C6  UNL     1      26.305  -0.900  52.835  1.00  0.00     0.020 A 
BRANCH  26  31
HETATM   31  O1  UNL     1      28.107   1.381  54.247  1.00  0.00    -0.355 OA
HETATM   32  C1  UNL     1      28.650   2.472  53.599  1.00  0.00     0.210 C 
ENDBRANCH  26  31
ENDBRANCH  22  25
ENDBRANCH   1  21
TORSDOF 6
ENDMDL
MODEL 7
REMARK VINA RESULT:      -8.6      2.056      5.689
REMARK  6 active torsions:
REMARK  status: ('A' for Active; 'I' for Inactive)
REMARK    1  A    between atoms: O1_2  and  C2_3 
REMARK    2  A    between atoms: C7_8  and  C8_9 
REMARK       I    between atoms: C8_9  and  N1_11 
REMARK    3  A    between atoms: N1_11  and  C9_12 
REMARK    4  A    between atoms: C14_17  and  N2_18 
REMARK    5  A    between atoms: N2_18  and  C15_19 
REMARK    6  A    between atoms: C18_23  and  C19_24 
ROOT
HETATM    1  C9  UNL     1      25.612   3.538  50.252  1.00  0.00     0.040 A 
HETATM    2  C10 UNL     1      26.526   3.788  49.337  1.00  0.00     0.028 A 
HETATM    3  C11 UNL     1      26.596   5.197  49.000  1.00  0.00     0.007 A 
HETATM    4  C12 UNL     1      25.661   5.769  49.778  1.00  0.00    -0.055 A 
HETATM    5  C13 UNL     1      25.379   7.226  49.766  1.00  0.00     0.046 C 
HETATM    6  C14 UNL     1      24.917   4.811  50.667  1.00  0.00     0.178 A 
ENDROOT
BRANCH   6   7
HETATM    7  N2  UNL     1      23.519   4.779  50.353  1.00  0.00    -0.209 N 
HETATM    8  H15 UNL     1      23.245   5.345  49.493  1.00  0.00     0.179 HD
BRANCH   7   9
HETATM    9  C15 UNL     1      22.465   4.114  51.017  1.00  0.00     0.723 A 
HETATM   10  N3  UNL     1      21.200   4.578  50.951  1.00  0.00    -0.075 NA
HETATM   11  C16 UNL     1      20.177   3.962  51.553  1.00  0.00     0.139 A 
HETATM   12  C17 UNL     1      20.417   2.809  52.271  1.00  0.00     0.053 A 
HETATM   13  C18 UNL     1      21.695   2.302  52.361  1.00  0.00     0.089 A 
HETATM   14  N5  UNL     1      22.647   2.994  51.723  1.00  0.00    -0.062 NA
BRANCH  13  15
HETATM   15  C19 UNL     1      21.940   1.074  53.115  1.00  0.00     0.011 A 
HETATM   16  C20 UNL     1      23.166   0.456  53.117  1.00  0.00     0.017 A 
HETATM   17  C21 UNL     1      23.174  -0.673  53.897  1.00  0.00     0.020 A 
HETATM   18  C22 UNL     1      22.131  -1.222  54.639  1.00  0.00     0.116 A 
HETATM   19  N4  UNL     1      20.963  -0.521  54.557  1.00  0.00    -0.272 NA
HETATM   20  C23 UNL     1      20.852   0.608  53.814  1.00  0.00     0.130 A 
ENDBRANCH  13  15
ENDBRANCH   7   9
ENDBRANCH   6   7
BRANCH   1  21
HETATM   21  N1  UNL     1      25.329   2.243  50.764  1.00  0.00    -0.324 N 
HETATM   22  C8  UNL     1      26.298   1.705  51.579  1.00  0.00     0.258 C 
HETATM   23  O2  UNL     1      27.363   2.385  51.821  1.00  0.00    -0.267 OA
HETATM   24  H8  UNL     1      24.649   1.465  50.792  1.00  0.00     0.169 HD
BRANCH  22  25
HETATM   25  C7  UNL     1      27.028   0.854  52.424  1.00  0.00     0.065 A 
HETATM   26  C2  UNL     1      27.736   0.032  53.244  1.00  0.00     0.084 A 
HETATM   27  C3  UNL     1      28.713   0.007  54.166  1.00  0.00     0.038 A 
HETATM   28  C4  UNL     1      29.296   1.212  54.485  1.00  0.00     0.003 A 
HETATM   29  C5  UNL     1      28.795   2.339  53.801  1.00  0.00     0.001 A 
HETATM   30  C6  UNL     1      27.730   2.124  52.842  1.00  0.00     0.020 A 
BRANCH  26  31
HETATM   31  O1  UNL     1      26.927  -1.002  52.678  1.00  0.00    -0.355 OA
HETATM   32  C1  UNL     1      27.300  -2.324  52.546  1.00  0.00     0.210 C 
ENDBRANCH  26  31
ENDBRANCH  22  25
ENDBRANCH   1  21
TORSDOF 6
ENDMDL
MODEL 8
REMARK VINA RESULT:      -8.6      2.123      6.461
REMARK  6 active torsions:
REMARK  status: ('A' for Active; 'I' for Inactive)
REMARK    1  A    between atoms: O1_2  and  C2_3 
REMARK    2  A    between atoms: C7_8  and  C8_9 
REMARK       I    between atoms: C8_9  and  N1_11 
REMARK    3  A    between atoms: N1_11  and  C9_12 
REMARK    4  A    between atoms: C14_17  and  N2_18 
REMARK    5  A    between atoms: N2_18  and  C15_19 
REMARK    6  A    between atoms: C18_23  and  C19_24 
ROOT
HETATM    1  C9  UNL     1      23.249   4.949  51.662  1.00  0.00     0.040 A 
HETATM    2  C10 UNL     1      23.376   6.219  51.337  1.00  0.00     0.028 A 
HETATM    3  C11 UNL     1      24.435   6.436  50.370  1.00  0.00     0.007 A 
HETATM    4  C12 UNL     1      24.928   5.206  50.140  1.00  0.00    -0.055 A 
HETATM    5  C13 UNL     1      26.046   4.944  49.199  1.00  0.00     0.046 C 
HETATM    6  C14 UNL     1      24.254   4.108  50.916  1.00  0.00     0.178 A 
ENDROOT
BRANCH   6   7
HETATM    7  N2  UNL     1      25.168   3.457  51.808  1.00  0.00    -0.209 N 
HETATM    8  H15 UNL     1      26.016   4.043  52.079  1.00  0.00     0.179 HD
BRANCH   7   9
HETATM    9  C15 UNL     1      25.104   2.163  52.370  1.00  0.00     0.723 A 
HETATM   10  N3  UNL     1      23.930   1.641  52.779  1.00  0.00    -0.075 NA
HETATM   11  C16 UNL     1      23.833   0.412  53.299  1.00  0.00     0.139 A 
HETATM   12  C17 UNL     1      24.973  -0.354  53.426  1.00  0.00     0.053 A 
HETATM   13  C18 UNL     1      26.191   0.143  53.019  1.00  0.00     0.089 A 
HETATM   14  N5  UNL     1      26.179   1.383  52.513  1.00  0.00    -0.062 NA
BRANCH  13  15
HETATM   15  C19 UNL     1      27.393  -0.679  53.147  1.00  0.00     0.011 A 
HETATM   16  C20 UNL     1      28.584  -0.158  53.591  1.00  0.00     0.017 A 
HETATM   17  C21 UNL     1      29.574  -1.107  53.643  1.00  0.00     0.020 A 
HETATM   18  C22 UNL     1      29.500  -2.458  53.311  1.00  0.00     0.116 A 
HETATM   19  N4  UNL     1      28.267  -2.856  52.882  1.00  0.00    -0.272 NA
HETATM   20  C23 UNL     1      27.222  -1.996  52.795  1.00  0.00     0.130 A 
ENDBRANCH  13  15
ENDBRANCH   7   9
ENDBRANCH   6   7
BRANCH   1  21
HETATM   21  N1  UNL     1      22.292   4.456  52.590  1.00  0.00    -0.324 N 
HETATM   22  C8  UNL     1      21.200   3.827  52.037  1.00  0.00     0.258 C 
HETATM   23  O2  UNL     1      21.116   3.727  50.758  1.00  0.00    -0.267 OA
HETATM   24  H8  UNL     1      22.043   4.356  53.588  1.00  0.00     0.169 HD
BRANCH  22  25
HETATM   25  C7  UNL     1      19.987   3.146  51.856  1.00  0.00     0.065 A 
HETATM   26  C2  UNL     1      18.812   2.483  51.680  1.00  0.00     0.084 A 
HETATM   27  C3  UNL     1      18.282   1.282  51.396  1.00  0.00     0.038 A 
HETATM   28  C4  UNL     1      19.166   0.250  51.178  1.00  0.00     0.003 A 
HETATM   29  C5  UNL     1      20.534   0.578  51.282  1.00  0.00     0.001 A 
HETATM   30  C6  UNL     1      20.873   1.949  51.601  1.00  0.00     0.020 A 
BRANCH  26  31
HETATM   31  O1  UNL     1      18.214   3.752  51.955  1.00  0.00    -0.355 OA
HETATM   32  C1  UNL     1      17.204   4.334  51.217  1.00  0.00     0.210 C 
ENDBRANCH  26  31
ENDBRANCH  22  25
ENDBRANCH   1  21
TORSDOF 6
ENDMDL
MODEL 9
REMARK VINA RESULT:      -8.5      2.022      5.996
REMARK  6 active torsions:
REMARK  status: ('A' for Active; 'I' for Inactive)
REMARK    1  A    between atoms: O1_2  and  C2_3 
REMARK    2  A    between atoms: C7_8  and  C8_9 
REMARK       I    between atoms: C8_9  and  N1_11 
REMARK    3  A    between atoms: N1_11  and  C9_12 
REMARK    4  A    between atoms: C14_17  and  N2_18 
REMARK    5  A    between atoms: N2_18  and  C15_19 
REMARK    6  A    between atoms: C18_23  and  C19_24 
ROOT
HETATM    1  C9  UNL     1      21.175   4.126  51.785  1.00  0.00     0.040 A 
HETATM    2  C10 UNL     1      20.119   4.354  51.033  1.00  0.00     0.028 A 
HETATM    3  C11 UNL     1      19.220   3.217  50.986  1.00  0.00     0.007 A 
HETATM    4  C12 UNL     1      19.814   2.295  51.764  1.00  0.00    -0.055 A 
HETATM    5  C13 UNL     1      19.238   0.949  52.009  1.00  0.00     0.046 C 
HETATM    6  C14 UNL     1      21.118   2.737  52.370  1.00  0.00     0.178 A 
ENDROOT
BRANCH   6   7
HETATM    7  N2  UNL     1      22.210   1.925  51.918  1.00  0.00    -0.209 N 
HETATM    8  H15 UNL     1      22.377   1.953  50.866  1.00  0.00     0.179 HD
BRANCH   7   9
HETATM    9  C15 UNL     1      23.083   1.102  52.661  1.00  0.00     0.723 A 
HETATM   10  N3  UNL     1      22.666  -0.081  53.160  1.00  0.00    -0.075 NA
HETATM   11  C16 UNL     1      23.473  -0.892  53.853  1.00  0.00     0.139 A 
HETATM   12  C17 UNL     1      24.781  -0.512  54.070  1.00  0.00     0.053 A 
HETATM   13  C18 UNL     1      25.245   0.687  53.576  1.00  0.00     0.089 A 
HETATM   14  N5  UNL     1      24.358   1.425  52.897  1.00  0.00    -0.062 NA
BRANCH  13  15
HETATM   15  C19 UNL     1      26.636   1.078  53.802  1.00  0.00     0.011 A 
HETATM   16  C20 UNL     1      27.212   2.128  53.130  1.00  0.00     0.017 A 
HETATM   17  C21 UNL     1      28.518   2.325  53.503  1.00  0.00     0.020 A 
HETATM   18  C22 UNL     1      29.271   1.613  54.434  1.00  0.00     0.116 A 
HETATM   19  N4  UNL     1      28.591   0.594  55.035  1.00  0.00    -0.272 NA
HETATM   20  C23 UNL     1      27.297   0.318  54.736  1.00  0.00     0.130 A 
ENDBRANCH  13  15
ENDBRANCH   7   9
ENDBRANCH   6   7
BRANCH   1  21
HETATM   21  N1  UNL     1      22.217   5.067  52.004  1.00  0.00    -0.324 N 
HETATM   22  C8  UNL     1      23.153   5.158  51.000  1.00  0.00     0.258 C 
HETATM   23  O2  UNL     1      23.031   4.412  49.959  1.00  0.00    -0.267 OA
HETATM   24  H8  UNL     1      22.607   5.776  52.648  1.00  0.00     0.169 HD
BRANCH  22  25
HETATM   25  C7  UNL     1      24.262   5.524  50.221  1.00  0.00     0.065 A 
HETATM   26  C2  UNL     1      25.336   5.875  49.465  1.00  0.00     0.084 A 
HETATM   27  C3  UNL     1      26.502   5.426  48.969  1.00  0.00     0.038 A 
HETATM   28  C4  UNL     1      26.847   4.129  49.275  1.00  0.00     0.003 A 
HETATM   29  C5  UNL     1      25.929   3.421  50.079  1.00  0.00     0.001 A 
HETATM   30  C6  UNL     1      24.730   4.115  50.500  1.00  0.00     0.020 A 
BRANCH  26  31
HETATM   31  O1  UNL     1      24.674   7.138  49.357  1.00  0.00    -0.355 OA
HETATM   32  C1  UNL     1      25.011   8.277  50.059  1.00  0.00     0.210 C 
ENDBRANCH  26  31
ENDBRANCH  22  25
ENDBRANCH   1  21
TORSDOF 6
ENDMDL
