MODEL 1
REMARK VINA RESULT:      -6.8      0.000      0.000
REMARK  7 active torsions:
REMARK  status: ('A' for Active; 'I' for Inactive)
REMARK    1  A    between atoms: N1_4  and  C4_5 
REMARK    2  A    between atoms: C4_5  and  C5_6 
REMARK    3  A    between atoms: C4_5  and  C7_9 
REMARK    4  A    between atoms: C5_6  and  C6_7 
REMARK    5  A    between atoms: C10_12  and  N2_13 
REMARK    6  A    between atoms: N2_13  and  C11_14 
REMARK    7  A    between atoms: C11_14  and  C12_15 
ROOT
HETATM    1  C7  UNL     1      24.361   1.631  53.011  1.00  0.00    -0.035 A 
HETATM    2  C8  UNL     1      25.601   2.172  53.398  1.00  0.00     0.011 A 
HETATM    3  C9  UNL     1      26.689   1.492  53.903  1.00  0.00     0.029 A 
HETATM    4  C10 UNL     1      26.554   0.129  54.048  1.00  0.00     0.028 A 
HETATM    5  C13 UNL     1      25.380  -0.503  53.698  1.00  0.00     0.029 A 
HETATM    6  C14 UNL     1      24.353   0.267  53.202  1.00  0.00     0.011 A 
ENDROOT
BRANCH   1   7
HETATM    7  C4  UNL     1      23.298   2.473  52.476  1.00  0.00     0.118 C 
BRANCH   7   8
HETATM    8  N1  UNL     1      22.380   1.867  51.569  1.00  0.00    -0.377 N 
HETATM    9  C3  UNL     1      22.788   2.140  50.206  1.00  0.00     0.093 A 
HETATM   10  C2  UNL     1      22.155   1.809  49.091  1.00  0.00    -0.047 A 
HETATM   11  C1  UNL     1      22.570   2.090  47.686  1.00  0.00     0.049 C 
HETATM   12  C17 UNL     1      20.894   1.045  49.200  1.00  0.00     0.006 A 
HETATM   13  C16 UNL     1      20.577   0.793  50.453  1.00  0.00    -0.007 A 
HETATM   14  C15 UNL     1      21.202   1.100  51.762  1.00  0.00     0.150 A 
ENDBRANCH   7   8
BRANCH   7  15
HETATM   15  C5  UNL     1      23.813   3.744  51.831  1.00  0.00     0.045 C 
BRANCH  15  16
HETATM   16  C6  UNL     1      23.103   4.934  52.485  1.00  0.00     0.117 C 
HETATM   17 CL1  UNL     1      21.640   5.344  51.572  1.00  0.00    -0.130 Cl
ENDBRANCH  15  16
ENDBRANCH   7  15
ENDBRANCH   1   7
BRANCH   4  18
HETATM   18  N2  UNL     1      27.636  -0.616  54.562  1.00  0.00    -0.389 N 
HETATM   19  H12 UNL     1      27.511  -1.585  54.913  1.00  0.00     0.159 HD
BRANCH  18  20
HETATM   20  C11 UNL     1      28.968  -0.011  54.600  1.00  0.00     0.135 C 
BRANCH  20  21
HETATM   21  C12 UNL     1      29.868  -0.658  53.547  1.00  0.00     0.134 C 
HETATM   22 CL2  UNL     1      29.265  -2.288  53.256  1.00  0.00    -0.129 Cl
ENDBRANCH  20  21
ENDBRANCH  18  20
ENDBRANCH   4  18
TORSDOF 7
ENDMDL
MODEL 2
REMARK VINA RESULT:      -6.8      1.779      2.717
REMARK  7 active torsions:
REMARK  status: ('A' for Active; 'I' for Inactive)
REMARK    1  A    between atoms: N1_4  and  C4_5 
REMARK    2  A    between atoms: C4_5  and  C5_6 
REMARK    3  A    between atoms: C4_5  and  C7_9 
REMARK    4  A    between atoms: C5_6  and  C6_7 
REMARK    5  A    between atoms: C10_12  and  N2_13 
REMARK    6  A    between atoms: N2_13  and  C11_14 
REMARK    7  A    between atoms: C11_14  and  C12_15 
ROOT
HETATM    1  C7  UNL     1      24.453   1.472  52.584  1.00  0.00    -0.035 A 
HETATM    2  C8  UNL     1      25.169   2.372  53.396  1.00  0.00     0.011 A 
HETATM    3  C9  UNL     1      26.493   2.291  53.768  1.00  0.00     0.029 A 
HETATM    4  C10 UNL     1      27.203   1.209  53.296  1.00  0.00     0.028 A 
HETATM    5  C13 UNL     1      26.598   0.266  52.493  1.00  0.00     0.029 A 
HETATM    6  C14 UNL     1      25.269   0.440  52.178  1.00  0.00     0.011 A 
ENDROOT
BRANCH   1   7
HETATM    7  C4  UNL     1      23.050   1.693  52.259  1.00  0.00     0.118 C 
BRANCH   7   8
HETATM    8  N1  UNL     1      22.098   0.794  52.825  1.00  0.00    -0.377 N 
HETATM    9  C3  UNL     1      20.912   0.752  51.996  1.00  0.00     0.093 A 
HETATM   10  C2  UNL     1      19.786   0.093  52.227  1.00  0.00    -0.047 A 
HETATM   11  C1  UNL     1      18.561   0.050  51.377  1.00  0.00     0.049 C 
HETATM   12  C17 UNL     1      19.697  -0.735  53.448  1.00  0.00     0.006 A 
HETATM   13  C16 UNL     1      20.807  -0.694  54.155  1.00  0.00    -0.007 A 
HETATM   14  C15 UNL     1      22.112  -0.009  53.995  1.00  0.00     0.150 A 
ENDBRANCH   7   8
BRANCH   7  15
HETATM   15  C5  UNL     1      22.787   1.763  50.768  1.00  0.00     0.045 C 
BRANCH  15  16
HETATM   16  C6  UNL     1      23.058   3.196  50.301  1.00  0.00     0.117 C 
HETATM   17 CL1  UNL     1      24.615   3.277  49.457  1.00  0.00    -0.130 Cl
ENDBRANCH  15  16
ENDBRANCH   7  15
ENDBRANCH   1   7
BRANCH   4  18
HETATM   18  N2  UNL     1      28.562   1.075  53.647  1.00  0.00    -0.389 N 
HETATM   19  H12 UNL     1      29.271   1.776  53.358  1.00  0.00     0.159 HD
BRANCH  18  20
HETATM   20  C11 UNL     1      28.987  -0.080  54.440  1.00  0.00     0.135 C 
BRANCH  20  21
HETATM   21  C12 UNL     1      29.955  -0.943  53.632  1.00  0.00     0.134 C 
HETATM   22 CL2  UNL     1      29.121  -2.439  53.219  1.00  0.00    -0.129 Cl
ENDBRANCH  20  21
ENDBRANCH  18  20
ENDBRANCH   4  18
TORSDOF 7
ENDMDL
MODEL 3
REMARK VINA RESULT:      -6.7      2.021      3.215
REMARK  7 active torsions:
REMARK  status: ('A' for Active; 'I' for Inactive)
REMARK    1  A    between atoms: N1_4  and  C4_5 
REMARK    2  A    between atoms: C4_5  and  C5_6 
REMARK    3  A    between atoms: C4_5  and  C7_9 
REMARK    4  A    between atoms: C5_6  and  C6_7 
REMARK    5  A    between atoms: C10_12  and  N2_13 
REMARK    6  A    between atoms: N2_13  and  C11_14 
REMARK    7  A    between atoms: C11_14  and  C12_15 
ROOT
HETATM    1  C7  UNL     1      24.476   1.734  52.407  1.00  0.00    -0.035 A 
HETATM    2  C8  UNL     1      25.293   2.343  53.378  1.00  0.00     0.011 A 
HETATM    3  C9  UNL     1      26.217   1.730  54.196  1.00  0.00     0.029 A 
HETATM    4  C10 UNL     1      26.363   0.368  54.053  1.00  0.00     0.028 A 
HETATM    5  C13 UNL     1      25.611  -0.328  53.130  1.00  0.00     0.029 A 
HETATM    6  C14 UNL     1      24.715   0.379  52.360  1.00  0.00     0.011 A 
ENDROOT
BRANCH   1   7
HETATM    7  C4  UNL     1      23.547   2.514  51.599  1.00  0.00     0.118 C 
BRANCH   7   8
HETATM    8  N1  UNL     1      23.984   3.798  51.157  1.00  0.00    -0.377 N 
HETATM    9  C3  UNL     1      25.156   3.653  50.319  1.00  0.00     0.093 A 
HETATM   10  C2  UNL     1      25.890   4.615  49.780  1.00  0.00    -0.047 A 
HETATM   11  C1  UNL     1      27.099   4.469  48.919  1.00  0.00     0.049 C 
HETATM   12  C17 UNL     1      25.486   6.018  50.012  1.00  0.00     0.006 A 
HETATM   13  C16 UNL     1      24.400   6.103  50.753  1.00  0.00    -0.007 A 
HETATM   14  C15 UNL     1      23.503   5.111  51.394  1.00  0.00     0.150 A 
ENDBRANCH   7   8
BRANCH   7  15
HETATM   15  C5  UNL     1      22.190   2.689  52.252  1.00  0.00     0.045 C 
BRANCH  15  16
HETATM   16  C6  UNL     1      21.126   2.133  51.300  1.00  0.00     0.117 C 
HETATM   17 CL1  UNL     1      21.884   1.089  50.084  1.00  0.00    -0.130 Cl
ENDBRANCH  15  16
ENDBRANCH   7  15
ENDBRANCH   1   7
BRANCH   4  18
HETATM   18  N2  UNL     1      27.294  -0.311  54.866  1.00  0.00    -0.389 N 
HETATM   19  H12 UNL     1      27.024  -1.143  55.425  1.00  0.00     0.159 HD
BRANCH  18  20
HETATM   20  C11 UNL     1      28.677   0.167  54.924  1.00  0.00     0.135 C 
BRANCH  20  21
HETATM   21  C12 UNL     1      29.383  -0.111  53.596  1.00  0.00     0.134 C 
HETATM   22 CL2  UNL     1      29.504  -1.860  53.410  1.00  0.00    -0.129 Cl
ENDBRANCH  20  21
ENDBRANCH  18  20
ENDBRANCH   4  18
TORSDOF 7
ENDMDL
MODEL 4
REMARK VINA RESULT:      -6.7      3.023      6.378
REMARK  7 active torsions:
REMARK  status: ('A' for Active; 'I' for Inactive)
REMARK    1  A    between atoms: N1_4  and  C4_5 
REMARK    2  A    between atoms: C4_5  and  C5_6 
REMARK    3  A    between atoms: C4_5  and  C7_9 
REMARK    4  A    between atoms: C5_6  and  C6_7 
REMARK    5  A    between atoms: C10_12  and  N2_13 
REMARK    6  A    between atoms: N2_13  and  C11_14 
REMARK    7  A    between atoms: C11_14  and  C12_15 
ROOT
HETATM    1  C7  UNL     1      24.263   1.731  52.653  1.00  0.00    -0.035 A 
HETATM    2  C8  UNL     1      24.212   1.686  51.247  1.00  0.00     0.011 A 
HETATM    3  C9  UNL     1      24.032   2.745  50.383  1.00  0.00     0.029 A 
HETATM    4  C10 UNL     1      23.883   3.990  50.952  1.00  0.00     0.028 A 
HETATM    5  C13 UNL     1      23.917   4.147  52.321  1.00  0.00     0.029 A 
HETATM    6  C14 UNL     1      24.103   3.025  53.097  1.00  0.00     0.011 A 
ENDROOT
BRANCH   1   7
HETATM    7  C4  UNL     1      24.475   0.526  53.444  1.00  0.00     0.118 C 
BRANCH   7   8
HETATM    8  N1  UNL     1      25.750  -0.105  53.343  1.00  0.00    -0.377 N 
HETATM    9  C3  UNL     1      26.776   0.783  53.850  1.00  0.00     0.093 A 
HETATM   10  C2  UNL     1      28.085   0.586  53.859  1.00  0.00    -0.047 A 
HETATM   11  C1  UNL     1      29.144   1.499  54.377  1.00  0.00     0.049 C 
HETATM   12  C17 UNL     1      28.605  -0.691  53.325  1.00  0.00     0.006 A 
HETATM   13  C16 UNL     1      27.638  -1.480  52.904  1.00  0.00    -0.007 A 
HETATM   14  C15 UNL     1      26.161  -1.371  52.853  1.00  0.00     0.150 A 
ENDBRANCH   7   8
BRANCH   7  15
HETATM   15  C5  UNL     1      23.417  -0.534  53.211  1.00  0.00     0.045 C 
BRANCH  15  16
HETATM   16  C6  UNL     1      22.822  -0.922  54.569  1.00  0.00     0.117 C 
HETATM   17 CL1  UNL     1      21.302  -0.050  54.838  1.00  0.00    -0.130 Cl
ENDBRANCH  15  16
ENDBRANCH   7  15
ENDBRANCH   1   7
BRANCH   4  18
HETATM   18  N2  UNL     1      23.695   5.109  50.115  1.00  0.00    -0.389 N 
HETATM   19  H12 UNL     1      22.949   5.807  50.299  1.00  0.00     0.159 HD
BRANCH  18  20
HETATM   20  C11 UNL     1      24.571   5.292  48.956  1.00  0.00     0.135 C 
BRANCH  20  21
HETATM   21  C12 UNL     1      25.975   5.683  49.418  1.00  0.00     0.134 C 
HETATM   22 CL2  UNL     1      27.059   4.352  49.018  1.00  0.00    -0.129 Cl
ENDBRANCH  20  21
ENDBRANCH  18  20
ENDBRANCH   4  18
TORSDOF 7
ENDMDL
MODEL 5
REMARK VINA RESULT:      -6.7      1.995      2.830
REMARK  7 active torsions:
REMARK  status: ('A' for Active; 'I' for Inactive)
REMARK    1  A    between atoms: N1_4  and  C4_5 
REMARK    2  A    between atoms: C4_5  and  C5_6 
REMARK    3  A    between atoms: C4_5  and  C7_9 
REMARK    4  A    between atoms: C5_6  and  C6_7 
REMARK    5  A    between atoms: C10_12  and  N2_13 
REMARK    6  A    between atoms: N2_13  and  C11_14 
REMARK    7  A    between atoms: C11_14  and  C12_15 
ROOT
HETATM    1  C7  UNL     1      23.841   0.672  53.051  1.00  0.00    -0.035 A 
HETATM    2  C8  UNL     1      24.181  -0.535  53.691  1.00  0.00     0.011 A 
HETATM    3  C9  UNL     1      25.385  -0.859  54.278  1.00  0.00     0.029 A 
HETATM    4  C10 UNL     1      26.372   0.101  54.238  1.00  0.00     0.028 A 
HETATM    5  C13 UNL     1      26.144   1.320  53.636  1.00  0.00     0.029 A 
HETATM    6  C14 UNL     1      24.906   1.545  53.079  1.00  0.00     0.011 A 
ENDROOT
BRANCH   1   7
HETATM    7  C4  UNL     1      22.516   0.884  52.484  1.00  0.00     0.118 C 
BRANCH   7   8
HETATM    8  N1  UNL     1      22.335   2.033  51.658  1.00  0.00    -0.377 N 
HETATM    9  C3  UNL     1      22.439   1.653  50.264  1.00  0.00     0.093 A 
HETATM   10  C2  UNL     1      22.399   2.447  49.205  1.00  0.00    -0.047 A 
HETATM   11  C1  UNL     1      22.509   2.060  47.768  1.00  0.00     0.049 C 
HETATM   12  C17 UNL     1      22.197   3.895  49.421  1.00  0.00     0.006 A 
HETATM   13  C16 UNL     1      22.077   4.192  50.698  1.00  0.00    -0.007 A 
HETATM   14  C15 UNL     1      22.096   3.400  51.952  1.00  0.00     0.150 A 
ENDBRANCH   7   8
BRANCH   7  15
HETATM   15  C5  UNL     1      21.415   0.888  53.526  1.00  0.00     0.045 C 
BRANCH  15  16
HETATM   16  C6  UNL     1      20.463  -0.274  53.220  1.00  0.00     0.117 C 
HETATM   17 CL1  UNL     1      20.816  -1.646  54.286  1.00  0.00    -0.130 Cl
ENDBRANCH  15  16
ENDBRANCH   7  15
ENDBRANCH   1   7
BRANCH   4  18
HETATM   18  N2  UNL     1      27.624  -0.179  54.823  1.00  0.00    -0.389 N 
HETATM   19  H12 UNL     1      27.774  -1.020  55.413  1.00  0.00     0.159 HD
BRANCH  18  20
HETATM   20  C11 UNL     1      28.742   0.737  54.594  1.00  0.00     0.135 C 
BRANCH  20  21
HETATM   21  C12 UNL     1      29.734   0.117  53.609  1.00  0.00     0.134 C 
HETATM   22 CL2  UNL     1      29.350  -1.597  53.471  1.00  0.00    -0.129 Cl
ENDBRANCH  20  21
ENDBRANCH  18  20
ENDBRANCH   4  18
TORSDOF 7
ENDMDL
MODEL 6
REMARK VINA RESULT:      -6.7      3.181      6.820
REMARK  7 active torsions:
REMARK  status: ('A' for Active; 'I' for Inactive)
REMARK    1  A    between atoms: N1_4  and  C4_5 
REMARK    2  A    between atoms: C4_5  and  C5_6 
REMARK    3  A    between atoms: C4_5  and  C7_9 
REMARK    4  A    between atoms: C5_6  and  C6_7 
REMARK    5  A    between atoms: C10_12  and  N2_13 
REMARK    6  A    between atoms: N2_13  and  C11_14 
REMARK    7  A    between atoms: C11_14  and  C12_15 
ROOT
HETATM    1  C7  UNL     1      25.138   2.083  52.668  1.00  0.00    -0.035 A 
HETATM    2  C8  UNL     1      25.449   2.202  51.300  1.00  0.00     0.011 A 
HETATM    3  C9  UNL     1      25.044   3.194  50.434  1.00  0.00     0.029 A 
HETATM    4  C10 UNL     1      24.244   4.185  50.959  1.00  0.00     0.028 A 
HETATM    5  C13 UNL     1      23.879   4.166  52.288  1.00  0.00     0.029 A 
HETATM    6  C14 UNL     1      24.338   3.129  53.070  1.00  0.00     0.011 A 
ENDROOT
BRANCH   1   7
HETATM    7  C4  UNL     1      25.651   0.980  53.470  1.00  0.00     0.118 C 
BRANCH   7   8
HETATM    8  N1  UNL     1      27.067   0.819  53.529  1.00  0.00    -0.377 N 
HETATM    9  C3  UNL     1      27.411  -0.570  53.306  1.00  0.00     0.093 A 
HETATM   10  C2  UNL     1      28.613  -1.124  53.355  1.00  0.00    -0.047 A 
HETATM   11  C1  UNL     1      28.970  -2.554  53.129  1.00  0.00     0.049 C 
HETATM   12  C17 UNL     1      29.774  -0.255  53.639  1.00  0.00     0.006 A 
HETATM   13  C16 UNL     1      29.421   1.003  53.804  1.00  0.00    -0.007 A 
HETATM   14  C15 UNL     1      28.129   1.730  53.764  1.00  0.00     0.150 A 
ENDBRANCH   7   8
BRANCH   7  15
HETATM   15  C5  UNL     1      25.051  -0.360  53.095  1.00  0.00     0.045 C 
BRANCH  15  16
HETATM   16  C6  UNL     1      23.765  -0.552  53.907  1.00  0.00     0.117 C 
HETATM   17 CL1  UNL     1      22.357  -0.522  52.831  1.00  0.00    -0.130 Cl
ENDBRANCH  15  16
ENDBRANCH   7  15
ENDBRANCH   1   7
BRANCH   4  18
HETATM   18  N2  UNL     1      23.800   5.226  50.117  1.00  0.00    -0.389 N 
HETATM   19  H12 UNL     1      22.943   5.771  50.331  1.00  0.00     0.159 HD
BRANCH  18  20
HETATM   20  C11 UNL     1      24.564   5.547  48.910  1.00  0.00     0.135 C 
BRANCH  20  21
HETATM   21  C12 UNL     1      25.821   6.334  49.280  1.00  0.00     0.134 C 
HETATM   22 CL2  UNL     1      27.197   5.532  48.525  1.00  0.00    -0.129 Cl
ENDBRANCH  20  21
ENDBRANCH  18  20
ENDBRANCH   4  18
TORSDOF 7
ENDMDL
MODEL 7
REMARK VINA RESULT:      -6.6      2.292      3.299
REMARK  7 active torsions:
REMARK  status: ('A' for Active; 'I' for Inactive)
REMARK    1  A    between atoms: N1_4  and  C4_5 
REMARK    2  A    between atoms: C4_5  and  C5_6 
REMARK    3  A    between atoms: C4_5  and  C7_9 
REMARK    4  A    between atoms: C5_6  and  C6_7 
REMARK    5  A    between atoms: C10_12  and  N2_13 
REMARK    6  A    between atoms: N2_13  and  C11_14 
REMARK    7  A    between atoms: C11_14  and  C12_15 
ROOT
HETATM    1  C7  UNL     1      24.049   0.487  52.908  1.00  0.00    -0.035 A 
HETATM    2  C8  UNL     1      25.125  -0.386  52.659  1.00  0.00     0.011 A 
HETATM    3  C9  UNL     1      26.469  -0.119  52.806  1.00  0.00     0.029 A 
HETATM    4  C10 UNL     1      26.805   1.142  53.247  1.00  0.00     0.028 A 
HETATM    5  C13 UNL     1      25.828   2.076  53.521  1.00  0.00     0.029 A 
HETATM    6  C14 UNL     1      24.513   1.709  53.342  1.00  0.00     0.011 A 
ENDROOT
BRANCH   1   7
HETATM    7  C4  UNL     1      22.667   0.062  52.721  1.00  0.00     0.118 C 
BRANCH   7   8
HETATM    8  N1  UNL     1      21.957   0.617  51.617  1.00  0.00    -0.377 N 
HETATM    9  C3  UNL     1      20.551   0.289  51.725  1.00  0.00     0.093 A 
HETATM   10  C2  UNL     1      19.586   0.563  50.860  1.00  0.00    -0.047 A 
HETATM   11  C1  UNL     1      18.138   0.224  50.967  1.00  0.00     0.049 C 
HETATM   12  C17 UNL     1      19.935   1.319  49.638  1.00  0.00     0.006 A 
HETATM   13  C16 UNL     1      21.216   1.624  49.595  1.00  0.00    -0.007 A 
HETATM   14  C15 UNL     1      22.369   1.381  50.494  1.00  0.00     0.150 A 
ENDBRANCH   7   8
BRANCH   7  15
HETATM   15  C5  UNL     1      21.814   0.249  53.960  1.00  0.00     0.045 C 
BRANCH  15  16
HETATM   16  C6  UNL     1      21.717  -1.099  54.682  1.00  0.00     0.117 C 
HETATM   17 CL1  UNL     1      23.195  -1.396  55.615  1.00  0.00    -0.130 Cl
ENDBRANCH  15  16
ENDBRANCH   7  15
ENDBRANCH   1   7
BRANCH   4  18
HETATM   18  N2  UNL     1      28.166   1.470  53.414  1.00  0.00    -0.389 N 
HETATM   19  H12 UNL     1      28.604   2.256  52.897  1.00  0.00     0.159 HD
BRANCH  18  20
HETATM   20  C11 UNL     1      28.983   0.685  54.340  1.00  0.00     0.135 C 
BRANCH  20  21
HETATM   21  C12 UNL     1      30.047  -0.096  53.568  1.00  0.00     0.134 C 
HETATM   22 CL2  UNL     1      29.507  -1.770  53.457  1.00  0.00    -0.129 Cl
ENDBRANCH  20  21
ENDBRANCH  18  20
ENDBRANCH   4  18
TORSDOF 7
ENDMDL
MODEL 8
REMARK VINA RESULT:      -6.6      3.048      6.616
REMARK  7 active torsions:
REMARK  status: ('A' for Active; 'I' for Inactive)
REMARK    1  A    between atoms: N1_4  and  C4_5 
REMARK    2  A    between atoms: C4_5  and  C5_6 
REMARK    3  A    between atoms: C4_5  and  C7_9 
REMARK    4  A    between atoms: C5_6  and  C6_7 
REMARK    5  A    between atoms: C10_12  and  N2_13 
REMARK    6  A    between atoms: N2_13  and  C11_14 
REMARK    7  A    between atoms: C11_14  and  C12_15 
ROOT
HETATM    1  C7  UNL     1      23.020   0.995  52.378  1.00  0.00    -0.035 A 
HETATM    2  C8  UNL     1      22.690   0.556  53.675  1.00  0.00     0.011 A 
HETATM    3  C9  UNL     1      21.503  -0.006  54.090  1.00  0.00     0.029 A 
HETATM    4  C10 UNL     1      20.523  -0.160  53.134  1.00  0.00     0.028 A 
HETATM    5  C13 UNL     1      20.741   0.236  51.832  1.00  0.00     0.029 A 
HETATM    6  C14 UNL     1      21.963   0.787  51.519  1.00  0.00     0.011 A 
ENDROOT
BRANCH   1   7
HETATM    7  C4  UNL     1      24.328   1.561  52.077  1.00  0.00     0.118 C 
BRANCH   7   8
HETATM    8  N1  UNL     1      25.472   0.835  52.523  1.00  0.00    -0.377 N 
HETATM    9  C3  UNL     1      26.516   1.759  52.913  1.00  0.00     0.093 A 
HETATM   10  C2  UNL     1      27.746   1.471  53.311  1.00  0.00    -0.047 A 
HETATM   11  C1  UNL     1      28.825   2.420  53.710  1.00  0.00     0.049 C 
HETATM   12  C17 UNL     1      28.133   0.047  53.411  1.00  0.00     0.006 A 
HETATM   13  C16 UNL     1      27.147  -0.758  53.078  1.00  0.00    -0.007 A 
HETATM   14  C15 UNL     1      25.747  -0.553  52.632  1.00  0.00     0.150 A 
ENDBRANCH   7   8
BRANCH   7  15
HETATM   15  C5  UNL     1      24.480   2.994  52.548  1.00  0.00     0.045 C 
BRANCH  15  16
HETATM   16  C6  UNL     1      23.683   3.896  51.600  1.00  0.00     0.117 C 
HETATM   17 CL1  UNL     1      22.267   4.558  52.438  1.00  0.00    -0.130 Cl
ENDBRANCH  15  16
ENDBRANCH   7  15
ENDBRANCH   1   7
BRANCH   4  18
HETATM   18  N2  UNL     1      19.287  -0.730  53.505  1.00  0.00    -0.389 N 
HETATM   19  H12 UNL     1      19.137  -1.137  54.448  1.00  0.00     0.159 HD
BRANCH  18  20
HETATM   20  C11 UNL     1      18.188  -0.748  52.539  1.00  0.00     0.135 C 
BRANCH  20  21
HETATM   21  C12 UNL     1      17.036  -1.600  53.071  1.00  0.00     0.134 C 
HETATM   22 CL2  UNL     1      17.724  -3.092  53.708  1.00  0.00    -0.129 Cl
ENDBRANCH  20  21
ENDBRANCH  18  20
ENDBRANCH   4  18
TORSDOF 7
ENDMDL
MODEL 9
REMARK VINA RESULT:      -6.5      1.323      2.108
REMARK  7 active torsions:
REMARK  status: ('A' for Active; 'I' for Inactive)
REMARK    1  A    between atoms: N1_4  and  C4_5 
REMARK    2  A    between atoms: C4_5  and  C5_6 
REMARK    3  A    between atoms: C4_5  and  C7_9 
REMARK    4  A    between atoms: C5_6  and  C6_7 
REMARK    5  A    between atoms: C10_12  and  N2_13 
REMARK    6  A    between atoms: N2_13  and  C11_14 
REMARK    7  A    between atoms: C11_14  and  C12_15 
ROOT
HETATM    1  C7  UNL     1      24.354   1.243  52.550  1.00  0.00    -0.035 A 
HETATM    2  C8  UNL     1      25.563   1.236  51.829  1.00  0.00     0.011 A 
HETATM    3  C9  UNL     1      26.630   0.380  51.995  1.00  0.00     0.029 A 
HETATM    4  C10 UNL     1      26.507  -0.580  52.976  1.00  0.00     0.028 A 
HETATM    5  C13 UNL     1      25.363  -0.662  53.741  1.00  0.00     0.029 A 
HETATM    6  C14 UNL     1      24.353   0.241  53.495  1.00  0.00     0.011 A 
ENDROOT
BRANCH   1   7
HETATM    7  C4  UNL     1      23.299   2.204  52.255  1.00  0.00     0.118 C 
BRANCH   7   8
HETATM    8  N1  UNL     1      22.367   1.857  51.233  1.00  0.00    -0.377 N 
HETATM    9  C3  UNL     1      21.181   1.279  51.830  1.00  0.00     0.093 A 
HETATM   10  C2  UNL     1      20.128   0.770  51.209  1.00  0.00    -0.047 A 
HETATM   11  C1  UNL     1      18.906   0.171  51.820  1.00  0.00     0.049 C 
HETATM   12  C17 UNL     1      20.103   0.802  49.731  1.00  0.00     0.006 A 
HETATM   13  C16 UNL     1      21.185   1.363  49.231  1.00  0.00    -0.007 A 
HETATM   14  C15 UNL     1      22.405   1.966  49.819  1.00  0.00     0.150 A 
ENDBRANCH   7   8
BRANCH   7  15
HETATM   15  C5  UNL     1      23.827   3.591  51.945  1.00  0.00     0.045 C 
BRANCH  15  16
HETATM   16  C6  UNL     1      22.904   4.614  52.616  1.00  0.00     0.117 C 
HETATM   17 CL1  UNL     1      21.780   5.292  51.425  1.00  0.00    -0.130 Cl
ENDBRANCH  15  16
ENDBRANCH   7  15
ENDBRANCH   1   7
BRANCH   4  18
HETATM   18  N2  UNL     1      27.569  -1.482  53.190  1.00  0.00    -0.389 N 
HETATM   19  H12 UNL     1      27.430  -2.509  53.142  1.00  0.00     0.159 HD
BRANCH  18  20
HETATM   20  C11 UNL     1      28.904  -0.959  53.486  1.00  0.00     0.135 C 
BRANCH  20  21
HETATM   21  C12 UNL     1      28.854  -0.066  54.726  1.00  0.00     0.134 C 
HETATM   22 CL2  UNL     1      29.167   1.589  54.208  1.00  0.00    -0.129 Cl
ENDBRANCH  20  21
ENDBRANCH  18  20
ENDBRANCH   4  18
TORSDOF 7
ENDMDL
