MODEL 1
REMARK VINA RESULT:      -9.9      0.000      0.000
REMARK  6 active torsions:
REMARK  status: ('A' for Active; 'I' for Inactive)
REMARK    1  A    between atoms: O1_2  and  C2_3 
REMARK    2  A    between atoms: C5_6  and  N1_7 
REMARK    3  A    between atoms: C9_12  and  N3_13 
REMARK    4  A    between atoms: N3_13  and  C10_14 
REMARK    5  A    between atoms: N5_22  and  C17_23 
REMARK    6  A    between atoms: C20_26  and  O2_27 
ROOT
HETATM    1  N1  UNL     1      22.835   1.333  51.911  1.00  0.00    -0.295 N 
HETATM    2  C6  UNL     1      22.599   2.436  51.023  1.00  0.00     0.178 A 
HETATM    3  C7  UNL     1      23.900   2.985  50.589  1.00  0.00     0.025 A 
HETATM    4  C8  UNL     1      23.869   4.059  49.728  1.00  0.00     0.149 A 
HETATM    5  N2  UNL     1      25.024   4.564  49.327  1.00  0.00    -0.074 NA
HETATM    6  C9  UNL     1      26.249   4.163  49.656  1.00  0.00     0.728 A 
HETATM    7  N4  UNL     1      26.236   3.123  50.490  1.00  0.00    -0.044 NA
HETATM    8  C16 UNL     1      25.139   2.521  50.967  1.00  0.00     0.162 A 
HETATM    9  N5  UNL     1      25.216   1.413  51.857  1.00  0.00    -0.278 N 
HETATM   10  C22 UNL     1      24.047   0.779  52.361  1.00  0.00     0.331 A 
HETATM   11  O3  UNL     1      24.086  -0.190  53.139  1.00  0.00    -0.246 OA
ENDROOT
BRANCH   1  12
HETATM   12  C5  UNL     1      21.616   0.734  52.387  1.00  0.00     0.039 A 
HETATM   13  C4  UNL     1      20.678   0.583  51.363  1.00  0.00     0.032 A 
HETATM   14  C3  UNL     1      19.438   0.027  51.603  1.00  0.00     0.039 A 
HETATM   15  C2  UNL     1      19.162  -0.377  52.913  1.00  0.00     0.068 A 
HETATM   16  C24 UNL     1      20.090  -0.227  53.923  1.00  0.00     0.039 A 
HETATM   17  C23 UNL     1      21.330   0.329  53.680  1.00  0.00     0.032 A 
BRANCH  15  18
HETATM   18  O1  UNL     1      17.937  -0.940  53.220  1.00  0.00    -0.356 OA
HETATM   19  C1  UNL     1      17.851  -2.322  53.533  1.00  0.00     0.210 C 
ENDBRANCH  15  18
ENDBRANCH   1  12
BRANCH   9  20
HETATM   20  C17 UNL     1      26.524   0.932  52.250  1.00  0.00     0.099 C 
HETATM   21  C18 UNL     1      26.807  -0.483  51.879  1.00  0.00     0.028 C 
HETATM   22  C19 UNL     1      27.416  -1.143  53.118  1.00  0.00     0.034 C 
HETATM   23  C20 UNL     1      27.883   0.032  53.917  1.00  0.00     0.120 C 
HETATM   24  C21 UNL     1      26.717   1.003  53.745  1.00  0.00     0.057 C 
BRANCH  23  25
HETATM   25  O2  UNL     1      27.979  -0.236  55.275  1.00  0.00    -0.396 OA
HETATM   26  H21 UNL     1      28.680   0.282  55.717  1.00  0.00     0.210 HD
ENDBRANCH  23  25
ENDBRANCH   9  20
BRANCH   6  27
HETATM   27  N3  UNL     1      27.471   4.708  49.225  1.00  0.00    -0.188 N 
HETATM   28  H9  UNL     1      28.355   4.193  49.516  1.00  0.00     0.184 HD
BRANCH  27  29
HETATM   29  C10 UNL     1      27.685   5.860  48.446  1.00  0.00     0.049 A 
HETATM   30  C11 UNL     1      28.921   6.148  47.904  1.00  0.00     0.030 A 
HETATM   31  C12 UNL     1      29.181   7.260  47.138  1.00  0.00     0.002 A 
HETATM   32  C13 UNL     1      28.187   8.170  46.864  1.00  0.00     0.000 A 
HETATM   33  C14 UNL     1      26.931   7.936  47.379  1.00  0.00     0.002 A 
HETATM   34  C15 UNL     1      26.732   6.805  48.139  1.00  0.00     0.030 A 
ENDBRANCH  27  29
ENDBRANCH   6  27
TORSDOF 6
ENDMDL
MODEL 2
REMARK VINA RESULT:      -9.7      4.252      9.891
REMARK  6 active torsions:
REMARK  status: ('A' for Active; 'I' for Inactive)
REMARK    1  A    between atoms: O1_2  and  C2_3 
REMARK    2  A    between atoms: C5_6  and  N1_7 
REMARK    3  A    between atoms: C9_12  and  N3_13 
REMARK    4  A    between atoms: N3_13  and  C10_14 
REMARK    5  A    between atoms: N5_22  and  C17_23 
REMARK    6  A    between atoms: C20_26  and  O2_27 
ROOT
HETATM    1  N1  UNL     1      23.978   0.419  52.913  1.00  0.00    -0.295 N 
HETATM    2  C6  UNL     1      23.389  -0.464  53.880  1.00  0.00     0.178 A 
HETATM    3  C7  UNL     1      21.942  -0.576  53.604  1.00  0.00     0.025 A 
HETATM    4  C8  UNL     1      21.207  -1.387  54.439  1.00  0.00     0.149 A 
HETATM    5  N2  UNL     1      19.910  -1.501  54.207  1.00  0.00    -0.074 NA
HETATM    6  C9  UNL     1      19.198  -0.918  53.247  1.00  0.00     0.728 A 
HETATM    7  N4  UNL     1      19.944  -0.142  52.460  1.00  0.00    -0.044 NA
HETATM    8  C16 UNL     1      21.263   0.056  52.587  1.00  0.00     0.162 A 
HETATM    9  N5  UNL     1      21.984   0.905  51.702  1.00  0.00    -0.278 N 
HETATM   10  C22 UNL     1      23.384   1.112  51.842  1.00  0.00     0.331 A 
HETATM   11  O3  UNL     1      24.039   1.847  51.083  1.00  0.00    -0.246 OA
ENDROOT
BRANCH   1  12
HETATM   12  C5  UNL     1      25.394   0.588  53.107  1.00  0.00     0.039 A 
HETATM   13  C4  UNL     1      26.116  -0.523  52.665  1.00  0.00     0.032 A 
HETATM   14  C3  UNL     1      27.491  -0.569  52.758  1.00  0.00     0.039 A 
HETATM   15  C2  UNL     1      28.131   0.544  53.314  1.00  0.00     0.068 A 
HETATM   16  C24 UNL     1      27.417   1.640  53.750  1.00  0.00     0.039 A 
HETATM   17  C23 UNL     1      26.040   1.683  53.655  1.00  0.00     0.032 A 
BRANCH  15  18
HETATM   18  O1  UNL     1      29.508   0.560  53.437  1.00  0.00    -0.356 OA
HETATM   19  C1  UNL     1      30.214  -0.650  53.659  1.00  0.00     0.210 C 
ENDBRANCH  15  18
ENDBRANCH   1  12
BRANCH   9  20
HETATM   20  C17 UNL     1      21.261   1.566  50.636  1.00  0.00     0.099 C 
HETATM   21  C18 UNL     1      21.495   1.002  49.278  1.00  0.00     0.028 C 
HETATM   22  C19 UNL     1      21.740   2.193  48.348  1.00  0.00     0.034 C 
HETATM   23  C20 UNL     1      21.153   3.333  49.118  1.00  0.00     0.120 C 
HETATM   24  C21 UNL     1      21.632   3.025  50.535  1.00  0.00     0.057 C 
BRANCH  23  25
HETATM   25  O2  UNL     1      21.695   4.561  48.773  1.00  0.00    -0.396 OA
HETATM   26  H21 UNL     1      22.182   4.985  49.507  1.00  0.00     0.210 HD
ENDBRANCH  23  25
ENDBRANCH   9  20
BRANCH   6  27
HETATM   27  N3  UNL     1      17.818  -1.045  53.009  1.00  0.00    -0.188 N 
HETATM   28  H9  UNL     1      17.279  -0.148  52.821  1.00  0.00     0.184 HD
BRANCH  27  29
HETATM   29  C10 UNL     1      17.042  -2.219  52.987  1.00  0.00     0.049 A 
HETATM   30  C11 UNL     1      15.808  -2.259  52.373  1.00  0.00     0.030 A 
HETATM   31  C12 UNL     1      15.012  -3.380  52.324  1.00  0.00     0.002 A 
HETATM   32  C13 UNL     1      15.423  -4.556  52.905  1.00  0.00     0.000 A 
HETATM   33  C14 UNL     1      16.648  -4.577  53.535  1.00  0.00     0.002 A 
HETATM   34  C15 UNL     1      17.399  -3.424  53.551  1.00  0.00     0.030 A 
ENDBRANCH  27  29
ENDBRANCH   6  27
TORSDOF 6
ENDMDL
MODEL 3
REMARK VINA RESULT:      -9.5      2.336      8.617
REMARK  6 active torsions:
REMARK  status: ('A' for Active; 'I' for Inactive)
REMARK    1  A    between atoms: O1_2  and  C2_3 
REMARK    2  A    between atoms: C5_6  and  N1_7 
REMARK    3  A    between atoms: C9_12  and  N3_13 
REMARK    4  A    between atoms: N3_13  and  C10_14 
REMARK    5  A    between atoms: N5_22  and  C17_23 
REMARK    6  A    between atoms: C20_26  and  O2_27 
ROOT
HETATM    1  N1  UNL     1      25.293   3.575  50.410  1.00  0.00    -0.295 N 
HETATM    2  C6  UNL     1      23.902   3.697  50.076  1.00  0.00     0.178 A 
HETATM    3  C7  UNL     1      23.141   2.675  50.823  1.00  0.00     0.025 A 
HETATM    4  C8  UNL     1      21.780   2.640  50.625  1.00  0.00     0.149 A 
HETATM    5  N2  UNL     1      21.081   1.733  51.286  1.00  0.00    -0.074 NA
HETATM    6  C9  UNL     1      21.532   0.819  52.142  1.00  0.00     0.728 A 
HETATM    7  N4  UNL     1      22.853   0.885  52.306  1.00  0.00    -0.044 NA
HETATM    8  C16 UNL     1      23.671   1.755  51.699  1.00  0.00     0.162 A 
HETATM    9  N5  UNL     1      25.075   1.755  51.931  1.00  0.00    -0.278 N 
HETATM   10  C22 UNL     1      25.938   2.681  51.283  1.00  0.00     0.331 A 
HETATM   11  O3  UNL     1      27.167   2.703  51.468  1.00  0.00    -0.246 OA
ENDROOT
BRANCH   1  12
HETATM   12  C5  UNL     1      26.115   4.537  49.723  1.00  0.00     0.039 A 
HETATM   13  C4  UNL     1      25.649   5.842  49.906  1.00  0.00     0.032 A 
HETATM   14  C3  UNL     1      26.292   6.920  49.332  1.00  0.00     0.039 A 
HETATM   15  C2  UNL     1      27.428   6.650  48.562  1.00  0.00     0.068 A 
HETATM   16  C24 UNL     1      27.886   5.361  48.382  1.00  0.00     0.039 A 
HETATM   17  C23 UNL     1      27.240   4.285  48.958  1.00  0.00     0.032 A 
BRANCH  15  18
HETATM   18  O1  UNL     1      28.117   7.686  47.959  1.00  0.00    -0.356 OA
HETATM   19  C1  UNL     1      28.966   8.518  48.735  1.00  0.00     0.210 C 
ENDBRANCH  15  18
ENDBRANCH   1  12
BRANCH   9  20
HETATM   20  C17 UNL     1      25.623   0.783  52.854  1.00  0.00     0.099 C 
HETATM   21  C18 UNL     1      26.183   1.358  54.108  1.00  0.00     0.028 C 
HETATM   22  C19 UNL     1      27.540   0.682  54.327  1.00  0.00     0.034 C 
HETATM   23  C20 UNL     1      27.431  -0.548  53.483  1.00  0.00     0.120 C 
HETATM   24  C21 UNL     1      26.751  -0.001  52.230  1.00  0.00     0.057 C 
BRANCH  23  25
HETATM   25  O2  UNL     1      28.662  -1.045  53.083  1.00  0.00    -0.396 OA
HETATM   26  H21 UNL     1      29.318  -1.071  53.807  1.00  0.00     0.210 HD
ENDBRANCH  23  25
ENDBRANCH   9  20
BRANCH   6  27
HETATM   27  N3  UNL     1      20.780  -0.143  52.839  1.00  0.00    -0.188 N 
HETATM   28  H9  UNL     1      21.283  -0.678  53.609  1.00  0.00     0.184 HD
BRANCH  27  29
HETATM   29  C10 UNL     1      19.431  -0.497  52.653  1.00  0.00     0.049 A 
HETATM   30  C11 UNL     1      18.810  -1.430  53.458  1.00  0.00     0.030 A 
HETATM   31  C12 UNL     1      17.496  -1.811  53.317  1.00  0.00     0.002 A 
HETATM   32  C13 UNL     1      16.710  -1.261  52.332  1.00  0.00     0.000 A 
HETATM   33  C14 UNL     1      17.275  -0.322  51.496  1.00  0.00     0.002 A 
HETATM   34  C15 UNL     1      18.596   0.018  51.687  1.00  0.00     0.030 A 
ENDBRANCH  27  29
ENDBRANCH   6  27
TORSDOF 6
ENDMDL
MODEL 4
REMARK VINA RESULT:      -9.2      4.136      6.600
REMARK  6 active torsions:
REMARK  status: ('A' for Active; 'I' for Inactive)
REMARK    1  A    between atoms: O1_2  and  C2_3 
REMARK    2  A    between atoms: C5_6  and  N1_7 
REMARK    3  A    between atoms: C9_12  and  N3_13 
REMARK    4  A    between atoms: N3_13  and  C10_14 
REMARK    5  A    between atoms: N5_22  and  C17_23 
REMARK    6  A    between atoms: C20_26  and  O2_27 
ROOT
HETATM    1  N1  UNL     1      18.841   0.584  51.874  1.00  0.00    -0.295 N 
HETATM    2  C6  UNL     1      18.928  -0.521  52.785  1.00  0.00     0.178 A 
HETATM    3  C7  UNL     1      20.301  -0.586  53.326  1.00  0.00     0.025 A 
HETATM    4  C8  UNL     1      20.573  -1.593  54.224  1.00  0.00     0.149 A 
HETATM    5  N2  UNL     1      21.796  -1.667  54.720  1.00  0.00    -0.074 NA
HETATM    6  C9  UNL     1      22.832  -0.875  54.459  1.00  0.00     0.728 A 
HETATM    7  N4  UNL     1      22.530   0.087  53.587  1.00  0.00    -0.044 NA
HETATM    8  C16 UNL     1      21.333   0.270  53.014  1.00  0.00     0.162 A 
HETATM    9  N5  UNL     1      21.095   1.325  52.089  1.00  0.00    -0.278 N 
HETATM   10  C22 UNL     1      19.822   1.514  51.485  1.00  0.00     0.331 A 
HETATM   11  O3  UNL     1      19.587   2.428  50.674  1.00  0.00    -0.246 OA
ENDROOT
BRANCH   1  12
HETATM   12  C5  UNL     1      17.531   0.724  51.295  1.00  0.00     0.039 A 
HETATM   13  C4  UNL     1      17.355  -0.122  50.197  1.00  0.00     0.032 A 
HETATM   14  C3  UNL     1      16.168  -0.148  49.494  1.00  0.00     0.039 A 
HETATM   15  C2  UNL     1      15.150   0.708  49.927  1.00  0.00     0.068 A 
HETATM   16  C24 UNL     1      15.326   1.543  51.011  1.00  0.00     0.039 A 
HETATM   17  C23 UNL     1      16.515   1.566  51.713  1.00  0.00     0.032 A 
BRANCH  15  18
HETATM   18  O1  UNL     1      13.937   0.731  49.265  1.00  0.00    -0.356 OA
HETATM   19  C1  UNL     1      12.782   1.232  49.919  1.00  0.00     0.210 C 
ENDBRANCH  15  18
ENDBRANCH   1  12
BRANCH   9  20
HETATM   20  C17 UNL     1      22.187   2.220  51.767  1.00  0.00     0.099 C 
HETATM   21  C18 UNL     1      23.136   1.705  50.741  1.00  0.00     0.028 C 
HETATM   22  C19 UNL     1      24.544   1.972  51.280  1.00  0.00     0.034 C 
HETATM   23  C20 UNL     1      24.305   3.032  52.307  1.00  0.00     0.120 C 
HETATM   24  C21 UNL     1      23.031   2.526  52.980  1.00  0.00     0.057 C 
BRANCH  23  25
HETATM   25  O2  UNL     1      25.284   3.072  53.288  1.00  0.00    -0.396 OA
HETATM   26  H21 UNL     1      25.938   3.784  53.147  1.00  0.00     0.210 HD
ENDBRANCH  23  25
ENDBRANCH   9  20
BRANCH   6  27
HETATM   27  N3  UNL     1      24.131  -0.963  54.991  1.00  0.00    -0.188 N 
HETATM   28  H9  UNL     1      24.218  -1.337  55.983  1.00  0.00     0.184 HD
BRANCH  27  29
HETATM   29  C10 UNL     1      25.349  -0.618  54.378  1.00  0.00     0.049 A 
HETATM   30  C11 UNL     1      26.301   0.136  55.032  1.00  0.00     0.030 A 
HETATM   31  C12 UNL     1      27.506   0.499  54.477  1.00  0.00     0.002 A 
HETATM   32  C13 UNL     1      27.831   0.115  53.197  1.00  0.00     0.000 A 
HETATM   33  C14 UNL     1      26.919  -0.640  52.493  1.00  0.00     0.002 A 
HETATM   34  C15 UNL     1      25.730  -0.972  53.102  1.00  0.00     0.030 A 
ENDBRANCH  27  29
ENDBRANCH   6  27
TORSDOF 6
ENDMDL
MODEL 5
REMARK VINA RESULT:      -9.1      3.143      8.563
REMARK  6 active torsions:
REMARK  status: ('A' for Active; 'I' for Inactive)
REMARK    1  A    between atoms: O1_2  and  C2_3 
REMARK    2  A    between atoms: C5_6  and  N1_7 
REMARK    3  A    between atoms: C9_12  and  N3_13 
REMARK    4  A    between atoms: N3_13  and  C10_14 
REMARK    5  A    between atoms: N5_22  and  C17_23 
REMARK    6  A    between atoms: C20_26  and  O2_27 
ROOT
HETATM    1  N1  UNL     1      24.147   1.237  52.700  1.00  0.00    -0.295 N 
HETATM    2  C6  UNL     1      23.024   0.377  52.946  1.00  0.00     0.178 A 
HETATM    3  C7  UNL     1      21.805   1.022  52.417  1.00  0.00     0.025 A 
HETATM    4  C8  UNL     1      20.621   0.337  52.567  1.00  0.00     0.149 A 
HETATM    5  N2  UNL     1      19.518   0.898  52.099  1.00  0.00    -0.074 NA
HETATM    6  C9  UNL     1      19.396   2.071  51.486  1.00  0.00     0.728 A 
HETATM    7  N4  UNL     1      20.563   2.703  51.360  1.00  0.00    -0.044 NA
HETATM    8  C16 UNL     1      21.747   2.245  51.788  1.00  0.00     0.162 A 
HETATM    9  N5  UNL     1      22.948   2.987  51.614  1.00  0.00    -0.278 N 
HETATM   10  C22 UNL     1      24.201   2.495  52.072  1.00  0.00     0.331 A 
HETATM   11  O3  UNL     1      25.266   3.122  51.932  1.00  0.00    -0.246 OA
ENDROOT
BRANCH   1  12
HETATM   12  C5  UNL     1      25.385   0.686  53.185  1.00  0.00     0.039 A 
HETATM   13  C4  UNL     1      25.953  -0.202  52.268  1.00  0.00     0.032 A 
HETATM   14  C3  UNL     1      27.144  -0.844  52.536  1.00  0.00     0.039 A 
HETATM   15  C2  UNL     1      27.758  -0.569  53.761  1.00  0.00     0.068 A 
HETATM   16  C24 UNL     1      27.196   0.309  54.666  1.00  0.00     0.039 A 
HETATM   17  C23 UNL     1      26.003   0.950  54.395  1.00  0.00     0.032 A 
BRANCH  15  18
HETATM   18  O1  UNL     1      28.953  -1.180  54.090  1.00  0.00    -0.356 OA
HETATM   19  C1  UNL     1      30.169  -0.704  53.534  1.00  0.00     0.210 C 
ENDBRANCH  15  18
ENDBRANCH   1  12
BRANCH   9  20
HETATM   20  C17 UNL     1      22.877   4.272  50.952  1.00  0.00     0.099 C 
HETATM   21  C18 UNL     1      23.816   4.440  49.809  1.00  0.00     0.028 C 
HETATM   22  C19 UNL     1      24.472   5.812  49.983  1.00  0.00     0.034 C 
HETATM   23  C20 UNL     1      23.524   6.512  50.904  1.00  0.00     0.120 C 
HETATM   24  C21 UNL     1      23.189   5.404  51.900  1.00  0.00     0.057 C 
BRANCH  23  25
HETATM   25  O2  UNL     1      24.121   7.532  51.629  1.00  0.00    -0.396 OA
HETATM   26  H21 UNL     1      25.048   7.338  51.870  1.00  0.00     0.210 HD
ENDBRANCH  23  25
ENDBRANCH   9  20
BRANCH   6  27
HETATM   27  N3  UNL     1      18.218   2.659  50.992  1.00  0.00    -0.188 N 
HETATM   28  H9  UNL     1      18.280   3.134  50.042  1.00  0.00     0.184 HD
BRANCH  27  29
HETATM   29  C10 UNL     1      16.948   2.705  51.595  1.00  0.00     0.049 A 
HETATM   30  C11 UNL     1      16.410   3.885  52.064  1.00  0.00     0.030 A 
HETATM   31  C12 UNL     1      15.175   3.982  52.661  1.00  0.00     0.002 A 
HETATM   32  C13 UNL     1      14.387   2.867  52.825  1.00  0.00     0.000 A 
HETATM   33  C14 UNL     1      14.872   1.657  52.376  1.00  0.00     0.002 A 
HETATM   34  C15 UNL     1      16.116   1.624  51.788  1.00  0.00     0.030 A 
ENDBRANCH  27  29
ENDBRANCH   6  27
TORSDOF 6
ENDMDL
MODEL 6
REMARK VINA RESULT:      -9.1      4.080      8.807
REMARK  6 active torsions:
REMARK  status: ('A' for Active; 'I' for Inactive)
REMARK    1  A    between atoms: O1_2  and  C2_3 
REMARK    2  A    between atoms: C5_6  and  N1_7 
REMARK    3  A    between atoms: C9_12  and  N3_13 
REMARK    4  A    between atoms: N3_13  and  C10_14 
REMARK    5  A    between atoms: N5_22  and  C17_23 
REMARK    6  A    between atoms: C20_26  and  O2_27 
ROOT
HETATM    1  N1  UNL     1      23.955   0.553  52.736  1.00  0.00    -0.295 N 
HETATM    2  C6  UNL     1      23.246  -0.296  53.652  1.00  0.00     0.178 A 
HETATM    3  C7  UNL     1      21.818  -0.318  53.274  1.00  0.00     0.025 A 
HETATM    4  C8  UNL     1      20.979  -1.086  54.049  1.00  0.00     0.149 A 
HETATM    5  N2  UNL     1      19.697  -1.119  53.726  1.00  0.00    -0.074 NA
HETATM    6  C9  UNL     1      19.091  -0.490  52.724  1.00  0.00     0.728 A 
HETATM    7  N4  UNL     1      19.936   0.242  51.998  1.00  0.00    -0.044 NA
HETATM    8  C16 UNL     1      21.252   0.359  52.218  1.00  0.00     0.162 A 
HETATM    9  N5  UNL     1      22.084   1.165  51.392  1.00  0.00    -0.278 N 
HETATM   10  C22 UNL     1      23.481   1.285  51.632  1.00  0.00     0.331 A 
HETATM   11  O3  UNL     1      24.231   1.982  50.926  1.00  0.00    -0.246 OA
ENDROOT
BRANCH   1  12
HETATM   12  C5  UNL     1      25.361   0.635  53.030  1.00  0.00     0.039 A 
HETATM   13  C4  UNL     1      26.056  -0.481  52.558  1.00  0.00     0.032 A 
HETATM   14  C3  UNL     1      27.419  -0.605  52.734  1.00  0.00     0.039 A 
HETATM   15  C2  UNL     1      28.073   0.433  53.404  1.00  0.00     0.068 A 
HETATM   16  C24 UNL     1      27.385   1.535  53.870  1.00  0.00     0.039 A 
HETATM   17  C23 UNL     1      26.022   1.656  53.691  1.00  0.00     0.032 A 
BRANCH  15  18
HETATM   18  O1  UNL     1      29.438   0.370  53.614  1.00  0.00    -0.356 OA
HETATM   19  C1  UNL     1      30.085  -0.891  53.695  1.00  0.00     0.210 C 
ENDBRANCH  15  18
ENDBRANCH   1  12
BRANCH   9  20
HETATM   20  C17 UNL     1      21.479   1.873  50.284  1.00  0.00     0.099 C 
HETATM   21  C18 UNL     1      21.851   1.361  48.936  1.00  0.00     0.028 C 
HETATM   22  C19 UNL     1      22.197   2.586  48.086  1.00  0.00     0.034 C 
HETATM   23  C20 UNL     1      21.537   3.699  48.835  1.00  0.00     0.120 C 
HETATM   24  C21 UNL     1      21.864   3.332  50.281  1.00  0.00     0.057 C 
BRANCH  23  25
HETATM   25  O2  UNL     1      22.118   4.936  48.598  1.00  0.00    -0.396 OA
HETATM   26  H21 UNL     1      21.979   5.255  47.684  1.00  0.00     0.210 HD
ENDBRANCH  23  25
ENDBRANCH   9  20
BRANCH   6  27
HETATM   27  N3  UNL     1      17.726  -0.532  52.390  1.00  0.00    -0.188 N 
HETATM   28  H9  UNL     1      17.105  -1.158  52.984  1.00  0.00     0.184 HD
BRANCH  27  29
HETATM   29  C10 UNL     1      17.060   0.155  51.358  1.00  0.00     0.049 A 
HETATM   30  C11 UNL     1      16.786  -0.446  50.147  1.00  0.00     0.030 A 
HETATM   31  C12 UNL     1      16.140   0.182  49.108  1.00  0.00     0.002 A 
HETATM   32  C13 UNL     1      15.719   1.486  49.231  1.00  0.00     0.000 A 
HETATM   33  C14 UNL     1      15.965   2.139  50.418  1.00  0.00     0.002 A 
HETATM   34  C15 UNL     1      16.617   1.458  51.422  1.00  0.00     0.030 A 
ENDBRANCH  27  29
ENDBRANCH   6  27
TORSDOF 6
ENDMDL
MODEL 7
REMARK VINA RESULT:      -9.0      4.001      8.305
REMARK  6 active torsions:
REMARK  status: ('A' for Active; 'I' for Inactive)
REMARK    1  A    between atoms: O1_2  and  C2_3 
REMARK    2  A    between atoms: C5_6  and  N1_7 
REMARK    3  A    between atoms: C9_12  and  N3_13 
REMARK    4  A    between atoms: N3_13  and  C10_14 
REMARK    5  A    between atoms: N5_22  and  C17_23 
REMARK    6  A    between atoms: C20_26  and  O2_27 
ROOT
HETATM    1  N1  UNL     1      23.768   1.055  52.717  1.00  0.00    -0.295 N 
HETATM    2  C6  UNL     1      23.694   2.479  52.548  1.00  0.00     0.178 A 
HETATM    3  C7  UNL     1      22.302   2.849  52.222  1.00  0.00     0.025 A 
HETATM    4  C8  UNL     1      22.041   4.185  52.021  1.00  0.00     0.149 A 
HETATM    5  N2  UNL     1      20.799   4.536  51.729  1.00  0.00    -0.074 NA
HETATM    6  C9  UNL     1      19.737   3.746  51.597  1.00  0.00     0.728 A 
HETATM    7  N4  UNL     1      20.031   2.462  51.798  1.00  0.00    -0.044 NA
HETATM    8  C16 UNL     1      21.243   1.978  52.100  1.00  0.00     0.162 A 
HETATM    9  N5  UNL     1      21.470   0.587  52.298  1.00  0.00    -0.278 N 
HETATM   10  C22 UNL     1      22.759   0.080  52.618  1.00  0.00     0.331 A 
HETATM   11  O3  UNL     1      22.985  -1.130  52.796  1.00  0.00    -0.246 OA
ENDROOT
BRANCH   1  12
HETATM   12  C5  UNL     1      25.097   0.603  53.039  1.00  0.00     0.039 A 
HETATM   13  C4  UNL     1      25.323   0.594  54.417  1.00  0.00     0.032 A 
HETATM   14  C3  UNL     1      26.534   0.193  54.943  1.00  0.00     0.039 A 
HETATM   15  C2  UNL     1      27.524  -0.202  54.037  1.00  0.00     0.068 A 
HETATM   16  C24 UNL     1      27.299  -0.192  52.676  1.00  0.00     0.039 A 
HETATM   17  C23 UNL     1      26.085   0.209  52.153  1.00  0.00     0.032 A 
BRANCH  15  18
HETATM   18  O1  UNL     1      28.760  -0.614  54.500  1.00  0.00    -0.356 OA
HETATM   19  C1  UNL     1      29.786  -0.946  53.578  1.00  0.00     0.210 C 
ENDBRANCH  15  18
ENDBRANCH   1  12
BRANCH   9  20
HETATM   20  C17 UNL     1      20.350  -0.321  52.168  1.00  0.00     0.099 C 
HETATM   21  C18 UNL     1      19.272   0.142  51.251  1.00  0.00     0.028 C 
HETATM   22  C19 UNL     1      17.948  -0.093  51.982  1.00  0.00     0.034 C 
HETATM   23  C20 UNL     1      18.325  -1.100  53.022  1.00  0.00     0.120 C 
HETATM   24  C21 UNL     1      19.674  -0.563  53.495  1.00  0.00     0.057 C 
BRANCH  23  25
HETATM   25  O2  UNL     1      17.483  -1.088  54.124  1.00  0.00    -0.396 OA
HETATM   26  H21 UNL     1      17.178  -1.979  54.382  1.00  0.00     0.210 HD
ENDBRANCH  23  25
ENDBRANCH   9  20
BRANCH   6  27
HETATM   27  N3  UNL     1      18.421   4.129  51.285  1.00  0.00    -0.188 N 
HETATM   28  H9  UNL     1      18.164   5.148  51.456  1.00  0.00     0.184 HD
BRANCH  27  29
HETATM   29  C10 UNL     1      17.381   3.334  50.769  1.00  0.00     0.049 A 
HETATM   30  C11 UNL     1      17.436   2.809  49.494  1.00  0.00     0.030 A 
HETATM   31  C12 UNL     1      16.447   2.028  48.944  1.00  0.00     0.002 A 
HETATM   32  C13 UNL     1      15.316   1.721  49.663  1.00  0.00     0.000 A 
HETATM   33  C14 UNL     1      15.204   2.218  50.943  1.00  0.00     0.002 A 
HETATM   34  C15 UNL     1      16.227   2.995  51.439  1.00  0.00     0.030 A 
ENDBRANCH  27  29
ENDBRANCH   6  27
TORSDOF 6
ENDMDL
MODEL 8
REMARK VINA RESULT:      -8.8      4.276      9.363
REMARK  6 active torsions:
REMARK  status: ('A' for Active; 'I' for Inactive)
REMARK    1  A    between atoms: O1_2  and  C2_3 
REMARK    2  A    between atoms: C5_6  and  N1_7 
REMARK    3  A    between atoms: C9_12  and  N3_13 
REMARK    4  A    between atoms: N3_13  and  C10_14 
REMARK    5  A    between atoms: N5_22  and  C17_23 
REMARK    6  A    between atoms: C20_26  and  O2_27 
ROOT
HETATM    1  N1  UNL     1      23.959   0.294  52.667  1.00  0.00    -0.295 N 
HETATM    2  C6  UNL     1      23.033  -0.505  53.420  1.00  0.00     0.178 A 
HETATM    3  C7  UNL     1      21.660  -0.194  52.972  1.00  0.00     0.025 A 
HETATM    4  C8  UNL     1      20.633  -0.870  53.590  1.00  0.00     0.149 A 
HETATM    5  N2  UNL     1      19.397  -0.605  53.201  1.00  0.00    -0.074 NA
HETATM    6  C9  UNL     1      19.001   0.254  52.267  1.00  0.00     0.728 A 
HETATM    7  N4  UNL     1      20.023   0.888  51.693  1.00  0.00    -0.044 NA
HETATM    8  C16 UNL     1      21.317   0.710  51.993  1.00  0.00     0.162 A 
HETATM    9  N5  UNL     1      22.348   1.432  51.330  1.00  0.00    -0.278 N 
HETATM   10  C22 UNL     1      23.719   1.239  51.653  1.00  0.00     0.331 A 
HETATM   11  O3  UNL     1      24.641   1.856  51.090  1.00  0.00    -0.246 OA
ENDROOT
BRANCH   1  12
HETATM   12  C5  UNL     1      25.328   0.055  53.040  1.00  0.00     0.039 A 
HETATM   13  C4  UNL     1      25.672   0.728  54.215  1.00  0.00     0.032 A 
HETATM   14  C3  UNL     1      26.940   0.635  54.750  1.00  0.00     0.039 A 
HETATM   15  C2  UNL     1      27.865  -0.160  54.067  1.00  0.00     0.068 A 
HETATM   16  C24 UNL     1      27.524  -0.824  52.906  1.00  0.00     0.039 A 
HETATM   17  C23 UNL     1      26.254  -0.729  52.373  1.00  0.00     0.032 A 
BRANCH  15  18
HETATM   18  O1  UNL     1      29.154  -0.294  54.550  1.00  0.00    -0.356 OA
HETATM   19  C1  UNL     1      30.148  -0.919  53.754  1.00  0.00     0.210 C 
ENDBRANCH  15  18
ENDBRANCH   1  12
BRANCH   9  20
HETATM   20  C17 UNL     1      21.977   2.381  50.302  1.00  0.00     0.099 C 
HETATM   21  C18 UNL     1      21.089   3.485  50.761  1.00  0.00     0.028 C 
HETATM   22  C19 UNL     1      19.974   3.608  49.720  1.00  0.00     0.034 C 
HETATM   23  C20 UNL     1      20.564   2.924  48.528  1.00  0.00     0.120 C 
HETATM   24  C21 UNL     1      21.236   1.713  49.170  1.00  0.00     0.057 C 
BRANCH  23  25
HETATM   25  O2  UNL     1      19.608   2.432  47.652  1.00  0.00    -0.396 OA
HETATM   26  H21 UNL     1      18.768   2.200  48.094  1.00  0.00     0.210 HD
ENDBRANCH  23  25
ENDBRANCH   9  20
BRANCH   6  27
HETATM   27  N3  UNL     1      17.683   0.528  51.862  1.00  0.00    -0.188 N 
HETATM   28  H9  UNL     1      17.325   1.516  52.029  1.00  0.00     0.184 HD
BRANCH  27  29
HETATM   29  C10 UNL     1      16.758  -0.342  51.255  1.00  0.00     0.049 A 
HETATM   30  C11 UNL     1      16.512  -0.304  49.898  1.00  0.00     0.030 A 
HETATM   31  C12 UNL     1      15.619  -1.132  49.258  1.00  0.00     0.002 A 
HETATM   32  C13 UNL     1      14.903  -2.070  49.964  1.00  0.00     0.000 A 
HETATM   33  C14 UNL     1      15.107  -2.154  51.324  1.00  0.00     0.002 A 
HETATM   34  C15 UNL     1      16.013  -1.298  51.909  1.00  0.00     0.030 A 
ENDBRANCH  27  29
ENDBRANCH   6  27
TORSDOF 6
ENDMDL
MODEL 9
REMARK VINA RESULT:      -8.5      2.730      8.628
REMARK  6 active torsions:
REMARK  status: ('A' for Active; 'I' for Inactive)
REMARK    1  A    between atoms: O1_2  and  C2_3 
REMARK    2  A    between atoms: C5_6  and  N1_7 
REMARK    3  A    between atoms: C9_12  and  N3_13 
REMARK    4  A    between atoms: N3_13  and  C10_14 
REMARK    5  A    between atoms: N5_22  and  C17_23 
REMARK    6  A    between atoms: C20_26  and  O2_27 
ROOT
HETATM    1  N1  UNL     1      25.621   4.841  49.648  1.00  0.00    -0.295 N 
HETATM    2  C6  UNL     1      24.394   5.503  49.307  1.00  0.00     0.178 A 
HETATM    3  C7  UNL     1      23.288   4.874  50.059  1.00  0.00     0.025 A 
HETATM    4  C8  UNL     1      22.026   5.382  49.855  1.00  0.00     0.149 A 
HETATM    5  N2  UNL     1      21.023   4.833  50.520  1.00  0.00    -0.074 NA
HETATM    6  C9  UNL     1      21.072   3.824  51.385  1.00  0.00     0.728 A 
HETATM    7  N4  UNL     1      22.311   3.360  51.555  1.00  0.00    -0.044 NA
HETATM    8  C16 UNL     1      23.408   3.828  50.944  1.00  0.00     0.162 A 
HETATM    9  N5  UNL     1      24.696   3.272  51.183  1.00  0.00    -0.278 N 
HETATM   10  C22 UNL     1      25.856   3.772  50.532  1.00  0.00     0.331 A 
HETATM   11  O3  UNL     1      26.993   3.306  50.722  1.00  0.00    -0.246 OA
ENDROOT
BRANCH   1  12
HETATM   12  C5  UNL     1      26.758   5.391  48.957  1.00  0.00     0.039 A 
HETATM   13  C4  UNL     1      26.533   6.710  48.555  1.00  0.00     0.032 A 
HETATM   14  C3  UNL     1      27.497   7.427  47.876  1.00  0.00     0.039 A 
HETATM   15  C2  UNL     1      28.705   6.778  47.607  1.00  0.00     0.068 A 
HETATM   16  C24 UNL     1      28.926   5.475  48.005  1.00  0.00     0.039 A 
HETATM   17  C23 UNL     1      27.960   4.761  48.685  1.00  0.00     0.032 A 
BRANCH  15  18
HETATM   18  O1  UNL     1      29.712   7.440  46.929  1.00  0.00    -0.356 OA
HETATM   19  C1  UNL     1      29.732   8.859  46.901  1.00  0.00     0.210 C 
ENDBRANCH  15  18
ENDBRANCH   1  12
BRANCH   9  20
HETATM   20  C17 UNL     1      24.811   2.171  52.116  1.00  0.00     0.099 C 
HETATM   21  C18 UNL     1      25.296   2.548  53.472  1.00  0.00     0.028 C 
HETATM   22  C19 UNL     1      26.371   1.526  53.849  1.00  0.00     0.034 C 
HETATM   23  C20 UNL     1      26.077   0.387  52.925  1.00  0.00     0.120 C 
HETATM   24  C21 UNL     1      25.775   1.121  51.620  1.00  0.00     0.057 C 
BRANCH  23  25
HETATM   25  O2  UNL     1      27.179  -0.418  52.683  1.00  0.00    -0.396 OA
HETATM   26  H21 UNL     1      27.136  -0.876  51.821  1.00  0.00     0.210 HD
ENDBRANCH  23  25
ENDBRANCH   9  20
BRANCH   6  27
HETATM   27  N3  UNL     1      20.000   3.246  52.086  1.00  0.00    -0.188 N 
HETATM   28  H9  UNL     1      19.246   3.908  52.441  1.00  0.00     0.184 HD
BRANCH  27  29
HETATM   29  C10 UNL     1      19.785   1.888  52.387  1.00  0.00     0.049 A 
HETATM   30  C11 UNL     1      18.908   1.115  51.656  1.00  0.00     0.030 A 
HETATM   31  C12 UNL     1      18.663  -0.215  51.909  1.00  0.00     0.002 A 
HETATM   32  C13 UNL     1      19.304  -0.860  52.941  1.00  0.00     0.000 A 
HETATM   33  C14 UNL     1      20.193  -0.138  53.707  1.00  0.00     0.002 A 
HETATM   34  C15 UNL     1      20.395   1.190  53.405  1.00  0.00     0.030 A 
ENDBRANCH  27  29
ENDBRANCH   6  27
TORSDOF 6
ENDMDL
