MODEL 1
REMARK VINA RESULT:      -7.9      0.000      0.000
REMARK  8 active torsions:
REMARK  status: ('A' for Active; 'I' for Inactive)
REMARK    1  A    between atoms: C2_2  and  C3_3 
REMARK    2  A    between atoms: C3_3  and  C5_5 
REMARK    3  A    between atoms: C5_5  and  C6_6 
REMARK    4  A    between atoms: C6_6  and  C7_7 
REMARK    5  A    between atoms: C8_8  and  C9_9 
REMARK    6  A    between atoms: C13_16  and  C14_17 
REMARK    7  A    between atoms: C14_17  and  O3_19 
REMARK    8  A    between atoms: N3_22  and  N4_23 
ROOT
HETATM    1  C9  UNL     1      23.467  -0.080  53.377  1.00  0.00     0.091 A 
HETATM    2  N1  UNL     1      24.104  -0.639  54.392  1.00  0.00    -0.240 NA
HETATM    3  C10 UNL     1      23.533  -1.401  55.321  1.00  0.00     0.236 A 
HETATM    4  N2  UNL     1      22.215  -1.619  55.222  1.00  0.00    -0.215 NA
HETATM    5  C11 UNL     1      21.498  -1.092  54.227  1.00  0.00     0.203 A 
HETATM    6  O1  UNL     1      20.234  -1.339  54.190  1.00  0.00    -0.286 OA
HETATM    7  C12 UNL     1      19.385  -0.908  53.292  1.00  0.00     0.123 A 
HETATM    8  C13 UNL     1      18.172  -0.739  52.664  1.00  0.00     0.076 A 
HETATM    9  C15 UNL     1      18.750   0.051  51.697  1.00  0.00     0.056 A 
HETATM   10  C16 UNL     1      20.021  -0.064  52.265  1.00  0.00     0.092 A 
HETATM   11  N3  UNL     1      21.338   0.180  52.326  1.00  0.00    -0.254 N 
HETATM   12  C17 UNL     1      22.124  -0.310  53.288  1.00  0.00     0.138 A 
ENDROOT
BRANCH   1  13
HETATM   13  C8  UNL     1      24.049   0.743  52.366  1.00  0.00     0.034 C 
HETATM   14  C7  UNL     1      25.310   0.968  52.088  1.00  0.00     0.002 C 
BRANCH  14  15
HETATM   15  C6  UNL     1      26.467   0.432  52.748  1.00  0.00    -0.004 C 
BRANCH  15  16
HETATM   16  C5  UNL     1      27.546  -0.010  53.319  1.00  0.00    -0.023 C 
BRANCH  16  17
HETATM   17  C3  UNL     1      28.722  -0.146  54.193  1.00  0.00     0.004 C 
HETATM   18  C4  UNL     1      29.356   1.196  54.438  1.00  0.00     0.014 C 
BRANCH  17  19
HETATM   19  C2  UNL     1      29.677  -1.135  53.563  1.00  0.00     0.003 C 
HETATM   20  C1  UNL     1      29.038  -2.419  53.146  1.00  0.00     0.006 C 
ENDBRANCH  17  19
ENDBRANCH  16  17
ENDBRANCH  15  16
ENDBRANCH  14  15
ENDBRANCH   1  13
BRANCH  11  21
HETATM   21  N4  UNL     1      21.847   0.985  51.316  1.00  0.00    -0.338 N 
HETATM   22  H17 UNL     1      22.194   1.795  51.915  1.00  0.00     0.177 HD
HETATM   23  H18 UNL     1      21.619   0.371  50.488  1.00  0.00     0.177 HD
ENDBRANCH  11  21
BRANCH   8  24
HETATM   24  C14 UNL     1      16.848  -1.255  52.998  1.00  0.00     0.179 C 
HETATM   25  O2  UNL     1      16.670  -2.514  52.928  1.00  0.00    -0.646 OA
BRANCH  24  26
HETATM   26  O3  UNL     1      15.805  -0.421  53.379  1.00  0.00    -0.773 OA
HETATM   27  H15 UNL     1      15.422  -0.437  54.335  1.00  0.00     0.167 HD
ENDBRANCH  24  26
ENDBRANCH   8  24
TORSDOF 8
ENDMDL
MODEL 2
REMARK VINA RESULT:      -7.6      3.024      7.973
REMARK  8 active torsions:
REMARK  status: ('A' for Active; 'I' for Inactive)
REMARK    1  A    between atoms: C2_2  and  C3_3 
REMARK    2  A    between atoms: C3_3  and  C5_5 
REMARK    3  A    between atoms: C5_5  and  C6_6 
REMARK    4  A    between atoms: C6_6  and  C7_7 
REMARK    5  A    between atoms: C8_8  and  C9_9 
REMARK    6  A    between atoms: C13_16  and  C14_17 
REMARK    7  A    between atoms: C14_17  and  O3_19 
REMARK    8  A    between atoms: N3_22  and  N4_23 
ROOT
HETATM    1  C9  UNL     1      21.900   0.453  53.018  1.00  0.00     0.091 A 
HETATM    2  N1  UNL     1      21.129  -0.152  53.904  1.00  0.00    -0.240 NA
HETATM    3  C10 UNL     1      21.564  -0.968  54.860  1.00  0.00     0.236 A 
HETATM    4  N2  UNL     1      22.882  -1.196  54.930  1.00  0.00    -0.215 NA
HETATM    5  C11 UNL     1      23.731  -0.624  54.072  1.00  0.00     0.203 A 
HETATM    6  O1  UNL     1      24.987  -0.884  54.193  1.00  0.00    -0.286 OA
HETATM    7  C12 UNL     1      25.953  -0.415  53.445  1.00  0.00     0.123 A 
HETATM    8  C13 UNL     1      27.240  -0.226  52.998  1.00  0.00     0.076 A 
HETATM    9  C15 UNL     1      26.803   0.620  52.005  1.00  0.00     0.056 A 
HETATM   10  C16 UNL     1      25.465   0.490  52.389  1.00  0.00     0.092 A 
HETATM   11  N3  UNL     1      24.153   0.745  52.283  1.00  0.00    -0.254 N 
HETATM   12  C17 UNL     1      23.241   0.213  53.100  1.00  0.00     0.138 A 
ENDROOT
BRANCH   1  13
HETATM   13  C8  UNL     1      21.465   1.333  51.981  1.00  0.00     0.034 C 
HETATM   14  C7  UNL     1      20.320   1.379  51.344  1.00  0.00     0.002 C 
BRANCH  14  15
HETATM   15  C6  UNL     1      19.175   0.534  51.527  1.00  0.00    -0.004 C 
BRANCH  15  16
HETATM   16  C5  UNL     1      18.175  -0.275  51.706  1.00  0.00    -0.023 C 
BRANCH  16  17
HETATM   17  C3  UNL     1      17.200  -1.196  52.312  1.00  0.00     0.004 C 
HETATM   18  C4  UNL     1      15.955  -0.455  52.720  1.00  0.00     0.014 C 
BRANCH  17  19
HETATM   19  C2  UNL     1      17.863  -1.904  53.472  1.00  0.00     0.003 C 
HETATM   20  C1  UNL     1      17.448  -3.329  53.634  1.00  0.00     0.006 C 
ENDBRANCH  17  19
ENDBRANCH  16  17
ENDBRANCH  15  16
ENDBRANCH  14  15
ENDBRANCH   1  13
BRANCH  11  21
HETATM   21  N4  UNL     1      23.791   1.607  51.258  1.00  0.00    -0.338 N 
HETATM   22  H17 UNL     1      24.155   2.517  51.675  1.00  0.00     0.177 HD
HETATM   23  H18 UNL     1      23.343   0.907  50.606  1.00  0.00     0.177 HD
ENDBRANCH  11  21
BRANCH   8  24
HETATM   24  C14 UNL     1      28.504  -0.775  53.480  1.00  0.00     0.179 C 
HETATM   25  O2  UNL     1      28.642  -2.041  53.466  1.00  0.00    -0.646 OA
BRANCH  24  26
HETATM   26  O3  UNL     1      29.532   0.035  53.944  1.00  0.00    -0.773 OA
HETATM   27  H15 UNL     1      29.351   0.836  54.566  1.00  0.00     0.167 HD
ENDBRANCH  24  26
ENDBRANCH   8  24
TORSDOF 8
ENDMDL
MODEL 3
REMARK VINA RESULT:      -7.5      3.451      8.568
REMARK  8 active torsions:
REMARK  status: ('A' for Active; 'I' for Inactive)
REMARK    1  A    between atoms: C2_2  and  C3_3 
REMARK    2  A    between atoms: C3_3  and  C5_5 
REMARK    3  A    between atoms: C5_5  and  C6_6 
REMARK    4  A    between atoms: C6_6  and  C7_7 
REMARK    5  A    between atoms: C8_8  and  C9_9 
REMARK    6  A    between atoms: C13_16  and  C14_17 
REMARK    7  A    between atoms: C14_17  and  O3_19 
REMARK    8  A    between atoms: N3_22  and  N4_23 
ROOT
HETATM    1  C9  UNL     1      22.670  -0.180  53.109  1.00  0.00     0.091 A 
HETATM    2  N1  UNL     1      22.091   0.399  52.072  1.00  0.00    -0.240 NA
HETATM    3  C10 UNL     1      22.694   1.238  51.234  1.00  0.00     0.236 A 
HETATM    4  N2  UNL     1      23.985   1.518  51.457  1.00  0.00    -0.215 NA
HETATM    5  C11 UNL     1      24.644   0.975  52.484  1.00  0.00     0.203 A 
HETATM    6  O1  UNL     1      25.885   1.286  52.643  1.00  0.00    -0.286 OA
HETATM    7  C12 UNL     1      26.678   0.850  53.588  1.00  0.00     0.123 A 
HETATM    8  C13 UNL     1      27.841   0.710  54.311  1.00  0.00     0.076 A 
HETATM    9  C15 UNL     1      27.228  -0.159  55.184  1.00  0.00     0.056 A 
HETATM   10  C16 UNL     1      26.005  -0.079  54.513  1.00  0.00     0.092 A 
HETATM   11  N3  UNL     1      24.714  -0.387  54.326  1.00  0.00    -0.254 N 
HETATM   12  C17 UNL     1      23.985   0.113  53.325  1.00  0.00     0.138 A 
ENDROOT
BRANCH   1  13
HETATM   13  C8  UNL     1      22.051  -1.083  54.025  1.00  0.00     0.034 C 
HETATM   14  C7  UNL     1      20.784  -1.375  54.191  1.00  0.00     0.002 C 
BRANCH  14  15
HETATM   15  C6  UNL     1      19.657  -0.850  53.473  1.00  0.00    -0.004 C 
BRANCH  15  16
HETATM   16  C5  UNL     1      18.603  -0.411  52.854  1.00  0.00    -0.023 C 
BRANCH  16  17
HETATM   17  C3  UNL     1      17.349  -0.338  52.089  1.00  0.00     0.004 C 
HETATM   18  C4  UNL     1      16.509  -1.562  52.331  1.00  0.00     0.014 C 
BRANCH  17  19
HETATM   19  C2  UNL     1      17.687  -0.142  50.628  1.00  0.00     0.003 C 
HETATM   20  C1  UNL     1      18.665   0.956  50.370  1.00  0.00     0.006 C 
ENDBRANCH  17  19
ENDBRANCH  16  17
ENDBRANCH  15  16
ENDBRANCH  14  15
ENDBRANCH   1  13
BRANCH  11  21
HETATM   21  N4  UNL     1      24.167  -1.269  55.248  1.00  0.00    -0.338 N 
HETATM   22  H17 UNL     1      23.137  -1.042  55.098  1.00  0.00     0.177 HD
HETATM   23  H18 UNL     1      25.061  -1.697  55.613  1.00  0.00     0.177 HD
ENDBRANCH  11  21
BRANCH   8  24
HETATM   24  C14 UNL     1      29.157   1.311  54.120  1.00  0.00     0.179 C 
HETATM   25  O2  UNL     1      29.345   2.483  54.583  1.00  0.00    -0.646 OA
BRANCH  24  26
HETATM   26  O3  UNL     1      30.183   0.649  53.458  1.00  0.00    -0.773 OA
HETATM   27  H15 UNL     1      30.765   1.121  52.752  1.00  0.00     0.167 HD
ENDBRANCH  24  26
ENDBRANCH   8  24
TORSDOF 8
ENDMDL
MODEL 4
REMARK VINA RESULT:      -7.2      4.590      6.825
REMARK  8 active torsions:
REMARK  status: ('A' for Active; 'I' for Inactive)
REMARK    1  A    between atoms: C2_2  and  C3_3 
REMARK    2  A    between atoms: C3_3  and  C5_5 
REMARK    3  A    between atoms: C5_5  and  C6_6 
REMARK    4  A    between atoms: C6_6  and  C7_7 
REMARK    5  A    between atoms: C8_8  and  C9_9 
REMARK    6  A    between atoms: C13_16  and  C14_17 
REMARK    7  A    between atoms: C14_17  and  O3_19 
REMARK    8  A    between atoms: N3_22  and  N4_23 
ROOT
HETATM    1  C9  UNL     1      24.789   3.131  50.385  1.00  0.00     0.091 A 
HETATM    2  N1  UNL     1      23.879   3.962  49.908  1.00  0.00    -0.240 NA
HETATM    3  C10 UNL     1      22.602   3.988  50.281  1.00  0.00     0.236 A 
HETATM    4  N2  UNL     1      22.208   3.106  51.210  1.00  0.00    -0.215 NA
HETATM    5  C11 UNL     1      23.065   2.232  51.744  1.00  0.00     0.203 A 
HETATM    6  O1  UNL     1      22.623   1.410  52.632  1.00  0.00    -0.286 OA
HETATM    7  C12 UNL     1      23.318   0.493  53.255  1.00  0.00     0.123 A 
HETATM    8  C13 UNL     1      23.568  -0.543  54.125  1.00  0.00     0.076 A 
HETATM    9  C15 UNL     1      24.890  -0.580  53.748  1.00  0.00     0.056 A 
HETATM   10  C16 UNL     1      24.731   0.469  52.838  1.00  0.00     0.092 A 
HETATM   11  N3  UNL     1      25.167   1.333  51.912  1.00  0.00    -0.254 N 
HETATM   12  C17 UNL     1      24.375   2.238  51.331  1.00  0.00     0.138 A 
ENDROOT
BRANCH   1  13
HETATM   13  C8  UNL     1      26.164   3.077  50.005  1.00  0.00     0.034 C 
HETATM   14  C7  UNL     1      26.896   3.960  49.372  1.00  0.00     0.002 C 
BRANCH  14  15
HETATM   15  C6  UNL     1      26.496   5.248  48.882  1.00  0.00    -0.004 C 
BRANCH  15  16
HETATM   16  C5  UNL     1      26.182   6.436  48.461  1.00  0.00    -0.023 C 
BRANCH  16  17
HETATM   17  C3  UNL     1      26.158   7.891  48.240  1.00  0.00     0.004 C 
HETATM   18  C4  UNL     1      26.028   8.201  46.774  1.00  0.00     0.014 C 
BRANCH  17  19
HETATM   19  C2  UNL     1      27.402   8.492  48.855  1.00  0.00     0.003 C 
HETATM   20  C1  UNL     1      27.194   9.061  50.220  1.00  0.00     0.006 C 
ENDBRANCH  17  19
ENDBRANCH  16  17
ENDBRANCH  15  16
ENDBRANCH  14  15
ENDBRANCH   1  13
BRANCH  11  21
HETATM   21  N4  UNL     1      26.512   1.234  51.584  1.00  0.00    -0.338 N 
HETATM   22  H17 UNL     1      26.477   1.683  50.618  1.00  0.00     0.177 HD
HETATM   23  H18 UNL     1      26.860   0.763  52.463  1.00  0.00     0.177 HD
ENDBRANCH  11  21
BRANCH   8  24
HETATM   24  C14 UNL     1      22.679  -1.248  55.045  1.00  0.00     0.179 C 
HETATM   25  O2  UNL     1      21.424  -1.120  54.868  1.00  0.00    -0.646 OA
BRANCH  24  26
HETATM   26  O3  UNL     1      23.163  -2.033  56.084  1.00  0.00    -0.773 OA
HETATM   27  H15 UNL     1      23.766  -2.849  55.909  1.00  0.00     0.167 HD
ENDBRANCH  24  26
ENDBRANCH   8  24
TORSDOF 8
ENDMDL
MODEL 5
REMARK VINA RESULT:      -7.2      4.350      6.098
REMARK  8 active torsions:
REMARK  status: ('A' for Active; 'I' for Inactive)
REMARK    1  A    between atoms: C2_2  and  C3_3 
REMARK    2  A    between atoms: C3_3  and  C5_5 
REMARK    3  A    between atoms: C5_5  and  C6_6 
REMARK    4  A    between atoms: C6_6  and  C7_7 
REMARK    5  A    between atoms: C8_8  and  C9_9 
REMARK    6  A    between atoms: C13_16  and  C14_17 
REMARK    7  A    between atoms: C14_17  and  O3_19 
REMARK    8  A    between atoms: N3_22  and  N4_23 
ROOT
HETATM    1  C9  UNL     1      25.059   2.970  50.782  1.00  0.00     0.091 A 
HETATM    2  N1  UNL     1      26.373   3.080  50.874  1.00  0.00    -0.240 NA
HETATM    3  C10 UNL     1      27.138   2.382  51.710  1.00  0.00     0.236 A 
HETATM    4  N2  UNL     1      26.533   1.503  52.520  1.00  0.00    -0.215 NA
HETATM    5  C11 UNL     1      25.209   1.331  52.490  1.00  0.00     0.203 A 
HETATM    6  O1  UNL     1      24.688   0.470  53.295  1.00  0.00    -0.286 OA
HETATM    7  C12 UNL     1      23.418   0.175  53.400  1.00  0.00     0.123 A 
HETATM    8  C13 UNL     1      22.293  -0.458  53.876  1.00  0.00     0.076 A 
HETATM    9  C15 UNL     1      21.491   0.256  53.016  1.00  0.00     0.056 A 
HETATM   10  C16 UNL     1      22.575   0.950  52.472  1.00  0.00     0.092 A 
HETATM   11  N3  UNL     1      23.140   1.840  51.644  1.00  0.00    -0.254 N 
HETATM   12  C17 UNL     1      24.455   2.070  51.612  1.00  0.00     0.138 A 
ENDROOT
BRANCH   1  13
HETATM   13  C8  UNL     1      24.211   3.703  49.898  1.00  0.00     0.034 C 
HETATM   14  C7  UNL     1      24.491   4.711  49.109  1.00  0.00     0.002 C 
BRANCH  14  15
HETATM   15  C6  UNL     1      25.758   5.359  48.922  1.00  0.00    -0.004 C 
BRANCH  15  16
HETATM   16  C5  UNL     1      26.902   5.931  48.697  1.00  0.00    -0.023 C 
BRANCH  16  17
HETATM   17  C3  UNL     1      28.112   6.448  48.039  1.00  0.00     0.004 C 
HETATM   18  C4  UNL     1      29.255   5.483  48.200  1.00  0.00     0.014 C 
BRANCH  17  19
HETATM   19  C2  UNL     1      28.420   7.816  48.604  1.00  0.00     0.003 C 
HETATM   20  C1  UNL     1      27.234   8.718  48.697  1.00  0.00     0.006 C 
ENDBRANCH  17  19
ENDBRANCH  16  17
ENDBRANCH  15  16
ENDBRANCH  14  15
ENDBRANCH   1  13
BRANCH  11  21
HETATM   21  N4  UNL     1      22.266   2.521  50.809  1.00  0.00    -0.338 N 
HETATM   22  H17 UNL     1      22.978   3.100  50.267  1.00  0.00     0.177 HD
HETATM   23  H18 UNL     1      21.357   2.108  51.152  1.00  0.00     0.177 HD
ENDBRANCH  11  21
BRANCH   8  24
HETATM   24  C14 UNL     1      22.142  -1.482  54.906  1.00  0.00     0.179 C 
HETATM   25  O2  UNL     1      21.060  -2.153  54.918  1.00  0.00    -0.646 OA
BRANCH  24  26
HETATM   26  O3  UNL     1      23.130  -1.731  55.850  1.00  0.00    -0.773 OA
HETATM   27  H15 UNL     1      24.089  -1.988  55.575  1.00  0.00     0.167 HD
ENDBRANCH  24  26
ENDBRANCH   8  24
TORSDOF 8
ENDMDL
MODEL 6
REMARK VINA RESULT:      -7.0      5.197      8.357
REMARK  8 active torsions:
REMARK  status: ('A' for Active; 'I' for Inactive)
REMARK    1  A    between atoms: C2_2  and  C3_3 
REMARK    2  A    between atoms: C3_3  and  C5_5 
REMARK    3  A    between atoms: C5_5  and  C6_6 
REMARK    4  A    between atoms: C6_6  and  C7_7 
REMARK    5  A    between atoms: C8_8  and  C9_9 
REMARK    6  A    between atoms: C13_16  and  C14_17 
REMARK    7  A    between atoms: C14_17  and  O3_19 
REMARK    8  A    between atoms: N3_22  and  N4_23 
ROOT
HETATM    1  C9  UNL     1      24.335   3.316  51.360  1.00  0.00     0.091 A 
HETATM    2  N1  UNL     1      24.863   4.217  50.550  1.00  0.00    -0.240 NA
HETATM    3  C10 UNL     1      26.100   4.172  50.064  1.00  0.00     0.236 A 
HETATM    4  N2  UNL     1      26.872   3.137  50.422  1.00  0.00    -0.215 NA
HETATM    5  C11 UNL     1      26.416   2.183  51.238  1.00  0.00     0.203 A 
HETATM    6  O1  UNL     1      27.208   1.214  51.545  1.00  0.00    -0.286 OA
HETATM    7  C12 UNL     1      26.930   0.201  52.325  1.00  0.00     0.123 A 
HETATM    8  C13 UNL     1      27.138  -0.974  53.010  1.00  0.00     0.076 A 
HETATM    9  C15 UNL     1      25.861  -0.939  53.519  1.00  0.00     0.056 A 
HETATM   10  C16 UNL     1      25.558   0.255  52.860  1.00  0.00     0.092 A 
HETATM   11  N3  UNL     1      24.752   1.274  52.527  1.00  0.00    -0.254 N 
HETATM   12  C17 UNL     1      25.132   2.266  51.718  1.00  0.00     0.138 A 
ENDROOT
BRANCH   1  13
HETATM   13  C8  UNL     1      23.014   3.336  51.899  1.00  0.00     0.034 C 
HETATM   14  C7  UNL     1      22.122   4.296  51.902  1.00  0.00     0.002 C 
BRANCH  14  15
HETATM   15  C6  UNL     1      22.245   5.615  51.350  1.00  0.00    -0.004 C 
BRANCH  15  16
HETATM   16  C5  UNL     1      22.365   6.784  50.797  1.00  0.00    -0.023 C 
BRANCH  16  17
HETATM   17  C3  UNL     1      22.920   8.010  50.202  1.00  0.00     0.004 C 
HETATM   18  C4  UNL     1      21.891   8.695  49.345  1.00  0.00     0.014 C 
BRANCH  17  19
HETATM   19  C2  UNL     1      24.172   7.648  49.433  1.00  0.00     0.003 C 
HETATM   20  C1  UNL     1      25.437   7.842  50.203  1.00  0.00     0.006 C 
ENDBRANCH  17  19
ENDBRANCH  16  17
ENDBRANCH  15  16
ENDBRANCH  14  15
ENDBRANCH   1  13
BRANCH  11  21
HETATM   21  N4  UNL     1      23.480   1.239  53.080  1.00  0.00    -0.338 N 
HETATM   22  H17 UNL     1      23.444   2.231  53.465  1.00  0.00     0.177 HD
HETATM   23  H18 UNL     1      23.220   0.246  52.829  1.00  0.00     0.177 HD
ENDBRANCH  11  21
BRANCH   8  24
HETATM   24  C14 UNL     1      28.316  -1.834  53.085  1.00  0.00     0.179 C 
HETATM   25  O2  UNL     1      29.429  -1.288  53.374  1.00  0.00    -0.646 OA
BRANCH  24  26
HETATM   26  O3  UNL     1      28.248  -3.202  52.852  1.00  0.00    -0.773 OA
HETATM   27  H15 UNL     1      29.096  -3.780  52.773  1.00  0.00     0.167 HD
ENDBRANCH  24  26
ENDBRANCH   8  24
TORSDOF 8
ENDMDL
MODEL 7
REMARK VINA RESULT:      -6.9      1.664      2.948
REMARK  8 active torsions:
REMARK  status: ('A' for Active; 'I' for Inactive)
REMARK    1  A    between atoms: C2_2  and  C3_3 
REMARK    2  A    between atoms: C3_3  and  C5_5 
REMARK    3  A    between atoms: C5_5  and  C6_6 
REMARK    4  A    between atoms: C6_6  and  C7_7 
REMARK    5  A    between atoms: C8_8  and  C9_9 
REMARK    6  A    between atoms: C13_16  and  C14_17 
REMARK    7  A    between atoms: C14_17  and  O3_19 
REMARK    8  A    between atoms: N3_22  and  N4_23 
ROOT
HETATM    1  C9  UNL     1      22.513   0.100  53.088  1.00  0.00     0.091 A 
HETATM    2  N1  UNL     1      23.306   0.801  52.297  1.00  0.00    -0.240 NA
HETATM    3  C10 UNL     1      22.928   1.384  51.162  1.00  0.00     0.236 A 
HETATM    4  N2  UNL     1      21.647   1.251  50.792  1.00  0.00    -0.215 NA
HETATM    5  C11 UNL     1      20.780   0.559  51.535  1.00  0.00     0.203 A 
HETATM    6  O1  UNL     1      19.562   0.468  51.123  1.00  0.00    -0.286 OA
HETATM    7  C12 UNL     1      18.586  -0.166  51.721  1.00  0.00     0.123 A 
HETATM    8  C13 UNL     1      17.311  -0.643  51.920  1.00  0.00     0.076 A 
HETATM    9  C15 UNL     1      17.689  -1.250  53.095  1.00  0.00     0.056 A 
HETATM   10  C16 UNL     1      19.010  -0.809  52.977  1.00  0.00     0.092 A 
HETATM   11  N3  UNL     1      20.283  -0.701  53.384  1.00  0.00    -0.254 N 
HETATM   12  C17 UNL     1      21.210  -0.027  52.699  1.00  0.00     0.138 A 
ENDROOT
BRANCH   1  13
HETATM   13  C8  UNL     1      22.888  -0.537  54.309  1.00  0.00     0.034 C 
HETATM   14  C7  UNL     1      24.076  -0.863  54.756  1.00  0.00     0.002 C 
BRANCH  14  15
HETATM   15  C6  UNL     1      25.345  -0.658  54.118  1.00  0.00    -0.004 C 
BRANCH  15  16
HETATM   16  C5  UNL     1      26.504  -0.531  53.546  1.00  0.00    -0.023 C 
BRANCH  16  17
HETATM   17  C3  UNL     1      27.678   0.020  52.852  1.00  0.00     0.004 C 
HETATM   18  C4  UNL     1      28.943  -0.352  53.575  1.00  0.00     0.014 C 
BRANCH  17  19
HETATM   19  C2  UNL     1      27.501   1.517  52.720  1.00  0.00     0.003 C 
HETATM   20  C1  UNL     1      28.438   2.318  53.563  1.00  0.00     0.006 C 
ENDBRANCH  17  19
ENDBRANCH  16  17
ENDBRANCH  15  16
ENDBRANCH  14  15
ENDBRANCH   1  13
BRANCH  11  21
HETATM   21  N4  UNL     1      20.587  -1.341  54.577  1.00  0.00    -0.338 N 
HETATM   22  H17 UNL     1      21.442  -0.768  54.854  1.00  0.00     0.177 HD
HETATM   23  H18 UNL     1      19.812  -2.058  54.580  1.00  0.00     0.177 HD
ENDBRANCH  11  21
BRANCH   8  24
HETATM   24  C14 UNL     1      16.103  -0.492  51.114  1.00  0.00     0.179 C 
HETATM   25  O2  UNL     1      16.247  -0.238  49.874  1.00  0.00    -0.646 OA
BRANCH  24  26
HETATM   26  O3  UNL     1      14.831  -0.614  51.659  1.00  0.00    -0.773 OA
HETATM   27  H15 UNL     1      14.018  -0.875  51.083  1.00  0.00     0.167 HD
ENDBRANCH  24  26
ENDBRANCH   8  24
TORSDOF 8
ENDMDL
MODEL 8
REMARK VINA RESULT:      -6.8      9.023     11.529
REMARK  8 active torsions:
REMARK  status: ('A' for Active; 'I' for Inactive)
REMARK    1  A    between atoms: C2_2  and  C3_3 
REMARK    2  A    between atoms: C3_3  and  C5_5 
REMARK    3  A    between atoms: C5_5  and  C6_6 
REMARK    4  A    between atoms: C6_6  and  C7_7 
REMARK    5  A    between atoms: C8_8  and  C9_9 
REMARK    6  A    between atoms: C13_16  and  C14_17 
REMARK    7  A    between atoms: C14_17  and  O3_19 
REMARK    8  A    between atoms: N3_22  and  N4_23 
ROOT
HETATM    1  C9  UNL     1      26.233   6.337  49.384  1.00  0.00     0.091 A 
HETATM    2  N1  UNL     1      25.056   6.273  49.982  1.00  0.00    -0.240 NA
HETATM    3  C10 UNL     1      24.408   7.313  50.499  1.00  0.00     0.236 A 
HETATM    4  N2  UNL     1      24.991   8.516  50.409  1.00  0.00    -0.215 NA
HETATM    5  C11 UNL     1      26.180   8.667  49.820  1.00  0.00     0.203 A 
HETATM    6  O1  UNL     1      26.686   9.851  49.766  1.00  0.00    -0.286 OA
HETATM    7  C12 UNL     1      27.834  10.180  49.230  1.00  0.00     0.123 A 
HETATM    8  C13 UNL     1      28.869  10.999  48.839  1.00  0.00     0.076 A 
HETATM    9  C15 UNL     1      29.549   9.931  48.300  1.00  0.00     0.056 A 
HETATM   10  C16 UNL     1      28.547   9.025  48.658  1.00  0.00     0.092 A 
HETATM   11  N3  UNL     1      28.000   7.803  48.727  1.00  0.00    -0.254 N 
HETATM   12  C17 UNL     1      26.816   7.568  49.298  1.00  0.00     0.138 A 
ENDROOT
BRANCH   1  13
HETATM   13  C8  UNL     1      26.953   5.241  48.820  1.00  0.00     0.034 C 
HETATM   14  C7  UNL     1      26.929   3.969  49.134  1.00  0.00     0.002 C 
BRANCH  14  15
HETATM   15  C6  UNL     1      26.150   3.328  50.155  1.00  0.00    -0.004 C 
BRANCH  15  16
HETATM   16  C5  UNL     1      25.447   2.698  51.047  1.00  0.00    -0.023 C 
BRANCH  16  17
HETATM   17  C3  UNL     1      24.962   1.692  52.004  1.00  0.00     0.004 C 
HETATM   18  C4  UNL     1      24.005   2.312  52.986  1.00  0.00     0.014 C 
BRANCH  17  19
HETATM   19  C2  UNL     1      26.156   1.054  52.678  1.00  0.00     0.003 C 
HETATM   20  C1  UNL     1      26.680  -0.155  51.975  1.00  0.00     0.006 C 
ENDBRANCH  17  19
ENDBRANCH  16  17
ENDBRANCH  15  16
ENDBRANCH  14  15
ENDBRANCH   1  13
BRANCH  11  21
HETATM   21  N4  UNL     1      28.746   6.778  48.162  1.00  0.00    -0.338 N 
HETATM   22  H17 UNL     1      28.898   7.203  47.197  1.00  0.00     0.177 HD
HETATM   23  H18 UNL     1      28.767   6.118  48.986  1.00  0.00     0.177 HD
ENDBRANCH  11  21
BRANCH   8  24
HETATM   24  C14 UNL     1      29.053  12.439  48.997  1.00  0.00     0.179 C 
HETATM   25  O2  UNL     1      30.025  12.981  48.378  1.00  0.00    -0.646 OA
BRANCH  24  26
HETATM   26  O3  UNL     1      28.212  13.209  49.789  1.00  0.00    -0.773 OA
HETATM   27  H15 UNL     1      28.582  13.866  50.490  1.00  0.00     0.167 HD
ENDBRANCH  24  26
ENDBRANCH   8  24
TORSDOF 8
ENDMDL
MODEL 9
REMARK VINA RESULT:      -6.7      2.144      2.807
REMARK  8 active torsions:
REMARK  status: ('A' for Active; 'I' for Inactive)
REMARK    1  A    between atoms: C2_2  and  C3_3 
REMARK    2  A    between atoms: C3_3  and  C5_5 
REMARK    3  A    between atoms: C5_5  and  C6_6 
REMARK    4  A    between atoms: C6_6  and  C7_7 
REMARK    5  A    between atoms: C8_8  and  C9_9 
REMARK    6  A    between atoms: C13_16  and  C14_17 
REMARK    7  A    between atoms: C14_17  and  O3_19 
REMARK    8  A    between atoms: N3_22  and  N4_23 
ROOT
HETATM    1  C9  UNL     1      21.304   0.511  53.445  1.00  0.00     0.091 A 
HETATM    2  N1  UNL     1      22.336   0.110  54.166  1.00  0.00    -0.240 NA
HETATM    3  C10 UNL     1      22.393  -1.035  54.841  1.00  0.00     0.236 A 
HETATM    4  N2  UNL     1      21.326  -1.842  54.788  1.00  0.00    -0.215 NA
HETATM    5  C11 UNL     1      20.242  -1.512  54.081  1.00  0.00     0.203 A 
HETATM    6  O1  UNL     1      19.248  -2.332  54.071  1.00  0.00    -0.286 OA
HETATM    7  C12 UNL     1      18.115  -2.171  53.437  1.00  0.00     0.123 A 
HETATM    8  C13 UNL     1      16.845  -2.473  53.000  1.00  0.00     0.076 A 
HETATM    9  C15 UNL     1      16.774  -1.293  52.298  1.00  0.00     0.056 A 
HETATM   10  C16 UNL     1      18.056  -0.902  52.690  1.00  0.00     0.092 A 
HETATM   11  N3  UNL     1      19.103  -0.064  52.717  1.00  0.00    -0.254 N 
HETATM   12  C17 UNL     1      20.222  -0.321  53.398  1.00  0.00     0.138 A 
ENDROOT
BRANCH   1  13
HETATM   13  C8  UNL     1      21.210   1.732  52.711  1.00  0.00     0.034 C 
HETATM   14  C7  UNL     1      22.156   2.463  52.172  1.00  0.00     0.002 C 
BRANCH  14  15
HETATM   15  C6  UNL     1      23.570   2.220  52.180  1.00  0.00    -0.004 C 
BRANCH  15  16
HETATM   16  C5  UNL     1      24.853   2.027  52.240  1.00  0.00    -0.023 C 
BRANCH  16  17
HETATM   17  C3  UNL     1      26.277   1.910  51.890  1.00  0.00     0.004 C 
HETATM   18  C4  UNL     1      26.567   2.636  50.605  1.00  0.00     0.014 C 
BRANCH  17  19
HETATM   19  C2  UNL     1      26.638   0.443  51.824  1.00  0.00     0.003 C 
HETATM   20  C1  UNL     1      25.965  -0.397  52.859  1.00  0.00     0.006 C 
ENDBRANCH  17  19
ENDBRANCH  16  17
ENDBRANCH  15  16
ENDBRANCH  14  15
ENDBRANCH   1  13
BRANCH  11  21
HETATM   21  N4  UNL     1      18.954   1.105  51.984  1.00  0.00    -0.338 N 
HETATM   22  H17 UNL     1      19.812   1.628  52.339  1.00  0.00     0.177 HD
HETATM   23  H18 UNL     1      18.069   0.861  51.464  1.00  0.00     0.177 HD
ENDBRANCH  11  21
BRANCH   8  24
HETATM   24  C14 UNL     1      16.004  -3.638  53.258  1.00  0.00     0.179 C 
HETATM   25  O2  UNL     1      16.585  -4.755  53.452  1.00  0.00    -0.646 OA
BRANCH  24  26
HETATM   26  O3  UNL     1      14.618  -3.555  53.293  1.00  0.00    -0.773 OA
HETATM   27  H15 UNL     1      14.065  -4.039  54.015  1.00  0.00     0.167 HD
ENDBRANCH  24  26
ENDBRANCH   8  24
TORSDOF 8
ENDMDL
