MODEL 1
REMARK VINA RESULT:      -6.6      0.000      0.000
REMARK  8 active torsions:
REMARK  status: ('A' for Active; 'I' for Inactive)
REMARK    1  A    between atoms: O1_2  and  C2_3 
REMARK    2  A    between atoms: C6_8  and  N2_9 
REMARK    3  A    between atoms: N2_9  and  C8_11 
REMARK    4  A    between atoms: C9_12  and  C10_13 
REMARK    5  A    between atoms: C11_14  and  N3_15 
REMARK    6  A    between atoms: C11_14  and  C12_16 
REMARK    7  A    between atoms: C12_16  and  C13_17 
REMARK    8  A    between atoms: C16_21  and  O2_22 
ROOT
HETATM    1  C2  UNL     1      19.567  -0.218  52.532  1.00  0.00     0.103 C 
HETATM    2  C3  UNL     1      20.106  -0.800  53.620  1.00  0.00     0.068 C 
HETATM    3  C4  UNL     1      21.517  -0.472  53.653  1.00  0.00     0.050 C 
HETATM    4  N1  UNL     1      22.471  -1.101  54.307  1.00  0.00    -0.262 NA
HETATM    5  C5  UNL     1      23.729  -0.499  54.068  1.00  0.00     0.143 C 
HETATM    6  C6  UNL     1      23.634   0.553  53.234  1.00  0.00     0.042 C 
HETATM    7  C14 UNL     1      22.225   0.644  53.043  1.00  0.00     0.114 C 
HETATM    8  C15 UNL     1      21.574   1.113  51.838  1.00  0.00     0.030 C 
HETATM    9  C16 UNL     1      20.304   0.703  51.638  1.00  0.00     0.098 C 
ENDROOT
BRANCH   6  10
HETATM   10  N2  UNL     1      24.530   1.493  52.657  1.00  0.00    -0.363 N 
HETATM   11  C7  UNL     1      24.493   2.827  53.273  1.00  0.00     0.155 C 
BRANCH  10  12
HETATM   12  C8  UNL     1      25.463   1.331  51.565  1.00  0.00     0.087 C 
HETATM   13  C9  UNL     1      26.780   1.045  51.535  1.00  0.00    -0.002 C 
BRANCH  13  14
HETATM   14  C10 UNL     1      26.855   0.974  52.964  1.00  0.00     0.133 C 
HETATM   15  C11 UNL     1      27.750   0.536  53.820  1.00  0.00     0.144 C 
BRANCH  15  16
HETATM   16  N3  UNL     1      26.789   0.958  54.817  1.00  0.00     0.084 NA
HETATM   17  H12 UNL     1      26.466   1.750  55.446  1.00  0.00     0.313 HD
HETATM   18  H13 UNL     1      26.444   1.720  55.451  1.00  0.00     0.313 HD
ENDBRANCH  15  16
BRANCH  15  19
HETATM   19  C12 UNL     1      28.885  -0.017  54.612  1.00  0.00     0.051 C 
BRANCH  19  20
HETATM   20  C13 UNL     1      29.838  -0.799  53.740  1.00  0.00     0.116 C 
HETATM   21 CL1  UNL     1      29.022  -2.232  53.104  1.00  0.00    -0.130 Cl
ENDBRANCH  19  20
ENDBRANCH  15  19
ENDBRANCH  13  14
ENDBRANCH  10  12
ENDBRANCH   6  10
BRANCH   9  22
HETATM   22  O2  UNL     1      19.679   1.209  50.490  1.00  0.00    -0.353 OA
HETATM   23  C17 UNL     1      20.448   2.056  49.645  1.00  0.00     0.210 C 
ENDBRANCH   9  22
BRANCH   1  24
HETATM   24  O1  UNL     1      18.242  -0.405  52.218  1.00  0.00    -0.353 OA
HETATM   25  C1  UNL     1      17.408  -1.272  52.967  1.00  0.00     0.210 C 
ENDBRANCH   1  24
TORSDOF 8
ENDMDL
MODEL 2
REMARK VINA RESULT:      -6.5      3.902      6.230
REMARK  8 active torsions:
REMARK  status: ('A' for Active; 'I' for Inactive)
REMARK    1  A    between atoms: O1_2  and  C2_3 
REMARK    2  A    between atoms: C6_8  and  N2_9 
REMARK    3  A    between atoms: N2_9  and  C8_11 
REMARK    4  A    between atoms: C9_12  and  C10_13 
REMARK    5  A    between atoms: C11_14  and  N3_15 
REMARK    6  A    between atoms: C11_14  and  C12_16 
REMARK    7  A    between atoms: C12_16  and  C13_17 
REMARK    8  A    between atoms: C16_21  and  O2_22 
ROOT
HETATM    1  C2  UNL     1      26.495   0.066  54.142  1.00  0.00     0.103 C 
HETATM    2  C3  UNL     1      25.531  -0.827  53.848  1.00  0.00     0.068 C 
HETATM    3  C4  UNL     1      24.372  -0.100  53.374  1.00  0.00     0.050 C 
HETATM    4  N1  UNL     1      23.125  -0.522  53.324  1.00  0.00    -0.262 NA
HETATM    5  C5  UNL     1      22.270   0.489  52.828  1.00  0.00     0.143 C 
HETATM    6  C6  UNL     1      22.939   1.621  52.541  1.00  0.00     0.042 C 
HETATM    7  C14 UNL     1      24.287   1.230  52.785  1.00  0.00     0.114 C 
HETATM    8  C15 UNL     1      25.338   2.105  53.256  1.00  0.00     0.030 C 
HETATM    9  C16 UNL     1      26.384   1.518  53.876  1.00  0.00     0.098 C 
ENDROOT
BRANCH   6  10
HETATM   10  N2  UNL     1      22.613   2.911  52.041  1.00  0.00    -0.363 N 
HETATM   11  C7  UNL     1      21.711   2.905  50.881  1.00  0.00     0.155 C 
BRANCH  10  12
HETATM   12  C8  UNL     1      23.036   4.214  52.502  1.00  0.00     0.087 C 
HETATM   13  C9  UNL     1      23.896   5.119  51.993  1.00  0.00    -0.002 C 
BRANCH  13  14
HETATM   14  C10 UNL     1      24.193   4.286  50.866  1.00  0.00     0.133 C 
HETATM   15  C11 UNL     1      25.262   4.076  50.131  1.00  0.00     0.144 C 
BRANCH  15  16
HETATM   16  N3  UNL     1      24.409   3.150  49.416  1.00  0.00     0.084 NA
HETATM   17  H12 UNL     1      23.675   3.039  48.657  1.00  0.00     0.313 HD
HETATM   18  H13 UNL     1      23.683   3.006  48.672  1.00  0.00     0.313 HD
ENDBRANCH  15  16
BRANCH  15  19
HETATM   19  C12 UNL     1      26.573   3.989  49.427  1.00  0.00     0.051 C 
BRANCH  19  20
HETATM   20  C13 UNL     1      26.944   5.305  48.787  1.00  0.00     0.116 C 
HETATM   21 CL1  UNL     1      28.639   5.265  48.287  1.00  0.00    -0.130 Cl
ENDBRANCH  19  20
ENDBRANCH  15  19
ENDBRANCH  13  14
ENDBRANCH  10  12
ENDBRANCH   6  10
BRANCH   9  22
HETATM   22  O2  UNL     1      27.411   2.381  54.279  1.00  0.00    -0.353 OA
HETATM   23  C17 UNL     1      28.491   2.581  53.375  1.00  0.00     0.210 C 
ENDBRANCH   9  22
BRANCH   1  24
HETATM   24  O1  UNL     1      27.697  -0.344  54.667  1.00  0.00    -0.353 OA
HETATM   25  C1  UNL     1      28.733  -0.866  53.854  1.00  0.00     0.210 C 
ENDBRANCH   1  24
TORSDOF 8
ENDMDL
MODEL 3
REMARK VINA RESULT:      -6.4      4.270      6.999
REMARK  8 active torsions:
REMARK  status: ('A' for Active; 'I' for Inactive)
REMARK    1  A    between atoms: O1_2  and  C2_3 
REMARK    2  A    between atoms: C6_8  and  N2_9 
REMARK    3  A    between atoms: N2_9  and  C8_11 
REMARK    4  A    between atoms: C9_12  and  C10_13 
REMARK    5  A    between atoms: C11_14  and  N3_15 
REMARK    6  A    between atoms: C11_14  and  C12_16 
REMARK    7  A    between atoms: C12_16  and  C13_17 
REMARK    8  A    between atoms: C16_21  and  O2_22 
ROOT
HETATM    1  C2  UNL     1      26.637   0.006  54.117  1.00  0.00     0.103 C 
HETATM    2  C3  UNL     1      25.637  -0.839  53.804  1.00  0.00     0.068 C 
HETATM    3  C4  UNL     1      24.507  -0.053  53.352  1.00  0.00     0.050 C 
HETATM    4  N1  UNL     1      23.244  -0.422  53.297  1.00  0.00    -0.262 NA
HETATM    5  C5  UNL     1      22.429   0.636  52.829  1.00  0.00     0.143 C 
HETATM    6  C6  UNL     1      23.144   1.746  52.568  1.00  0.00     0.042 C 
HETATM    7  C14 UNL     1      24.475   1.293  52.798  1.00  0.00     0.114 C 
HETATM    8  C15 UNL     1      25.563   2.113  53.287  1.00  0.00     0.030 C 
HETATM    9  C16 UNL     1      26.585   1.467  53.888  1.00  0.00     0.098 C 
ENDROOT
BRANCH   6  10
HETATM   10  N2  UNL     1      22.870   3.060  52.102  1.00  0.00    -0.363 N 
HETATM   11  C7  UNL     1      21.479   3.495  52.286  1.00  0.00     0.155 C 
BRANCH  10  12
HETATM   12  C8  UNL     1      23.752   4.022  51.481  1.00  0.00     0.087 C 
HETATM   13  C9  UNL     1      24.120   4.216  50.198  1.00  0.00    -0.002 C 
BRANCH  13  14
HETATM   14  C10 UNL     1      23.311   3.125  49.742  1.00  0.00     0.133 C 
HETATM   15  C11 UNL     1      22.730   2.820  48.603  1.00  0.00     0.144 C 
BRANCH  15  16
HETATM   16  N3  UNL     1      22.280   1.643  49.317  1.00  0.00     0.084 NA
HETATM   17  H12 UNL     1      21.976   1.247  50.253  1.00  0.00     0.313 HD
HETATM   18  H13 UNL     1      21.974   1.220  50.227  1.00  0.00     0.313 HD
ENDBRANCH  15  16
BRANCH  15  19
HETATM   19  C12 UNL     1      22.154   2.667  47.238  1.00  0.00     0.051 C 
BRANCH  19  20
HETATM   20  C13 UNL     1      21.433   3.918  46.799  1.00  0.00     0.116 C 
HETATM   21 CL1  UNL     1      22.501   5.315  46.982  1.00  0.00    -0.130 Cl
ENDBRANCH  19  20
ENDBRANCH  15  19
ENDBRANCH  13  14
ENDBRANCH  10  12
ENDBRANCH   6  10
BRANCH   9  22
HETATM   22  O2  UNL     1      27.648   2.277  54.310  1.00  0.00    -0.353 OA
HETATM   23  C17 UNL     1      28.652   2.590  53.352  1.00  0.00     0.210 C 
ENDBRANCH   9  22
BRANCH   1  24
HETATM   24  O1  UNL     1      27.822  -0.466  54.628  1.00  0.00    -0.353 OA
HETATM   25  C1  UNL     1      28.850  -0.972  53.794  1.00  0.00     0.210 C 
ENDBRANCH   1  24
TORSDOF 8
ENDMDL
MODEL 4
REMARK VINA RESULT:      -6.3      2.448      3.282
REMARK  8 active torsions:
REMARK  status: ('A' for Active; 'I' for Inactive)
REMARK    1  A    between atoms: O1_2  and  C2_3 
REMARK    2  A    between atoms: C6_8  and  N2_9 
REMARK    3  A    between atoms: N2_9  and  C8_11 
REMARK    4  A    between atoms: C9_12  and  C10_13 
REMARK    5  A    between atoms: C11_14  and  N3_15 
REMARK    6  A    between atoms: C11_14  and  C12_16 
REMARK    7  A    between atoms: C12_16  and  C13_17 
REMARK    8  A    between atoms: C16_21  and  O2_22 
ROOT
HETATM    1  C2  UNL     1      20.677  -0.317  53.060  1.00  0.00     0.103 C 
HETATM    2  C3  UNL     1      20.777  -0.691  54.349  1.00  0.00     0.068 C 
HETATM    3  C4  UNL     1      22.182  -0.856  54.663  1.00  0.00     0.050 C 
HETATM    4  N1  UNL     1      22.706  -1.540  55.659  1.00  0.00    -0.262 NA
HETATM    5  C5  UNL     1      24.119  -1.491  55.616  1.00  0.00     0.143 C 
HETATM    6  C6  UNL     1      24.567  -0.770  54.572  1.00  0.00     0.042 C 
HETATM    7  C14 UNL     1      23.351  -0.277  54.017  1.00  0.00     0.114 C 
HETATM    8  C15 UNL     1      23.123  -0.004  52.614  1.00  0.00     0.030 C 
HETATM    9  C16 UNL     1      21.839  -0.008  52.198  1.00  0.00     0.098 C 
ENDROOT
BRANCH   6  10
HETATM   10  N2  UNL     1      25.834  -0.400  54.044  1.00  0.00    -0.363 N 
HETATM   11  C7  UNL     1      26.583   0.556  54.871  1.00  0.00     0.155 C 
BRANCH  10  12
HETATM   12  C8  UNL     1      26.486  -0.822  52.825  1.00  0.00     0.087 C 
HETATM   13  C9  UNL     1      26.791  -0.166  51.688  1.00  0.00    -0.002 C 
BRANCH  13  14
HETATM   14  C10 UNL     1      26.225   1.057  52.175  1.00  0.00     0.133 C 
HETATM   15  C11 UNL     1      25.864   2.192  51.620  1.00  0.00     0.144 C 
BRANCH  15  16
HETATM   16  N3  UNL     1      25.493   2.565  52.969  1.00  0.00     0.084 NA
HETATM   17  H12 UNL     1      25.738   3.157  53.815  1.00  0.00     0.313 HD
HETATM   18  H13 UNL     1      25.707   3.137  53.823  1.00  0.00     0.313 HD
ENDBRANCH  15  16
BRANCH  15  19
HETATM   19  C12 UNL     1      25.527   3.390  50.800  1.00  0.00     0.051 C 
BRANCH  19  20
HETATM   20  C13 UNL     1      26.633   3.722  49.828  1.00  0.00     0.116 C 
HETATM   21 CL1  UNL     1      26.233   5.209  48.959  1.00  0.00    -0.130 Cl
ENDBRANCH  19  20
ENDBRANCH  15  19
ENDBRANCH  13  14
ENDBRANCH  10  12
ENDBRANCH   6  10
BRANCH   9  22
HETATM   22  O2  UNL     1      21.641   0.308  50.847  1.00  0.00    -0.353 OA
HETATM   23  C17 UNL     1      22.269   1.483  50.349  1.00  0.00     0.210 C 
ENDBRANCH   9  22
BRANCH   1  24
HETATM   24  O1  UNL     1      19.447  -0.139  52.473  1.00  0.00    -0.353 OA
HETATM   25  C1  UNL     1      18.288  -0.807  52.940  1.00  0.00     0.210 C 
ENDBRANCH   1  24
TORSDOF 8
ENDMDL
MODEL 5
REMARK VINA RESULT:      -6.3      3.788      7.244
REMARK  8 active torsions:
REMARK  status: ('A' for Active; 'I' for Inactive)
REMARK    1  A    between atoms: O1_2  and  C2_3 
REMARK    2  A    between atoms: C6_8  and  N2_9 
REMARK    3  A    between atoms: N2_9  and  C8_11 
REMARK    4  A    between atoms: C9_12  and  C10_13 
REMARK    5  A    between atoms: C11_14  and  N3_15 
REMARK    6  A    between atoms: C11_14  and  C12_16 
REMARK    7  A    between atoms: C12_16  and  C13_17 
REMARK    8  A    between atoms: C16_21  and  O2_22 
ROOT
HETATM    1  C2  UNL     1      26.939   0.308  53.038  1.00  0.00     0.103 C 
HETATM    2  C3  UNL     1      26.192  -0.603  53.689  1.00  0.00     0.068 C 
HETATM    3  C4  UNL     1      24.797  -0.254  53.509  1.00  0.00     0.050 C 
HETATM    4  N1  UNL     1      23.774  -0.637  54.243  1.00  0.00    -0.262 NA
HETATM    5  C5  UNL     1      22.570  -0.063  53.770  1.00  0.00     0.143 C 
HETATM    6  C6  UNL     1      22.775   0.730  52.702  1.00  0.00     0.042 C 
HETATM    7  C14 UNL     1      24.166   0.538  52.463  1.00  0.00     0.114 C 
HETATM    8  C15 UNL     1      25.063   1.531  51.911  1.00  0.00     0.030 C 
HETATM    9  C16 UNL     1      26.376   1.379  52.185  1.00  0.00     0.098 C 
ENDROOT
BRANCH   6  10
HETATM   10  N2  UNL     1      21.973   1.537  51.851  1.00  0.00    -0.363 N 
HETATM   11  C7  UNL     1      21.450   2.756  52.482  1.00  0.00     0.155 C 
BRANCH  10  12
HETATM   12  C8  UNL     1      21.601   1.335  50.469  1.00  0.00     0.087 C 
HETATM   13  C9  UNL     1      20.540   0.731  49.896  1.00  0.00    -0.002 C 
BRANCH  13  14
HETATM   14  C10 UNL     1      19.974   0.394  51.168  1.00  0.00     0.133 C 
HETATM   15  C11 UNL     1      18.814  -0.080  51.565  1.00  0.00     0.144 C 
BRANCH  15  16
HETATM   16  N3  UNL     1      19.396   0.009  52.888  1.00  0.00     0.084 NA
HETATM   17  H12 UNL     1      20.231  -0.233  53.497  1.00  0.00     0.313 HD
HETATM   18  H13 UNL     1      20.206  -0.214  53.518  1.00  0.00     0.313 HD
ENDBRANCH  15  16
BRANCH  15  19
HETATM   19  C12 UNL     1      17.443  -0.612  51.800  1.00  0.00     0.051 C 
BRANCH  19  20
HETATM   20  C13 UNL     1      17.277  -1.108  53.216  1.00  0.00     0.116 C 
HETATM   21 CL1  UNL     1      17.468  -2.865  53.255  1.00  0.00    -0.130 Cl
ENDBRANCH  19  20
ENDBRANCH  15  19
ENDBRANCH  13  14
ENDBRANCH  10  12
ENDBRANCH   6  10
BRANCH   9  22
HETATM   22  O2  UNL     1      27.229   2.324  51.600  1.00  0.00    -0.353 OA
HETATM   23  C17 UNL     1      26.688   3.150  50.576  1.00  0.00     0.210 C 
ENDBRANCH   9  22
BRANCH   1  24
HETATM   24  O1  UNL     1      28.311   0.255  53.083  1.00  0.00    -0.353 OA
HETATM   25  C1  UNL     1      29.045   0.727  54.200  1.00  0.00     0.210 C 
ENDBRANCH   1  24
TORSDOF 8
ENDMDL
MODEL 6
REMARK VINA RESULT:      -6.2      4.126      7.550
REMARK  8 active torsions:
REMARK  status: ('A' for Active; 'I' for Inactive)
REMARK    1  A    between atoms: O1_2  and  C2_3 
REMARK    2  A    between atoms: C6_8  and  N2_9 
REMARK    3  A    between atoms: N2_9  and  C8_11 
REMARK    4  A    between atoms: C9_12  and  C10_13 
REMARK    5  A    between atoms: C11_14  and  N3_15 
REMARK    6  A    between atoms: C11_14  and  C12_16 
REMARK    7  A    between atoms: C12_16  and  C13_17 
REMARK    8  A    between atoms: C16_21  and  O2_22 
ROOT
HETATM    1  C2  UNL     1      27.599   0.249  53.729  1.00  0.00     0.103 C 
HETATM    2  C3  UNL     1      28.022   1.278  52.971  1.00  0.00     0.068 C 
HETATM    3  C4  UNL     1      26.874   1.833  52.283  1.00  0.00     0.050 C 
HETATM    4  N1  UNL     1      26.873   2.584  51.201  1.00  0.00    -0.262 NA
HETATM    5  C5  UNL     1      25.552   2.906  50.812  1.00  0.00     0.143 C 
HETATM    6  C6  UNL     1      24.637   2.363  51.635  1.00  0.00     0.042 C 
HETATM    7  C14 UNL     1      25.462   1.764  52.630  1.00  0.00     0.114 C 
HETATM    8  C15 UNL     1      25.138   0.565  53.373  1.00  0.00     0.030 C 
HETATM    9  C16 UNL     1      26.175  -0.118  53.901  1.00  0.00     0.098 C 
ENDROOT
BRANCH   6  10
HETATM   10  N2  UNL     1      23.219   2.342  51.728  1.00  0.00    -0.363 N 
HETATM   11  C7  UNL     1      22.606   3.651  51.993  1.00  0.00     0.155 C 
BRANCH  10  12
HETATM   12  C8  UNL     1      22.300   1.233  51.600  1.00  0.00     0.087 C 
HETATM   13  C9  UNL     1      21.608   0.747  50.550  1.00  0.00    -0.002 C 
BRANCH  13  14
HETATM   14  C10 UNL     1      22.142   1.741  49.667  1.00  0.00     0.133 C 
HETATM   15  C11 UNL     1      21.645   2.477  48.698  1.00  0.00     0.144 C 
BRANCH  15  16
HETATM   16  N3  UNL     1      22.990   3.004  48.606  1.00  0.00     0.084 NA
HETATM   17  H12 UNL     1      23.859   3.290  49.143  1.00  0.00     0.313 HD
HETATM   18  H13 UNL     1      23.865   3.296  49.106  1.00  0.00     0.313 HD
ENDBRANCH  15  16
BRANCH  15  19
HETATM   19  C12 UNL     1      20.889   3.205  47.640  1.00  0.00     0.051 C 
BRANCH  19  20
HETATM   20  C13 UNL     1      21.763   4.212  46.931  1.00  0.00     0.116 C 
HETATM   21 CL1  UNL     1      21.938   3.755  45.232  1.00  0.00    -0.130 Cl
ENDBRANCH  19  20
ENDBRANCH  15  19
ENDBRANCH  13  14
ENDBRANCH  10  12
ENDBRANCH   6  10
BRANCH   9  22
HETATM   22  O2  UNL     1      25.834  -1.248  54.657  1.00  0.00    -0.353 OA
HETATM   23  C17 UNL     1      24.689  -1.153  55.496  1.00  0.00     0.210 C 
ENDBRANCH   9  22
BRANCH   1  24
HETATM   24  O1  UNL     1      28.491  -0.503  54.455  1.00  0.00    -0.353 OA
HETATM   25  C1  UNL     1      29.720  -0.947  53.907  1.00  0.00     0.210 C 
ENDBRANCH   1  24
TORSDOF 8
ENDMDL
MODEL 7
REMARK VINA RESULT:      -6.2      4.389      6.749
REMARK  8 active torsions:
REMARK  status: ('A' for Active; 'I' for Inactive)
REMARK    1  A    between atoms: O1_2  and  C2_3 
REMARK    2  A    between atoms: C6_8  and  N2_9 
REMARK    3  A    between atoms: N2_9  and  C8_11 
REMARK    4  A    between atoms: C9_12  and  C10_13 
REMARK    5  A    between atoms: C11_14  and  N3_15 
REMARK    6  A    between atoms: C11_14  and  C12_16 
REMARK    7  A    between atoms: C12_16  and  C13_17 
REMARK    8  A    between atoms: C16_21  and  O2_22 
ROOT
HETATM    1  C2  UNL     1      26.144  -0.217  52.857  1.00  0.00     0.103 C 
HETATM    2  C3  UNL     1      27.065   0.589  52.298  1.00  0.00     0.068 C 
HETATM    3  C4  UNL     1      26.382   1.748  51.759  1.00  0.00     0.050 C 
HETATM    4  N1  UNL     1      26.822   2.582  50.840  1.00  0.00    -0.262 NA
HETATM    5  C5  UNL     1      25.854   3.573  50.553  1.00  0.00     0.143 C 
HETATM    6  C6  UNL     1      24.734   3.410  51.281  1.00  0.00     0.042 C 
HETATM    7  C14 UNL     1      25.093   2.318  52.122  1.00  0.00     0.114 C 
HETATM    8  C15 UNL     1      24.177   1.320  52.632  1.00  0.00     0.030 C 
HETATM    9  C16 UNL     1      24.713   0.135  52.993  1.00  0.00     0.098 C 
ENDROOT
BRANCH   6  10
HETATM   10  N2  UNL     1      23.481   4.069  51.404  1.00  0.00    -0.363 N 
HETATM   11  C7  UNL     1      23.064   4.332  52.788  1.00  0.00     0.155 C 
BRANCH  10  12
HETATM   12  C8  UNL     1      22.567   4.515  50.377  1.00  0.00     0.087 C 
HETATM   13  C9  UNL     1      22.352   5.723  49.819  1.00  0.00    -0.002 C 
BRANCH  13  14
HETATM   14  C10 UNL     1      23.359   6.339  50.630  1.00  0.00     0.133 C 
HETATM   15  C11 UNL     1      24.194   7.341  50.462  1.00  0.00     0.144 C 
BRANCH  15  16
HETATM   16  N3  UNL     1      24.620   7.018  51.808  1.00  0.00     0.084 NA
HETATM   17  H12 UNL     1      25.215   7.316  52.635  1.00  0.00     0.313 HD
HETATM   18  H13 UNL     1      25.197   7.284  52.644  1.00  0.00     0.313 HD
ENDBRANCH  15  16
BRANCH  15  19
HETATM   19  C12 UNL     1      25.052   8.493  50.068  1.00  0.00     0.051 C 
BRANCH  19  20
HETATM   20  C13 UNL     1      26.478   8.061  49.824  1.00  0.00     0.116 C 
HETATM   21 CL1  UNL     1      26.498   6.652  48.757  1.00  0.00    -0.130 Cl
ENDBRANCH  19  20
ENDBRANCH  15  19
ENDBRANCH  13  14
ENDBRANCH  10  12
ENDBRANCH   6  10
BRANCH   9  22
HETATM   22  O2  UNL     1      23.814  -0.798  53.528  1.00  0.00    -0.353 OA
HETATM   23  C17 UNL     1      22.469  -0.751  53.067  1.00  0.00     0.210 C 
ENDBRANCH   9  22
BRANCH   1  24
HETATM   24  O1  UNL     1      26.505  -1.425  53.404  1.00  0.00    -0.353 OA
HETATM   25  C1  UNL     1      27.379  -2.320  52.737  1.00  0.00     0.210 C 
ENDBRANCH   1  24
TORSDOF 8
ENDMDL
MODEL 8
REMARK VINA RESULT:      -6.2      3.912      7.250
REMARK  8 active torsions:
REMARK  status: ('A' for Active; 'I' for Inactive)
REMARK    1  A    between atoms: O1_2  and  C2_3 
REMARK    2  A    between atoms: C6_8  and  N2_9 
REMARK    3  A    between atoms: N2_9  and  C8_11 
REMARK    4  A    between atoms: C9_12  and  C10_13 
REMARK    5  A    between atoms: C11_14  and  N3_15 
REMARK    6  A    between atoms: C11_14  and  C12_16 
REMARK    7  A    between atoms: C12_16  and  C13_17 
REMARK    8  A    between atoms: C16_21  and  O2_22 
ROOT
HETATM    1  C2  UNL     1      26.660   0.035  54.221  1.00  0.00     0.103 C 
HETATM    2  C3  UNL     1      25.757  -0.923  53.940  1.00  0.00     0.068 C 
HETATM    3  C4  UNL     1      24.589  -0.287  53.365  1.00  0.00     0.050 C 
HETATM    4  N1  UNL     1      23.368  -0.774  53.284  1.00  0.00    -0.262 NA
HETATM    5  C5  UNL     1      22.491   0.158  52.682  1.00  0.00     0.143 C 
HETATM    6  C6  UNL     1      23.119   1.302  52.353  1.00  0.00     0.042 C 
HETATM    7  C14 UNL     1      24.470   0.996  52.687  1.00  0.00     0.114 C 
HETATM    8  C15 UNL     1      25.453   1.953  53.149  1.00  0.00     0.030 C 
HETATM    9  C16 UNL     1      26.493   1.459  53.855  1.00  0.00     0.098 C 
ENDROOT
BRANCH   6  10
HETATM   10  N2  UNL     1      22.758   2.539  51.755  1.00  0.00    -0.363 N 
HETATM   11  C7  UNL     1      23.505   2.866  50.533  1.00  0.00     0.155 C 
BRANCH  10  12
HETATM   12  C8  UNL     1      21.774   3.514  52.169  1.00  0.00     0.087 C 
HETATM   13  C9  UNL     1      20.481   3.693  51.833  1.00  0.00    -0.002 C 
BRANCH  13  14
HETATM   14  C10 UNL     1      20.499   2.571  50.942  1.00  0.00     0.133 C 
HETATM   15  C11 UNL     1      19.618   1.664  50.583  1.00  0.00     0.144 C 
BRANCH  15  16
HETATM   16  N3  UNL     1      20.692   1.162  49.752  1.00  0.00     0.084 NA
HETATM   17  H12 UNL     1      21.447   0.424  49.644  1.00  0.00     0.313 HD
HETATM   18  H13 UNL     1      21.448   0.446  49.614  1.00  0.00     0.313 HD
ENDBRANCH  15  16
BRANCH  15  19
HETATM   19  C12 UNL     1      18.482   0.737  50.318  1.00  0.00     0.051 C 
BRANCH  19  20
HETATM   20  C13 UNL     1      17.790   0.332  51.597  1.00  0.00     0.116 C 
HETATM   21 CL1  UNL     1      18.945  -0.465  52.672  1.00  0.00    -0.130 Cl
ENDBRANCH  19  20
ENDBRANCH  15  19
ENDBRANCH  13  14
ENDBRANCH  10  12
ENDBRANCH   6  10
BRANCH   9  22
HETATM   22  O2  UNL     1      27.456   2.398  54.249  1.00  0.00    -0.353 OA
HETATM   23  C17 UNL     1      28.548   2.626  53.366  1.00  0.00     0.210 C 
ENDBRANCH   9  22
BRANCH   1  24
HETATM   24  O1  UNL     1      27.852  -0.278  54.828  1.00  0.00    -0.353 OA
HETATM   25  C1  UNL     1      28.975  -0.729  54.091  1.00  0.00     0.210 C 
ENDBRANCH   1  24
TORSDOF 8
ENDMDL
MODEL 9
REMARK VINA RESULT:      -6.2      3.354      6.117
REMARK  8 active torsions:
REMARK  status: ('A' for Active; 'I' for Inactive)
REMARK    1  A    between atoms: O1_2  and  C2_3 
REMARK    2  A    between atoms: C6_8  and  N2_9 
REMARK    3  A    between atoms: N2_9  and  C8_11 
REMARK    4  A    between atoms: C9_12  and  C10_13 
REMARK    5  A    between atoms: C11_14  and  N3_15 
REMARK    6  A    between atoms: C11_14  and  C12_16 
REMARK    7  A    between atoms: C12_16  and  C13_17 
REMARK    8  A    between atoms: C16_21  and  O2_22 
ROOT
HETATM    1  C2  UNL     1      25.721   0.198  54.542  1.00  0.00     0.103 C 
HETATM    2  C3  UNL     1      25.072  -0.787  55.190  1.00  0.00     0.068 C 
HETATM    3  C4  UNL     1      23.719  -0.850  54.675  1.00  0.00     0.050 C 
HETATM    4  N1  UNL     1      22.667  -1.394  55.250  1.00  0.00    -0.262 NA
HETATM    5  C5  UNL     1      21.512  -1.228  54.450  1.00  0.00     0.143 C 
HETATM    6  C6  UNL     1      21.777  -0.555  53.315  1.00  0.00     0.042 C 
HETATM    7  C14 UNL     1      23.191  -0.397  53.396  1.00  0.00     0.114 C 
HETATM    8  C15 UNL     1      23.939   0.719  52.859  1.00  0.00     0.030 C 
HETATM    9  C16 UNL     1      25.147   0.960  53.411  1.00  0.00     0.098 C 
ENDROOT
BRANCH   6  10
HETATM   10  N2  UNL     1      21.038  -0.108  52.187  1.00  0.00    -0.363 N 
HETATM   11  C7  UNL     1      19.594   0.030  52.420  1.00  0.00     0.155 C 
BRANCH  10  12
HETATM   12  C8  UNL     1      21.494   0.227  50.857  1.00  0.00     0.087 C 
HETATM   13  C9  UNL     1      21.623   1.405  50.214  1.00  0.00    -0.002 C 
BRANCH  13  14
HETATM   14  C10 UNL     1      21.142   2.139  51.346  1.00  0.00     0.133 C 
HETATM   15  C11 UNL     1      21.436   3.302  51.885  1.00  0.00     0.144 C 
BRANCH  15  16
HETATM   16  N3  UNL     1      20.406   2.954  52.841  1.00  0.00     0.084 NA
HETATM   17  H12 UNL     1      19.412   2.606  52.973  1.00  0.00     0.313 HD
HETATM   18  H13 UNL     1      19.427   2.612  53.007  1.00  0.00     0.313 HD
ENDBRANCH  15  16
BRANCH  15  19
HETATM   19  C12 UNL     1      21.923   4.636  52.334  1.00  0.00     0.051 C 
BRANCH  19  20
HETATM   20  C13 UNL     1      23.427   4.664  52.454  1.00  0.00     0.116 C 
HETATM   21 CL1  UNL     1      24.154   4.392  50.866  1.00  0.00    -0.130 Cl
ENDBRANCH  19  20
ENDBRANCH  15  19
ENDBRANCH  13  14
ENDBRANCH  10  12
ENDBRANCH   6  10
BRANCH   9  22
HETATM   22  O2  UNL     1      25.872   2.015  52.842  1.00  0.00    -0.353 OA
HETATM   23  C17 UNL     1      26.513   1.772  51.595  1.00  0.00     0.210 C 
ENDBRANCH   9  22
BRANCH   1  24
HETATM   24  O1  UNL     1      27.017   0.519  54.868  1.00  0.00    -0.353 OA
HETATM   25  C1  UNL     1      28.123  -0.179  54.322  1.00  0.00     0.210 C 
ENDBRANCH   1  24
TORSDOF 8
ENDMDL
