MODEL 1
REMARK VINA RESULT:      -7.9      0.000      0.000
REMARK  3 active torsions:
REMARK  status: ('A' for Active; 'I' for Inactive)
REMARK    1  A    between atoms: C1_2  and  N1_3 
REMARK    2  A    between atoms: N1_3  and  C2_4 
REMARK    3  A    between atoms: C5_8  and  O2_9 
ROOT
HETATM    1  C2  UNL     1      22.856  -0.081  52.648  1.00  0.00     0.157 C 
HETATM    2  C3  UNL     1      21.580   0.108  51.977  1.00  0.00     0.120 C 
HETATM    3  N2  UNL     1      20.974   1.104  51.370  1.00  0.00    -0.263 NA
HETATM    4  C4  UNL     1      21.385   2.501  51.493  1.00  0.00     0.085 C 
HETATM    5  C5  UNL     1      20.654   3.543  51.897  1.00  0.00     0.076 C 
HETATM    6  C6  UNL     1      21.584   4.730  51.839  1.00  0.00     0.146 C 
HETATM    7  C7  UNL     1      22.914   4.040  52.065  1.00  0.00     0.153 C 
HETATM    8  O3  UNL     1      23.626   4.605  52.890  1.00  0.00    -0.296 OA
HETATM    9  C8  UNL     1      22.797   2.892  51.138  1.00  0.00     0.107 C 
HETATM   10  C9  UNL     1      23.651   1.734  51.357  1.00  0.00     0.009 C 
HETATM   11  C10 UNL     1      23.848   1.025  52.452  1.00  0.00    -0.033 C 
HETATM   12  C11 UNL     1      24.865   1.120  53.491  1.00  0.00     0.005 C 
HETATM   13  C12 UNL     1      26.079   1.574  53.401  1.00  0.00    -0.024 C 
HETATM   14  C13 UNL     1      27.103   2.152  52.572  1.00  0.00     0.057 C 
HETATM   15  C14 UNL     1      26.745   2.457  51.137  1.00  0.00     0.276 C 
HETATM   16  N3  UNL     1      25.762   3.520  51.051  1.00  0.00     0.106 N 
HETATM   17  C15 UNL     1      25.281   3.848  49.772  1.00  0.00     0.437 C 
HETATM   18  O4  UNL     1      24.238   3.204  49.216  1.00  0.00    -0.361 OA
HETATM   19  C16 UNL     1      22.981   3.346  49.743  1.00  0.00     0.198 C 
HETATM   20  H15 UNL     1      26.057   4.304  51.650  1.00  0.00     0.318 HD
ENDROOT
BRANCH   1  21
HETATM   21  N1  UNL     1      22.753  -0.338  54.068  1.00  0.00    -0.355 N 
HETATM   22  H2  UNL     1      23.535  -0.243  54.753  1.00  0.00     0.162 HD
BRANCH  21  23
HETATM   23  C1  UNL     1      21.492  -0.760  54.630  1.00  0.00     0.349 C 
HETATM   24  O1  UNL     1      21.332  -1.965  55.032  1.00  0.00    -0.284 OA
ENDBRANCH  21  23
ENDBRANCH   1  21
BRANCH   5  25
HETATM   25  O2  UNL     1      19.325   3.551  52.294  1.00  0.00    -0.362 OA
HETATM   26  H5  UNL     1      18.982   3.074  53.123  1.00  0.00     0.217 HD
ENDBRANCH   5  25
TORSDOF 3
ENDMDL
MODEL 2
REMARK VINA RESULT:      -7.6      1.997      4.627
REMARK  3 active torsions:
REMARK  status: ('A' for Active; 'I' for Inactive)
REMARK    1  A    between atoms: C1_2  and  N1_3 
REMARK    2  A    between atoms: N1_3  and  C2_4 
REMARK    3  A    between atoms: C5_8  and  O2_9 
ROOT
HETATM    1  C2  UNL     1      25.018   0.528  53.526  1.00  0.00     0.157 C 
HETATM    2  C3  UNL     1      26.061   1.519  53.317  1.00  0.00     0.120 C 
HETATM    3  N2  UNL     1      26.208   2.587  52.567  1.00  0.00    -0.263 NA
HETATM    4  C4  UNL     1      25.354   2.901  51.422  1.00  0.00     0.085 C 
HETATM    5  C5  UNL     1      25.719   3.118  50.156  1.00  0.00     0.076 C 
HETATM    6  C6  UNL     1      24.434   3.382  49.410  1.00  0.00     0.146 C 
HETATM    7  C7  UNL     1      23.463   2.585  50.258  1.00  0.00     0.153 C 
HETATM    8  O3  UNL     1      22.699   1.883  49.601  1.00  0.00    -0.296 OA
HETATM    9  C8  UNL     1      23.863   3.009  51.619  1.00  0.00     0.107 C 
HETATM   10  C9  UNL     1      23.497   2.163  52.744  1.00  0.00     0.009 C 
HETATM   11  C10 UNL     1      23.687   0.870  52.926  1.00  0.00    -0.033 C 
HETATM   12  C11 UNL     1      22.829  -0.277  52.660  1.00  0.00     0.005 C 
HETATM   13  C12 UNL     1      21.531  -0.332  52.633  1.00  0.00    -0.024 C 
HETATM   14  C13 UNL     1      20.281   0.367  52.773  1.00  0.00     0.057 C 
HETATM   15  C14 UNL     1      20.341   1.852  53.044  1.00  0.00     0.276 C 
HETATM   16  N3  UNL     1      20.876   2.576  51.907  1.00  0.00     0.106 N 
HETATM   17  C15 UNL     1      21.061   3.961  52.058  1.00  0.00     0.437 C 
HETATM   18  O4  UNL     1      22.191   4.476  52.576  1.00  0.00    -0.361 OA
HETATM   19  C16 UNL     1      23.373   4.377  51.889  1.00  0.00     0.198 C 
HETATM   20  H15 UNL     1      20.398   2.263  51.050  1.00  0.00     0.318 HD
ENDROOT
BRANCH   1  21
HETATM   21  N1  UNL     1      25.367  -0.808  53.097  1.00  0.00    -0.355 N 
HETATM   22  H2  UNL     1      24.702  -1.609  53.024  1.00  0.00     0.162 HD
BRANCH  21  23
HETATM   23  C1  UNL     1      26.731  -1.109  52.728  1.00  0.00     0.349 C 
HETATM   24  O1  UNL     1      27.264  -2.221  53.068  1.00  0.00    -0.284 OA
ENDBRANCH  21  23
ENDBRANCH   1  21
BRANCH   5  25
HETATM   25  O2  UNL     1      26.998   3.101  49.622  1.00  0.00    -0.362 OA
HETATM   26  H5  UNL     1      27.430   3.903  49.170  1.00  0.00     0.217 HD
ENDBRANCH   5  25
TORSDOF 3
ENDMDL
MODEL 3
REMARK VINA RESULT:      -7.1      1.901      2.639
REMARK  3 active torsions:
REMARK  status: ('A' for Active; 'I' for Inactive)
REMARK    1  A    between atoms: C1_2  and  N1_3 
REMARK    2  A    between atoms: N1_3  and  C2_4 
REMARK    3  A    between atoms: C5_8  and  O2_9 
ROOT
HETATM    1  C2  UNL     1      21.542   0.945  50.724  1.00  0.00     0.157 C 
HETATM    2  C3  UNL     1      21.236   2.042  49.821  1.00  0.00     0.120 C 
HETATM    3  N2  UNL     1      21.705   3.252  49.617  1.00  0.00    -0.263 NA
HETATM    4  C4  UNL     1      22.568   3.960  50.562  1.00  0.00     0.085 C 
HETATM    5  C5  UNL     1      22.367   5.153  51.127  1.00  0.00     0.076 C 
HETATM    6  C6  UNL     1      23.565   5.379  52.017  1.00  0.00     0.146 C 
HETATM    7  C7  UNL     1      23.932   3.945  52.342  1.00  0.00     0.153 C 
HETATM    8  O3  UNL     1      24.156   3.754  53.534  1.00  0.00    -0.296 OA
HETATM    9  C8  UNL     1      23.863   3.325  51.000  1.00  0.00     0.107 C 
HETATM   10  C9  UNL     1      23.707   1.881  50.910  1.00  0.00     0.009 C 
HETATM   11  C10 UNL     1      22.824   1.089  51.489  1.00  0.00    -0.033 C 
HETATM   12  C11 UNL     1      22.881   0.323  52.727  1.00  0.00     0.005 C 
HETATM   13  C12 UNL     1      23.921  -0.167  53.332  1.00  0.00    -0.024 C 
HETATM   14  C13 UNL     1      25.350  -0.338  53.348  1.00  0.00     0.057 C 
HETATM   15  C14 UNL     1      26.142   0.319  52.242  1.00  0.00     0.276 C 
HETATM   16  N3  UNL     1      26.090   1.764  52.342  1.00  0.00     0.106 N 
HETATM   17  C15 UNL     1      26.721   2.501  51.324  1.00  0.00     0.437 C 
HETATM   18  O4  UNL     1      26.087   2.824  50.181  1.00  0.00    -0.361 OA
HETATM   19  C16 UNL     1      25.044   3.713  50.200  1.00  0.00     0.198 C 
HETATM   20  H15 UNL     1      26.294   2.046  53.311  1.00  0.00     0.318 HD
ENDROOT
BRANCH   1  21
HETATM   21  N1  UNL     1      20.493   0.639  51.672  1.00  0.00    -0.355 N 
HETATM   22  H2  UNL     1      20.317  -0.301  52.090  1.00  0.00     0.162 HD
BRANCH  21  23
HETATM   23  C1  UNL     1      19.593   1.682  52.105  1.00  0.00     0.349 C 
HETATM   24  O1  UNL     1      20.004   2.615  52.878  1.00  0.00    -0.284 OA
ENDBRANCH  21  23
ENDBRANCH   1  21
BRANCH   5  25
HETATM   25  O2  UNL     1      21.293   6.012  50.951  1.00  0.00    -0.362 OA
HETATM   26  H5  UNL     1      20.732   6.045  50.104  1.00  0.00     0.217 HD
ENDBRANCH   5  25
TORSDOF 3
ENDMDL
MODEL 4
REMARK VINA RESULT:      -7.0      3.221      6.822
REMARK  3 active torsions:
REMARK  status: ('A' for Active; 'I' for Inactive)
REMARK    1  A    between atoms: C1_2  and  N1_3 
REMARK    2  A    between atoms: N1_3  and  C2_4 
REMARK    3  A    between atoms: C5_8  and  O2_9 
ROOT
HETATM    1  C2  UNL     1      25.901   6.796  49.417  1.00  0.00     0.157 C 
HETATM    2  C3  UNL     1      26.772   5.678  49.091  1.00  0.00     0.120 C 
HETATM    3  N2  UNL     1      26.715   4.372  49.221  1.00  0.00    -0.263 NA
HETATM    4  C4  UNL     1      25.761   3.682  50.087  1.00  0.00     0.085 C 
HETATM    5  C5  UNL     1      26.018   2.824  51.078  1.00  0.00     0.076 C 
HETATM    6  C6  UNL     1      24.669   2.437  51.631  1.00  0.00     0.146 C 
HETATM    7  C7  UNL     1      23.876   3.686  51.303  1.00  0.00     0.153 C 
HETATM    8  O3  UNL     1      23.190   4.092  52.237  1.00  0.00    -0.296 OA
HETATM    9  C8  UNL     1      24.284   3.919  49.899  1.00  0.00     0.107 C 
HETATM   10  C9  UNL     1      24.112   5.251  49.339  1.00  0.00     0.009 C 
HETATM   11  C10 UNL     1      24.503   6.421  49.806  1.00  0.00    -0.033 C 
HETATM   12  C11 UNL     1      23.812   7.414  50.618  1.00  0.00     0.005 C 
HETATM   13  C12 UNL     1      22.538   7.652  50.700  1.00  0.00    -0.024 C 
HETATM   14  C13 UNL     1      21.207   7.316  50.268  1.00  0.00     0.057 C 
HETATM   15  C14 UNL     1      21.060   6.161  49.305  1.00  0.00     0.276 C 
HETATM   16  N3  UNL     1      21.416   4.902  49.931  1.00  0.00     0.106 N 
HETATM   17  C15 UNL     1      21.400   3.754  49.120  1.00  0.00     0.437 C 
HETATM   18  O4  UNL     1      22.468   3.385  48.388  1.00  0.00    -0.361 OA
HETATM   19  C16 UNL     1      23.611   2.951  49.008  1.00  0.00     0.198 C 
HETATM   20  H15 UNL     1      20.943   4.831  50.844  1.00  0.00     0.318 HD
ENDROOT
BRANCH   1  21
HETATM   21  N1  UNL     1      26.422   7.682  50.435  1.00  0.00    -0.355 N 
HETATM   22  H2  UNL     1      26.345   7.525  51.464  1.00  0.00     0.162 HD
BRANCH  21  23
HETATM   23  C1  UNL     1      27.109   8.892  50.049  1.00  0.00     0.349 C 
HETATM   24  O1  UNL     1      26.500  10.017  50.060  1.00  0.00    -0.284 OA
ENDBRANCH  21  23
ENDBRANCH   1  21
BRANCH   5  25
HETATM   25  O2  UNL     1      27.254   2.377  51.521  1.00  0.00    -0.362 OA
HETATM   26  H5  UNL     1      27.452   2.137  52.489  1.00  0.00     0.217 HD
ENDBRANCH   5  25
TORSDOF 3
ENDMDL
MODEL 5
REMARK VINA RESULT:      -6.7      2.231      4.740
REMARK  3 active torsions:
REMARK  status: ('A' for Active; 'I' for Inactive)
REMARK    1  A    between atoms: C1_2  and  N1_3 
REMARK    2  A    between atoms: N1_3  and  C2_4 
REMARK    3  A    between atoms: C5_8  and  O2_9 
ROOT
HETATM    1  C2  UNL     1      24.249   2.841  53.079  1.00  0.00     0.157 C 
HETATM    2  C3  UNL     1      24.126   4.147  52.453  1.00  0.00     0.120 C 
HETATM    3  N2  UNL     1      23.370   4.675  51.517  1.00  0.00    -0.263 NA
HETATM    4  C4  UNL     1      22.567   3.890  50.581  1.00  0.00     0.085 C 
HETATM    5  C5  UNL     1      22.601   3.911  49.246  1.00  0.00     0.076 C 
HETATM    6  C6  UNL     1      21.575   2.896  48.805  1.00  0.00     0.146 C 
HETATM    7  C7  UNL     1      21.605   1.952  49.989  1.00  0.00     0.153 C 
HETATM    8  O3  UNL     1      21.660   0.767  49.671  1.00  0.00    -0.296 OA
HETATM    9  C8  UNL     1      21.553   2.910  51.116  1.00  0.00     0.107 C 
HETATM   10  C9  UNL     1      22.007   2.467  52.426  1.00  0.00     0.009 C 
HETATM   11  C10 UNL     1      23.137   1.883  52.775  1.00  0.00    -0.033 C 
HETATM   12  C11 UNL     1      23.488   0.477  52.930  1.00  0.00     0.005 C 
HETATM   13  C12 UNL     1      22.718  -0.524  53.232  1.00  0.00    -0.024 C 
HETATM   14  C13 UNL     1      21.393  -0.986  53.552  1.00  0.00     0.057 C 
HETATM   15  C14 UNL     1      20.279   0.034  53.540  1.00  0.00     0.276 C 
HETATM   16  N3  UNL     1      20.026   0.525  52.200  1.00  0.00     0.106 N 
HETATM   17  C15 UNL     1      19.066   1.542  52.059  1.00  0.00     0.437 C 
HETATM   18  O4  UNL     1      19.383   2.844  52.188  1.00  0.00    -0.361 OA
HETATM   19  C16 UNL     1      20.186   3.452  51.259  1.00  0.00     0.198 C 
HETATM   20  H15 UNL     1      19.954  -0.273  51.553  1.00  0.00     0.318 HD
ENDROOT
BRANCH   1  21
HETATM   21  N1  UNL     1      25.501   2.166  52.814  1.00  0.00    -0.355 N 
HETATM   22  H2  UNL     1      25.817   1.833  51.876  1.00  0.00     0.162 HD
BRANCH  21  23
HETATM   23  C1  UNL     1      26.420   1.909  53.897  1.00  0.00     0.349 C 
HETATM   24  O1  UNL     1      27.574   2.462  53.915  1.00  0.00    -0.284 OA
ENDBRANCH  21  23
ENDBRANCH   1  21
BRANCH   5  25
HETATM   25  O2  UNL     1      23.404   4.688  48.425  1.00  0.00    -0.362 OA
HETATM   26  H5  UNL     1      23.457   5.701  48.485  1.00  0.00     0.217 HD
ENDBRANCH   5  25
TORSDOF 3
ENDMDL
MODEL 6
REMARK VINA RESULT:      -6.7      1.843      4.636
REMARK  3 active torsions:
REMARK  status: ('A' for Active; 'I' for Inactive)
REMARK    1  A    between atoms: C1_2  and  N1_3 
REMARK    2  A    between atoms: N1_3  and  C2_4 
REMARK    3  A    between atoms: C5_8  and  O2_9 
ROOT
HETATM    1  C2  UNL     1      23.757   3.883  52.402  1.00  0.00     0.157 C 
HETATM    2  C3  UNL     1      22.474   4.565  52.394  1.00  0.00     0.120 C 
HETATM    3  N2  UNL     1      21.217   4.205  52.259  1.00  0.00    -0.263 NA
HETATM    4  C4  UNL     1      20.795   2.904  51.743  1.00  0.00     0.085 C 
HETATM    5  C5  UNL     1      19.997   2.649  50.704  1.00  0.00     0.076 C 
HETATM    6  C6  UNL     1      19.916   1.144  50.622  1.00  0.00     0.146 C 
HETATM    7  C7  UNL     1      21.256   0.771  51.224  1.00  0.00     0.153 C 
HETATM    8  O3  UNL     1      21.863  -0.081  50.581  1.00  0.00    -0.296 OA
HETATM    9  C8  UNL     1      21.283   1.647  52.417  1.00  0.00     0.107 C 
HETATM   10  C9  UNL     1      22.567   1.939  53.035  1.00  0.00     0.009 C 
HETATM   11  C10 UNL     1      23.683   2.388  52.492  1.00  0.00    -0.033 C 
HETATM   12  C11 UNL     1      24.855   1.690  51.979  1.00  0.00     0.005 C 
HETATM   13  C12 UNL     1      25.330   0.534  52.332  1.00  0.00    -0.024 C 
HETATM   14  C13 UNL     1      25.207  -0.627  53.174  1.00  0.00     0.057 C 
HETATM   15  C14 UNL     1      24.018  -0.688  54.103  1.00  0.00     0.276 C 
HETATM   16  N3  UNL     1      22.776  -0.816  53.365  1.00  0.00     0.106 N 
HETATM   17  C15 UNL     1      21.583  -0.803  54.108  1.00  0.00     0.437 C 
HETATM   18  O4  UNL     1      20.959   0.344  54.433  1.00  0.00    -0.361 OA
HETATM   19  C16 UNL     1      20.379   1.113  53.459  1.00  0.00     0.198 C 
HETATM   20  H15 UNL     1      22.875  -1.561  52.660  1.00  0.00     0.318 HD
ENDROOT
BRANCH   1  21
HETATM   21  N1  UNL     1      24.620   4.217  51.290  1.00  0.00    -0.355 N 
HETATM   22  H2  UNL     1      25.663   4.169  51.303  1.00  0.00     0.162 HD
BRANCH  21  23
HETATM   23  C1  UNL     1      24.043   4.657  50.042  1.00  0.00     0.349 C 
HETATM   24  O1  UNL     1      23.670   3.806  49.163  1.00  0.00    -0.284 OA
ENDBRANCH  21  23
ENDBRANCH   1  21
BRANCH   5  25
HETATM   25  O2  UNL     1      19.371   3.558  49.864  1.00  0.00    -0.362 OA
HETATM   26  H5  UNL     1      18.991   3.315  48.953  1.00  0.00     0.217 HD
ENDBRANCH   5  25
TORSDOF 3
ENDMDL
MODEL 7
REMARK VINA RESULT:      -6.5      8.992     11.709
REMARK  3 active torsions:
REMARK  status: ('A' for Active; 'I' for Inactive)
REMARK    1  A    between atoms: C1_2  and  N1_3 
REMARK    2  A    between atoms: N1_3  and  C2_4 
REMARK    3  A    between atoms: C5_8  and  O2_9 
ROOT
HETATM    1  C2  UNL     1      32.386   5.677  49.013  1.00  0.00     0.157 C 
HETATM    2  C3  UNL     1      33.620   6.436  48.899  1.00  0.00     0.120 C 
HETATM    3  N2  UNL     1      33.999   7.531  48.278  1.00  0.00    -0.263 NA
HETATM    4  C4  UNL     1      33.237   8.159  47.200  1.00  0.00     0.085 C 
HETATM    5  C5  UNL     1      33.643   8.444  45.961  1.00  0.00     0.076 C 
HETATM    6  C6  UNL     1      32.449   9.069  45.283  1.00  0.00     0.146 C 
HETATM    7  C7  UNL     1      31.325   8.405  46.052  1.00  0.00     0.153 C 
HETATM    8  O3  UNL     1      30.428   7.970  45.335  1.00  0.00    -0.296 OA
HETATM    9  C8  UNL     1      31.805   8.563  47.444  1.00  0.00     0.107 C 
HETATM   10  C9  UNL     1      31.260   7.686  48.469  1.00  0.00     0.009 C 
HETATM   11  C10 UNL     1      31.163   6.370  48.491  1.00  0.00    -0.033 C 
HETATM   12  C11 UNL     1      30.076   5.477  48.111  1.00  0.00     0.005 C 
HETATM   13  C12 UNL     1      28.797   5.709  48.108  1.00  0.00    -0.024 C 
HETATM   14  C13 UNL     1      27.729   6.640  48.360  1.00  0.00     0.057 C 
HETATM   15  C14 UNL     1      28.111   8.032  48.805  1.00  0.00     0.276 C 
HETATM   16  N3  UNL     1      28.794   8.756  47.751  1.00  0.00     0.106 N 
HETATM   17  C15 UNL     1      29.277  10.039  48.061  1.00  0.00     0.437 C 
HETATM   18  O4  UNL     1      30.490  10.230  48.610  1.00  0.00    -0.361 OA
HETATM   19  C16 UNL     1      31.624   9.961  47.887  1.00  0.00     0.198 C 
HETATM   20  H15 UNL     1      28.262   8.660  46.874  1.00  0.00     0.318 HD
ENDROOT
BRANCH   1  21
HETATM   21  N1  UNL     1      32.436   4.360  48.419  1.00  0.00    -0.355 N 
HETATM   22  H2  UNL     1      31.754   3.591  48.604  1.00  0.00     0.162 HD
BRANCH  21  23
HETATM   23  C1  UNL     1      33.493   4.031  47.492  1.00  0.00     0.349 C 
HETATM   24  O1  UNL     1      33.741   2.812  47.196  1.00  0.00    -0.284 OA
ENDBRANCH  21  23
ENDBRANCH   1  21
BRANCH   5  25
HETATM   25  O2  UNL     1      34.889   8.216  45.397  1.00  0.00    -0.362 OA
HETATM   26  H5  UNL     1      35.656   7.763  45.889  1.00  0.00     0.217 HD
ENDBRANCH   5  25
TORSDOF 3
ENDMDL
MODEL 8
REMARK VINA RESULT:      -6.5      2.111      5.023
REMARK  3 active torsions:
REMARK  status: ('A' for Active; 'I' for Inactive)
REMARK    1  A    between atoms: C1_2  and  N1_3 
REMARK    2  A    between atoms: N1_3  and  C2_4 
REMARK    3  A    between atoms: C5_8  and  O2_9 
ROOT
HETATM    1  C2  UNL     1      24.760   4.140  51.569  1.00  0.00     0.157 C 
HETATM    2  C3  UNL     1      24.077   5.276  50.973  1.00  0.00     0.120 C 
HETATM    3  N2  UNL     1      22.925   5.472  50.371  1.00  0.00    -0.263 NA
HETATM    4  C4  UNL     1      22.084   4.394  49.854  1.00  0.00     0.085 C 
HETATM    5  C5  UNL     1      21.633   4.225  48.609  1.00  0.00     0.076 C 
HETATM    6  C6  UNL     1      20.829   2.948  48.645  1.00  0.00     0.146 C 
HETATM    7  C7  UNL     1      21.531   2.222  49.775  1.00  0.00     0.153 C 
HETATM    8  O3  UNL     1      21.784   1.048  49.520  1.00  0.00    -0.296 OA
HETATM    9  C8  UNL     1      21.629   3.299  50.785  1.00  0.00     0.107 C 
HETATM   10  C9  UNL     1      22.620   3.169  51.843  1.00  0.00     0.009 C 
HETATM   11  C10 UNL     1      23.913   2.918  51.763  1.00  0.00    -0.033 C 
HETATM   12  C11 UNL     1      24.659   1.669  51.843  1.00  0.00     0.005 C 
HETATM   13  C12 UNL     1      24.345   0.574  52.467  1.00  0.00    -0.024 C 
HETATM   14  C13 UNL     1      23.396  -0.127  53.292  1.00  0.00     0.057 C 
HETATM   15  C14 UNL     1      22.122   0.598  53.655  1.00  0.00     0.276 C 
HETATM   16  N3  UNL     1      21.287   0.815  52.490  1.00  0.00     0.106 N 
HETATM   17  C15 UNL     1      20.104   1.552  52.676  1.00  0.00     0.437 C 
HETATM   18  O4  UNL     1      20.085   2.896  52.607  1.00  0.00    -0.361 OA
HETATM   19  C16 UNL     1      20.310   3.528  51.412  1.00  0.00     0.198 C 
HETATM   20  H15 UNL     1      21.205  -0.066  51.962  1.00  0.00     0.318 HD
ENDROOT
BRANCH   1  21
HETATM   21  N1  UNL     1      25.967   3.738  50.881  1.00  0.00    -0.355 N 
HETATM   22  H2  UNL     1      26.689   3.088  51.264  1.00  0.00     0.162 HD
BRANCH  21  23
HETATM   23  C1  UNL     1      26.241   4.247  49.558  1.00  0.00     0.349 C 
HETATM   24  O1  UNL     1      27.427   4.208  49.080  1.00  0.00    -0.284 OA
ENDBRANCH  21  23
ENDBRANCH   1  21
BRANCH   5  25
HETATM   25  O2  UNL     1      21.851   5.035  47.505  1.00  0.00    -0.362 OA
HETATM   26  H5  UNL     1      22.729   5.065  46.993  1.00  0.00     0.217 HD
ENDBRANCH   5  25
TORSDOF 3
ENDMDL
MODEL 9
REMARK VINA RESULT:      -6.4      1.662      4.378
REMARK  3 active torsions:
REMARK  status: ('A' for Active; 'I' for Inactive)
REMARK    1  A    between atoms: C1_2  and  N1_3 
REMARK    2  A    between atoms: N1_3  and  C2_4 
REMARK    3  A    between atoms: C5_8  and  O2_9 
ROOT
HETATM    1  C2  UNL     1      22.679   0.688  53.358  1.00  0.00     0.157 C 
HETATM    2  C3  UNL     1      24.000   1.198  53.683  1.00  0.00     0.120 C 
HETATM    3  N2  UNL     1      24.810   2.102  53.180  1.00  0.00    -0.263 NA
HETATM    4  C4  UNL     1      24.659   2.676  51.844  1.00  0.00     0.085 C 
HETATM    5  C5  UNL     1      25.548   2.691  50.847  1.00  0.00     0.076 C 
HETATM    6  C6  UNL     1      24.858   3.398  49.707  1.00  0.00     0.146 C 
HETATM    7  C7  UNL     1      23.413   3.062  50.019  1.00  0.00     0.153 C 
HETATM    8  O3  UNL     1      22.776   2.681  49.041  1.00  0.00    -0.296 OA
HETATM    9  C8  UNL     1      23.364   3.351  51.470  1.00  0.00     0.107 C 
HETATM   10  C9  UNL     1      22.301   2.749  52.260  1.00  0.00     0.009 C 
HETATM   11  C10 UNL     1      21.919   1.488  52.343  1.00  0.00    -0.033 C 
HETATM   12  C11 UNL     1      20.885   0.746  51.635  1.00  0.00     0.005 C 
HETATM   13  C12 UNL     1      19.782   1.189  51.110  1.00  0.00    -0.024 C 
HETATM   14  C13 UNL     1      18.927   2.316  50.847  1.00  0.00     0.057 C 
HETATM   15  C14 UNL     1      19.409   3.674  51.298  1.00  0.00     0.276 C 
HETATM   16  N3  UNL     1      20.574   4.098  50.546  1.00  0.00     0.106 N 
HETATM   17  C15 UNL     1      21.173   5.313  50.921  1.00  0.00     0.437 C 
HETATM   18  O4  UNL     1      22.107   5.378  51.889  1.00  0.00    -0.361 OA
HETATM   19  C16 UNL     1      23.339   4.811  51.696  1.00  0.00     0.198 C 
HETATM   20  H15 UNL     1      20.399   3.960  49.540  1.00  0.00     0.318 HD
ENDROOT
BRANCH   1  21
HETATM   21  N1  UNL     1      22.658  -0.695  52.936  1.00  0.00    -0.355 N 
HETATM   22  H2  UNL     1      22.995  -1.047  52.012  1.00  0.00     0.162 HD
BRANCH  21  23
HETATM   23  C1  UNL     1      22.142  -1.709  53.826  1.00  0.00     0.349 C 
HETATM   24  O1  UNL     1      21.453  -1.381  54.853  1.00  0.00    -0.284 OA
ENDBRANCH  21  23
ENDBRANCH   1  21
BRANCH   5  25
HETATM   25  O2  UNL     1      26.833   2.169  50.842  1.00  0.00    -0.362 OA
HETATM   26  H5  UNL     1      27.375   2.015  49.996  1.00  0.00     0.217 HD
ENDBRANCH   5  25
TORSDOF 3
ENDMDL
