MODEL 1
REMARK VINA RESULT:      -9.0      0.000      0.000
REMARK  5 active torsions:
REMARK  status: ('A' for Active; 'I' for Inactive)
REMARK    1  A    between atoms: N1_1  and  C1_2 
REMARK    2  A    between atoms: C2_4  and  N3_5 
REMARK    3  A    between atoms: N3_5  and  C3_6 
REMARK    4  A    between atoms: C7_10  and  C8_11 
REMARK    5  A    between atoms: C12_20  and  C13_21 
ROOT
HETATM    1  C1  UNL     1      28.163   2.029  53.623  1.00  0.00     0.724 A 
HETATM    2  N2  UNL     1      27.911   2.276  52.327  1.00  0.00    -0.045 NA
HETATM    3  C2  UNL     1      26.802   1.824  51.726  1.00  0.00     0.159 A 
HETATM    4  C10 UNL     1      25.850   1.080  52.391  1.00  0.00     0.058 A 
HETATM    5  C11 UNL     1      26.129   0.838  53.722  1.00  0.00     0.155 A 
HETATM    6  N4  UNL     1      27.250   1.302  54.307  1.00  0.00    -0.045 NA
HETATM    7  N5  UNL     1      24.919   0.104  53.847  1.00  0.00    -0.364 N 
HETATM    8  C12 UNL     1      24.579   0.351  52.437  1.00  0.00     0.137 A 
HETATM    9  H8  UNL     1      24.365  -0.434  54.547  1.00  0.00     0.162 HD
ENDROOT
BRANCH   3  10
HETATM   10  N3  UNL     1      26.644   2.144  50.351  1.00  0.00    -0.340 N 
HETATM   11  H3  UNL     1      26.664   1.484  49.558  1.00  0.00     0.167 HD
BRANCH  10  12
HETATM   12  C3  UNL     1      26.435   3.501  49.967  1.00  0.00     0.034 A 
HETATM   13  C4  UNL     1      27.168   4.268  49.083  1.00  0.00     0.029 A 
HETATM   14  C5  UNL     1      26.791   5.571  48.838  1.00  0.00     0.003 A 
HETATM   15  C6  UNL     1      25.693   6.135  49.455  1.00  0.00     0.016 A 
HETATM   16  C7  UNL     1      24.953   5.386  50.337  1.00  0.00     0.050 A 
HETATM   17  C9  UNL     1      25.328   4.068  50.590  1.00  0.00     0.045 A 
BRANCH  16  18
HETATM   18  C8  UNL     1      23.762   5.996  51.002  1.00  0.00     0.417 C 
HETATM   19  F1  UNL     1      23.961   7.321  51.243  1.00  0.00    -0.166 F 
HETATM   20  F2  UNL     1      22.651   5.724  50.220  1.00  0.00    -0.166 F 
HETATM   21  F3  UNL     1      23.550   5.347  52.225  1.00  0.00    -0.166 F 
ENDBRANCH  16  18
ENDBRANCH  10  12
ENDBRANCH   3  10
BRANCH   1  22
HETATM   22  N1  UNL     1      29.314   2.472  54.330  1.00  0.00    -0.231 N 
HETATM   23  H1  UNL     1      29.854   1.931  55.056  1.00  0.00     0.174 HD
HETATM   24  H2  UNL     1      29.649   3.412  54.105  1.00  0.00     0.174 HD
ENDBRANCH   1  22
BRANCH   8  25
HETATM   25  C13 UNL     1      23.317   1.175  52.419  1.00  0.00     0.081 C 
HETATM   26  C14 UNL     1      23.014   1.793  51.119  1.00  0.00    -0.000 C 
HETATM   27  C15 UNL     1      21.924   2.536  51.183  1.00  0.00    -0.006 C 
HETATM   28  C16 UNL     1      20.946   2.164  51.990  1.00  0.00     0.046 C 
HETATM   29 CL1  UNL     1      19.672   3.309  52.355  1.00  0.00    -0.083 Cl
HETATM   30  C17 UNL     1      20.970   0.812  52.547  1.00  0.00     0.045 C 
HETATM   31  C18 UNL     1      22.177   0.280  52.777  1.00  0.00     0.023 C 
HETATM   32 CL2  UNL     1      22.181  -1.330  53.441  1.00  0.00    -0.088 Cl
ENDBRANCH   8  25
TORSDOF 5
ENDMDL
MODEL 2
REMARK VINA RESULT:      -8.6      3.180      5.355
REMARK  5 active torsions:
REMARK  status: ('A' for Active; 'I' for Inactive)
REMARK    1  A    between atoms: N1_1  and  C1_2 
REMARK    2  A    between atoms: C2_4  and  N3_5 
REMARK    3  A    between atoms: N3_5  and  C3_6 
REMARK    4  A    between atoms: C7_10  and  C8_11 
REMARK    5  A    between atoms: C12_20  and  C13_21 
ROOT
HETATM    1  C1  UNL     1      27.071   0.568  54.053  1.00  0.00     0.724 A 
HETATM    2  N2  UNL     1      26.097  -0.209  53.551  1.00  0.00    -0.045 NA
HETATM    3  C2  UNL     1      24.922   0.301  53.156  1.00  0.00     0.159 A 
HETATM    4  C10 UNL     1      24.635   1.647  53.234  1.00  0.00     0.058 A 
HETATM    5  C11 UNL     1      25.650   2.428  53.753  1.00  0.00     0.155 A 
HETATM    6  N4  UNL     1      26.823   1.895  54.145  1.00  0.00    -0.045 NA
HETATM    7  N5  UNL     1      24.842   3.587  53.602  1.00  0.00    -0.364 N 
HETATM    8  C12 UNL     1      23.742   2.792  53.032  1.00  0.00     0.137 A 
HETATM    9  H8  UNL     1      24.861   4.616  53.768  1.00  0.00     0.162 HD
ENDROOT
BRANCH   3  10
HETATM   10  N3  UNL     1      23.967  -0.618  52.645  1.00  0.00    -0.340 N 
HETATM   11  H3  UNL     1      24.136  -1.359  51.948  1.00  0.00     0.167 HD
BRANCH  10  12
HETATM   12  C3  UNL     1      22.619  -0.555  53.106  1.00  0.00     0.034 A 
HETATM   13  C4  UNL     1      22.128  -0.830  54.368  1.00  0.00     0.029 A 
HETATM   14  C5  UNL     1      20.779  -0.698  54.615  1.00  0.00     0.003 A 
HETATM   15  C6  UNL     1      19.898  -0.296  53.632  1.00  0.00     0.016 A 
HETATM   16  C7  UNL     1      20.370  -0.019  52.373  1.00  0.00     0.050 A 
HETATM   17  C9  UNL     1      21.733  -0.150  52.114  1.00  0.00     0.045 A 
BRANCH  16  18
HETATM   18  C8  UNL     1      19.416   0.419  51.309  1.00  0.00     0.417 C 
HETATM   19  F1  UNL     1      20.075   0.734  50.160  1.00  0.00    -0.166 F 
HETATM   20  F2  UNL     1      18.460  -0.573  51.159  1.00  0.00    -0.166 F 
HETATM   21  F3  UNL     1      18.734   1.556  51.759  1.00  0.00    -0.166 F 
ENDBRANCH  16  18
ENDBRANCH  10  12
ENDBRANCH   3  10
BRANCH   1  22
HETATM   22  N1  UNL     1      28.340   0.104  54.495  1.00  0.00    -0.231 N 
HETATM   23  H1  UNL     1      29.249   0.637  54.468  1.00  0.00     0.174 HD
HETATM   24  H2  UNL     1      28.366  -0.844  54.879  1.00  0.00     0.174 HD
ENDBRANCH   1  22
BRANCH   8  25
HETATM   25  C13 UNL     1      23.540   3.260  51.614  1.00  0.00     0.081 C 
HETATM   26  C14 UNL     1      23.967   2.295  50.590  1.00  0.00    -0.000 C 
HETATM   27  C15 UNL     1      23.805   2.782  49.373  1.00  0.00    -0.006 C 
HETATM   28  C16 UNL     1      22.790   3.596  49.143  1.00  0.00     0.046 C 
HETATM   29 CL1  UNL     1      22.772   4.522  47.657  1.00  0.00    -0.083 Cl
HETATM   30  C17 UNL     1      21.723   3.690  50.139  1.00  0.00     0.045 C 
HETATM   31  C18 UNL     1      22.083   3.521  51.418  1.00  0.00     0.023 C 
HETATM   32 CL2  UNL     1      20.797   3.638  52.587  1.00  0.00    -0.088 Cl
ENDBRANCH   8  25
TORSDOF 5
ENDMDL
MODEL 3
REMARK VINA RESULT:      -8.5      1.996      2.494
REMARK  5 active torsions:
REMARK  status: ('A' for Active; 'I' for Inactive)
REMARK    1  A    between atoms: N1_1  and  C1_2 
REMARK    2  A    between atoms: C2_4  and  N3_5 
REMARK    3  A    between atoms: N3_5  and  C3_6 
REMARK    4  A    between atoms: C7_10  and  C8_11 
REMARK    5  A    between atoms: C12_20  and  C13_21 
ROOT
HETATM    1  C1  UNL     1      28.128   2.056  53.561  1.00  0.00     0.724 A 
HETATM    2  N2  UNL     1      27.887   2.378  52.279  1.00  0.00    -0.045 NA
HETATM    3  C2  UNL     1      26.788   1.954  51.641  1.00  0.00     0.159 A 
HETATM    4  C10 UNL     1      25.835   1.165  52.250  1.00  0.00     0.058 A 
HETATM    5  C11 UNL     1      26.102   0.845  53.567  1.00  0.00     0.155 A 
HETATM    6  N4  UNL     1      27.213   1.282  54.190  1.00  0.00    -0.045 NA
HETATM    7  N5  UNL     1      24.897   0.097  53.635  1.00  0.00    -0.364 N 
HETATM    8  C12 UNL     1      24.569   0.425  52.238  1.00  0.00     0.137 A 
HETATM    9  H8  UNL     1      24.340  -0.486  54.296  1.00  0.00     0.162 HD
ENDROOT
BRANCH   3  10
HETATM   10  N3  UNL     1      26.642   2.354  50.286  1.00  0.00    -0.340 N 
HETATM   11  H3  UNL     1      26.768   1.762  49.451  1.00  0.00     0.167 HD
BRANCH  10  12
HETATM   12  C3  UNL     1      26.287   3.703  49.988  1.00  0.00     0.034 A 
HETATM   13  C4  UNL     1      25.135   4.385  50.331  1.00  0.00     0.029 A 
HETATM   14  C5  UNL     1      24.987   5.701  49.952  1.00  0.00     0.003 A 
HETATM   15  C6  UNL     1      25.963   6.364  49.236  1.00  0.00     0.016 A 
HETATM   16  C7  UNL     1      27.114   5.700  48.888  1.00  0.00     0.050 A 
HETATM   17  C9  UNL     1      27.272   4.369  49.267  1.00  0.00     0.045 A 
BRANCH  16  18
HETATM   18  C8  UNL     1      28.173   6.419  48.116  1.00  0.00     0.417 C 
HETATM   19  F1  UNL     1      28.759   7.387  48.872  1.00  0.00    -0.166 F 
HETATM   20  F2  UNL     1      29.058   5.472  47.624  1.00  0.00    -0.166 F 
HETATM   21  F3  UNL     1      27.582   7.021  46.998  1.00  0.00    -0.166 F 
ENDBRANCH  16  18
ENDBRANCH  10  12
ENDBRANCH   3  10
BRANCH   1  22
HETATM   22  N1  UNL     1      29.268   2.463  54.306  1.00  0.00    -0.231 N 
HETATM   23  H1  UNL     1      29.574   2.090  55.243  1.00  0.00     0.174 HD
HETATM   24  H2  UNL     1      29.847   3.193  53.883  1.00  0.00     0.174 HD
ENDBRANCH   1  22
BRANCH   8  25
HETATM   25  C13 UNL     1      23.302   1.240  52.256  1.00  0.00     0.081 C 
HETATM   26  C14 UNL     1      22.973   1.881  50.973  1.00  0.00    -0.000 C 
HETATM   27  C15 UNL     1      21.878   2.613  51.068  1.00  0.00    -0.006 C 
HETATM   28  C16 UNL     1      20.917   2.219  51.884  1.00  0.00     0.046 C 
HETATM   29 CL1  UNL     1      19.640   3.347  52.290  1.00  0.00    -0.083 Cl
HETATM   30  C17 UNL     1      20.959   0.857  52.414  1.00  0.00     0.045 C 
HETATM   31  C18 UNL     1      22.174   0.330  52.615  1.00  0.00     0.023 C 
HETATM   32 CL2  UNL     1      22.199  -1.293  53.247  1.00  0.00    -0.088 Cl
ENDBRANCH   8  25
TORSDOF 5
ENDMDL
MODEL 4
REMARK VINA RESULT:      -8.3      3.498      5.972
REMARK  5 active torsions:
REMARK  status: ('A' for Active; 'I' for Inactive)
REMARK    1  A    between atoms: N1_1  and  C1_2 
REMARK    2  A    between atoms: C2_4  and  N3_5 
REMARK    3  A    between atoms: N3_5  and  C3_6 
REMARK    4  A    between atoms: C7_10  and  C8_11 
REMARK    5  A    between atoms: C12_20  and  C13_21 
ROOT
HETATM    1  C1  UNL     1      26.242  -0.548  52.883  1.00  0.00     0.724 A 
HETATM    2  N2  UNL     1      25.064  -0.067  53.314  1.00  0.00    -0.045 NA
HETATM    3  C2  UNL     1      24.569   1.094  52.862  1.00  0.00     0.159 A 
HETATM    4  C10 UNL     1      25.229   1.868  51.930  1.00  0.00     0.058 A 
HETATM    5  C11 UNL     1      26.439   1.355  51.502  1.00  0.00     0.155 A 
HETATM    6  N4  UNL     1      26.917   0.186  51.969  1.00  0.00    -0.045 NA
HETATM    7  N5  UNL     1      26.619   2.479  50.652  1.00  0.00    -0.364 N 
HETATM    8  C12 UNL     1      25.331   3.053  51.073  1.00  0.00     0.137 A 
HETATM    9  H8  UNL     1      27.298   2.879  49.969  1.00  0.00     0.162 HD
ENDROOT
BRANCH   3  10
HETATM   10  N3  UNL     1      23.316   1.504  53.391  1.00  0.00    -0.340 N 
HETATM   11  H3  UNL     1      23.063   2.451  53.711  1.00  0.00     0.167 HD
BRANCH  10  12
HETATM   12  C3  UNL     1      22.264   0.550  53.519  1.00  0.00     0.034 A 
HETATM   13  C4  UNL     1      22.159  -0.502  54.407  1.00  0.00     0.029 A 
HETATM   14  C5  UNL     1      21.045  -1.311  54.374  1.00  0.00     0.003 A 
HETATM   15  C6  UNL     1      20.021  -1.098  53.474  1.00  0.00     0.016 A 
HETATM   16  C7  UNL     1      20.109  -0.056  52.584  1.00  0.00     0.050 A 
HETATM   17  C9  UNL     1      21.234   0.767  52.610  1.00  0.00     0.045 A 
BRANCH  16  18
HETATM   18  C8  UNL     1      19.000   0.177  51.611  1.00  0.00     0.417 C 
HETATM   19  F1  UNL     1      19.486   0.423  50.363  1.00  0.00    -0.166 F 
HETATM   20  F2  UNL     1      18.139  -0.908  51.678  1.00  0.00    -0.166 F 
HETATM   21  F3  UNL     1      18.260   1.289  52.030  1.00  0.00    -0.166 F 
ENDBRANCH  16  18
ENDBRANCH  10  12
ENDBRANCH   3  10
BRANCH   1  22
HETATM   22  N1  UNL     1      26.833  -1.767  53.314  1.00  0.00    -0.231 N 
HETATM   23  H1  UNL     1      27.250  -2.515  52.701  1.00  0.00     0.174 HD
HETATM   24  H2  UNL     1      26.854  -1.927  54.325  1.00  0.00     0.174 HD
ENDBRANCH   1  22
BRANCH   8  25
HETATM   25  C13 UNL     1      24.441   3.093  49.857  1.00  0.00     0.081 C 
HETATM   26  C14 UNL     1      23.058   2.656  50.101  1.00  0.00    -0.000 C 
HETATM   27  C15 UNL     1      22.345   2.673  48.989  1.00  0.00    -0.006 C 
HETATM   28  C16 UNL     1      22.603   3.598  48.082  1.00  0.00     0.046 C 
HETATM   29 CL1  UNL     1      21.929   3.415  46.476  1.00  0.00    -0.083 Cl
HETATM   30  C17 UNL     1      23.441   4.736  48.456  1.00  0.00     0.045 C 
HETATM   31  C18 UNL     1      24.395   4.504  49.367  1.00  0.00     0.023 C 
HETATM   32 CL2  UNL     1      25.381   5.873  49.797  1.00  0.00    -0.088 Cl
ENDBRANCH   8  25
TORSDOF 5
ENDMDL
MODEL 5
REMARK VINA RESULT:      -8.3      3.359      5.312
REMARK  5 active torsions:
REMARK  status: ('A' for Active; 'I' for Inactive)
REMARK    1  A    between atoms: N1_1  and  C1_2 
REMARK    2  A    between atoms: C2_4  and  N3_5 
REMARK    3  A    between atoms: N3_5  and  C3_6 
REMARK    4  A    between atoms: C7_10  and  C8_11 
REMARK    5  A    between atoms: C12_20  and  C13_21 
ROOT
HETATM    1  C1  UNL     1      19.975   2.207  49.338  1.00  0.00     0.724 A 
HETATM    2  N2  UNL     1      20.750   3.182  49.842  1.00  0.00    -0.045 NA
HETATM    3  C2  UNL     1      21.467   3.005  50.961  1.00  0.00     0.159 A 
HETATM    4  C10 UNL     1      21.459   1.819  51.665  1.00  0.00     0.058 A 
HETATM    5  C11 UNL     1      20.655   0.831  51.130  1.00  0.00     0.155 A 
HETATM    6  N4  UNL     1      19.943   1.030  50.004  1.00  0.00    -0.045 NA
HETATM    7  N5  UNL     1      21.022  -0.046  52.186  1.00  0.00    -0.364 N 
HETATM    8  C12 UNL     1      21.899   0.976  52.781  1.00  0.00     0.137 A 
HETATM    9  H8  UNL     1      20.845  -1.011  52.536  1.00  0.00     0.162 HD
ENDROOT
BRANCH   3  10
HETATM   10  N3  UNL     1      22.246   4.107  51.401  1.00  0.00    -0.340 N 
HETATM   11  H3  UNL     1      22.218   4.549  52.333  1.00  0.00     0.167 HD
BRANCH  10  12
HETATM   12  C3  UNL     1      23.181   4.706  50.507  1.00  0.00     0.034 A 
HETATM   13  C4  UNL     1      23.022   5.833  49.723  1.00  0.00     0.029 A 
HETATM   14  C5  UNL     1      24.061   6.259  48.925  1.00  0.00     0.003 A 
HETATM   15  C6  UNL     1      25.266   5.588  48.886  1.00  0.00     0.016 A 
HETATM   16  C7  UNL     1      25.441   4.466  49.659  1.00  0.00     0.050 A 
HETATM   17  C9  UNL     1      24.395   4.029  50.469  1.00  0.00     0.045 A 
BRANCH  16  18
HETATM   18  C8  UNL     1      26.748   3.742  49.620  1.00  0.00     0.417 C 
HETATM   19  F1  UNL     1      27.683   4.455  48.933  1.00  0.00    -0.166 F 
HETATM   20  F2  UNL     1      27.110   3.444  50.924  1.00  0.00    -0.166 F 
HETATM   21  F3  UNL     1      26.560   2.513  48.975  1.00  0.00    -0.166 F 
ENDBRANCH  16  18
ENDBRANCH  10  12
ENDBRANCH   3  10
BRANCH   1  22
HETATM   22  N1  UNL     1      19.187   2.318  48.160  1.00  0.00    -0.231 N 
HETATM   23  H1  UNL     1      18.135   2.362  48.109  1.00  0.00     0.174 HD
HETATM   24  H2  UNL     1      19.699   2.360  47.275  1.00  0.00     0.174 HD
ENDBRANCH   1  22
BRANCH   8  25
HETATM   25  C13 UNL     1      23.308   0.445  52.721  1.00  0.00     0.081 C 
HETATM   26  C14 UNL     1      24.349   1.484  52.717  1.00  0.00    -0.000 C 
HETATM   27  C15 UNL     1      25.555   0.955  52.618  1.00  0.00    -0.006 C 
HETATM   28  C16 UNL     1      25.785  -0.217  53.182  1.00  0.00     0.046 C 
HETATM   29 CL1  UNL     1      27.246  -1.085  52.758  1.00  0.00    -0.083 Cl
HETATM   30  C17 UNL     1      24.808  -0.743  54.135  1.00  0.00     0.045 C 
HETATM   31  C18 UNL     1      23.527  -0.417  53.921  1.00  0.00     0.023 C 
HETATM   32 CL2  UNL     1      22.382  -1.054  55.069  1.00  0.00    -0.088 Cl
ENDBRANCH   8  25
TORSDOF 5
ENDMDL
MODEL 6
REMARK VINA RESULT:      -8.3      3.726      6.206
REMARK  5 active torsions:
REMARK  status: ('A' for Active; 'I' for Inactive)
REMARK    1  A    between atoms: N1_1  and  C1_2 
REMARK    2  A    between atoms: C2_4  and  N3_5 
REMARK    3  A    between atoms: N3_5  and  C3_6 
REMARK    4  A    between atoms: C7_10  and  C8_11 
REMARK    5  A    between atoms: C12_20  and  C13_21 
ROOT
HETATM    1  C1  UNL     1      21.079  -0.494  53.414  1.00  0.00     0.724 A 
HETATM    2  N2  UNL     1      22.280  -0.019  53.784  1.00  0.00    -0.045 NA
HETATM    3  C2  UNL     1      23.002   0.773  52.979  1.00  0.00     0.159 A 
HETATM    4  C10 UNL     1      22.566   1.153  51.727  1.00  0.00     0.058 A 
HETATM    5  C11 UNL     1      21.329   0.652  51.367  1.00  0.00     0.155 A 
HETATM    6  N4  UNL     1      20.620  -0.142  52.191  1.00  0.00    -0.045 NA
HETATM    7  N5  UNL     1      21.421   1.315  50.114  1.00  0.00    -0.364 N 
HETATM    8  C12 UNL     1      22.735   1.878  50.464  1.00  0.00     0.137 A 
HETATM    9  H8  UNL     1      20.890   1.450  49.227  1.00  0.00     0.162 HD
ENDROOT
BRANCH   3  10
HETATM   10  N3  UNL     1      24.259   1.212  53.475  1.00  0.00    -0.340 N 
HETATM   11  H3  UNL     1      24.451   2.095  53.972  1.00  0.00     0.167 HD
BRANCH  10  12
HETATM   12  C3  UNL     1      25.409   0.389  53.296  1.00  0.00     0.034 A 
HETATM   13  C4  UNL     1      25.475  -0.905  52.814  1.00  0.00     0.029 A 
HETATM   14  C5  UNL     1      26.698  -1.529  52.707  1.00  0.00     0.003 A 
HETATM   15  C6  UNL     1      27.869  -0.894  53.069  1.00  0.00     0.016 A 
HETATM   16  C7  UNL     1      27.821   0.392  53.549  1.00  0.00     0.050 A 
HETATM   17  C9  UNL     1      26.587   1.030  53.660  1.00  0.00     0.045 A 
BRANCH  16  18
HETATM   18  C8  UNL     1      29.090   1.080  53.937  1.00  0.00     0.417 C 
HETATM   19  F1  UNL     1      30.175   0.413  53.458  1.00  0.00    -0.166 F 
HETATM   20  F2  UNL     1      29.005   2.398  53.516  1.00  0.00    -0.166 F 
HETATM   21  F3  UNL     1      29.170   1.119  55.334  1.00  0.00    -0.166 F 
ENDBRANCH  16  18
ENDBRANCH  10  12
ENDBRANCH   3  10
BRANCH   1  22
HETATM   22  N1  UNL     1      20.255  -1.338  54.208  1.00  0.00    -0.231 N 
HETATM   23  H1  UNL     1      19.591  -2.079  53.859  1.00  0.00     0.174 HD
HETATM   24  H2  UNL     1      20.319  -1.210  55.221  1.00  0.00     0.174 HD
ENDBRANCH   1  22
BRANCH   8  25
HETATM   25  C13 UNL     1      22.580   3.377  50.512  1.00  0.00     0.081 C 
HETATM   26  C14 UNL     1      23.588   4.065  51.332  1.00  0.00    -0.000 C 
HETATM   27  C15 UNL     1      23.371   5.367  51.368  1.00  0.00    -0.006 C 
HETATM   28  C16 UNL     1      22.860   5.958  50.301  1.00  0.00     0.046 C 
HETATM   29 CL1  UNL     1      22.237   7.587  50.457  1.00  0.00    -0.083 Cl
HETATM   30  C17 UNL     1      22.836   5.225  49.036  1.00  0.00     0.045 C 
HETATM   31  C18 UNL     1      22.694   3.896  49.116  1.00  0.00     0.023 C 
HETATM   32 CL2  UNL     1      22.667   3.044  47.597  1.00  0.00    -0.088 Cl
ENDBRANCH   8  25
TORSDOF 5
ENDMDL
MODEL 7
REMARK VINA RESULT:      -8.2      2.896      4.963
REMARK  5 active torsions:
REMARK  status: ('A' for Active; 'I' for Inactive)
REMARK    1  A    between atoms: N1_1  and  C1_2 
REMARK    2  A    between atoms: C2_4  and  N3_5 
REMARK    3  A    between atoms: N3_5  and  C3_6 
REMARK    4  A    between atoms: C7_10  and  C8_11 
REMARK    5  A    between atoms: C12_20  and  C13_21 
ROOT
HETATM    1  C1  UNL     1      21.053   2.161  49.049  1.00  0.00     0.724 A 
HETATM    2  N2  UNL     1      21.906   3.094  49.506  1.00  0.00    -0.045 NA
HETATM    3  C2  UNL     1      22.563   2.940  50.664  1.00  0.00     0.159 A 
HETATM    4  C10 UNL     1      22.412   1.824  51.460  1.00  0.00     0.058 A 
HETATM    5  C11 UNL     1      21.531   0.879  50.972  1.00  0.00     0.155 A 
HETATM    6  N4  UNL     1      20.880   1.052  49.805  1.00  0.00    -0.045 NA
HETATM    7  N5  UNL     1      21.772   0.061  52.109  1.00  0.00    -0.364 N 
HETATM    8  C12 UNL     1      22.728   1.037  52.656  1.00  0.00     0.137 A 
HETATM    9  H8  UNL     1      21.487  -0.850  52.527  1.00  0.00     0.162 HD
ENDROOT
BRANCH   3  10
HETATM   10  N3  UNL     1      23.435   3.994  51.047  1.00  0.00    -0.340 N 
HETATM   11  H3  UNL     1      23.276   4.684  51.798  1.00  0.00     0.167 HD
BRANCH  10  12
HETATM   12  C3  UNL     1      24.672   4.165  50.359  1.00  0.00     0.034 A 
HETATM   13  C4  UNL     1      25.572   3.198  49.953  1.00  0.00     0.029 A 
HETATM   14  C5  UNL     1      26.717   3.573  49.285  1.00  0.00     0.003 A 
HETATM   15  C6  UNL     1      26.993   4.896  49.006  1.00  0.00     0.016 A 
HETATM   16  C7  UNL     1      26.109   5.869  49.402  1.00  0.00     0.050 A 
HETATM   17  C9  UNL     1      24.948   5.498  50.078  1.00  0.00     0.045 A 
BRANCH  16  18
HETATM   18  C8  UNL     1      26.406   7.302  49.097  1.00  0.00     0.417 C 
HETATM   19  F1  UNL     1      25.769   7.703  47.962  1.00  0.00    -0.166 F 
HETATM   20  F2  UNL     1      26.088   8.051  50.219  1.00  0.00    -0.166 F 
HETATM   21  F3  UNL     1      27.786   7.443  48.909  1.00  0.00    -0.166 F 
ENDBRANCH  16  18
ENDBRANCH  10  12
ENDBRANCH   3  10
BRANCH   1  22
HETATM   22  N1  UNL     1      20.319   2.250  47.835  1.00  0.00    -0.231 N 
HETATM   23  H1  UNL     1      20.398   1.607  47.004  1.00  0.00     0.174 HD
HETATM   24  H2  UNL     1      19.646   3.017  47.769  1.00  0.00     0.174 HD
ENDBRANCH   1  22
BRANCH   8  25
HETATM   25  C13 UNL     1      24.077   0.368  52.697  1.00  0.00     0.081 C 
HETATM   26  C14 UNL     1      25.215   1.298  52.747  1.00  0.00    -0.000 C 
HETATM   27  C15 UNL     1      26.366   0.650  52.736  1.00  0.00    -0.006 C 
HETATM   28  C16 UNL     1      26.440  -0.528  53.329  1.00  0.00     0.046 C 
HETATM   29 CL1  UNL     1      27.830  -1.546  53.015  1.00  0.00    -0.083 Cl
HETATM   30  C17 UNL     1      25.356  -0.935  54.223  1.00  0.00     0.045 C 
HETATM   31  C18 UNL     1      24.130  -0.487  53.920  1.00  0.00     0.023 C 
HETATM   32 CL2  UNL     1      22.856  -0.984  54.998  1.00  0.00    -0.088 Cl
ENDBRANCH   8  25
TORSDOF 5
ENDMDL
MODEL 8
REMARK VINA RESULT:      -8.1      3.890      6.733
REMARK  5 active torsions:
REMARK  status: ('A' for Active; 'I' for Inactive)
REMARK    1  A    between atoms: N1_1  and  C1_2 
REMARK    2  A    between atoms: C2_4  and  N3_5 
REMARK    3  A    between atoms: N3_5  and  C3_6 
REMARK    4  A    between atoms: C7_10  and  C8_11 
REMARK    5  A    between atoms: C12_20  and  C13_21 
ROOT
HETATM    1  C1  UNL     1      21.985   4.953  50.887  1.00  0.00     0.724 A 
HETATM    2  N2  UNL     1      21.614   3.715  50.518  1.00  0.00    -0.045 NA
HETATM    3  C2  UNL     1      22.435   2.664  50.653  1.00  0.00     0.159 A 
HETATM    4  C10 UNL     1      23.705   2.779  51.176  1.00  0.00     0.058 A 
HETATM    5  C11 UNL     1      24.066   4.060  51.548  1.00  0.00     0.155 A 
HETATM    6  N4  UNL     1      23.226   5.102  51.404  1.00  0.00    -0.045 NA
HETATM    7  N5  UNL     1      25.340   3.586  51.962  1.00  0.00    -0.364 N 
HETATM    8  C12 UNL     1      24.989   2.205  51.590  1.00  0.00     0.137 A 
HETATM    9  H8  UNL     1      26.238   3.924  52.368  1.00  0.00     0.162 HD
ENDROOT
BRANCH   3  10
HETATM   10  N3  UNL     1      21.935   1.405  50.225  1.00  0.00    -0.340 N 
HETATM   11  H3  UNL     1      22.295   0.831  49.447  1.00  0.00     0.167 HD
BRANCH  10  12
HETATM   12  C3  UNL     1      20.823   0.825  50.904  1.00  0.00     0.034 A 
HETATM   13  C4  UNL     1      19.485   0.875  50.561  1.00  0.00     0.029 A 
HETATM   14  C5  UNL     1      18.557   0.234  51.352  1.00  0.00     0.003 A 
HETATM   15  C6  UNL     1      18.928  -0.462  52.485  1.00  0.00     0.016 A 
HETATM   16  C7  UNL     1      20.254  -0.522  52.839  1.00  0.00     0.050 A 
HETATM   17  C9  UNL     1      21.199   0.125  52.044  1.00  0.00     0.045 A 
BRANCH  16  18
HETATM   18  C8  UNL     1      20.655  -1.278  54.063  1.00  0.00     0.417 C 
HETATM   19  F1  UNL     1      21.076  -0.434  55.045  1.00  0.00    -0.166 F 
HETATM   20  F2  UNL     1      19.593  -2.088  54.431  1.00  0.00    -0.166 F 
HETATM   21  F3  UNL     1      21.709  -2.139  53.733  1.00  0.00    -0.166 F 
ENDBRANCH  16  18
ENDBRANCH  10  12
ENDBRANCH   3  10
BRANCH   1  22
HETATM   22  N1  UNL     1      21.175   6.116  50.774  1.00  0.00    -0.231 N 
HETATM   23  H1  UNL     1      20.280   6.312  51.296  1.00  0.00     0.174 HD
HETATM   24  H2  UNL     1      21.499   6.831  50.119  1.00  0.00     0.174 HD
ENDBRANCH   1  22
BRANCH   8  25
HETATM   25  C13 UNL     1      24.996   1.386  52.855  1.00  0.00     0.081 C 
HETATM   26  C14 UNL     1      24.421   0.040  52.710  1.00  0.00    -0.000 C 
HETATM   27  C15 UNL     1      24.416  -0.607  53.861  1.00  0.00    -0.006 C 
HETATM   28  C16 UNL     1      25.397  -0.388  54.719  1.00  0.00     0.046 C 
HETATM   29 CL1  UNL     1      25.216  -0.949  56.368  1.00  0.00    -0.083 Cl
HETATM   30  C17 UNL     1      26.593   0.316  54.256  1.00  0.00     0.045 C 
HETATM   31  C18 UNL     1      26.414   1.234  53.298  1.00  0.00     0.023 C 
HETATM   32 CL2  UNL     1      27.851   2.059  52.762  1.00  0.00    -0.088 Cl
ENDBRANCH   8  25
TORSDOF 5
ENDMDL
MODEL 9
REMARK VINA RESULT:      -8.1      1.664      2.154
REMARK  5 active torsions:
REMARK  status: ('A' for Active; 'I' for Inactive)
REMARK    1  A    between atoms: N1_1  and  C1_2 
REMARK    2  A    between atoms: C2_4  and  N3_5 
REMARK    3  A    between atoms: N3_5  and  C3_6 
REMARK    4  A    between atoms: C7_10  and  C8_11 
REMARK    5  A    between atoms: C12_20  and  C13_21 
ROOT
HETATM    1  C1  UNL     1      27.177   2.336  53.115  1.00  0.00     0.724 A 
HETATM    2  N2  UNL     1      27.285   2.669  51.818  1.00  0.00    -0.045 NA
HETATM    3  C2  UNL     1      26.267   2.502  50.961  1.00  0.00     0.159 A 
HETATM    4  C10 UNL     1      25.050   1.983  51.348  1.00  0.00     0.058 A 
HETATM    5  C11 UNL     1      24.962   1.647  52.685  1.00  0.00     0.155 A 
HETATM    6  N4  UNL     1      25.996   1.823  53.529  1.00  0.00    -0.045 NA
HETATM    7  N5  UNL     1      23.623   1.211  52.491  1.00  0.00    -0.364 N 
HETATM    8  C12 UNL     1      23.673   1.568  51.064  1.00  0.00     0.137 A 
HETATM    9  H8  UNL     1      22.821   0.798  53.014  1.00  0.00     0.162 HD
ENDROOT
BRANCH   3  10
HETATM   10  N3  UNL     1      26.498   2.887  49.613  1.00  0.00    -0.340 N 
HETATM   11  H3  UNL     1      26.520   2.265  48.790  1.00  0.00     0.167 HD
BRANCH  10  12
HETATM   12  C3  UNL     1      26.731   4.260  49.306  1.00  0.00     0.034 A 
HETATM   13  C4  UNL     1      27.757   4.813  48.565  1.00  0.00     0.029 A 
HETATM   14  C5  UNL     1      27.799   6.177  48.374  1.00  0.00     0.003 A 
HETATM   15  C6  UNL     1      26.837   7.012  48.904  1.00  0.00     0.016 A 
HETATM   16  C7  UNL     1      25.810   6.478  49.643  1.00  0.00     0.050 A 
HETATM   17  C9  UNL     1      25.761   5.099  49.841  1.00  0.00     0.045 A 
BRANCH  16  18
HETATM   18  C8  UNL     1      24.766   7.382  50.215  1.00  0.00     0.417 C 
HETATM   19  F1  UNL     1      24.350   6.940  51.434  1.00  0.00    -0.166 F 
HETATM   20  F2  UNL     1      25.278   8.670  50.226  1.00  0.00    -0.166 F 
HETATM   21  F3  UNL     1      23.667   7.404  49.348  1.00  0.00    -0.166 F 
ENDBRANCH  16  18
ENDBRANCH  10  12
ENDBRANCH   3  10
BRANCH   1  22
HETATM   22  N1  UNL     1      28.207   2.481  54.083  1.00  0.00    -0.231 N 
HETATM   23  H1  UNL     1      28.755   1.704  54.540  1.00  0.00     0.174 HD
HETATM   24  H2  UNL     1      28.437   3.438  54.360  1.00  0.00     0.174 HD
ENDBRANCH   1  22
BRANCH   8  25
HETATM   25  C13 UNL     1      22.661   2.663  50.841  1.00  0.00     0.081 C 
HETATM   26  C14 UNL     1      22.932   3.511  49.671  1.00  0.00    -0.000 C 
HETATM   27  C15 UNL     1      22.036   4.475  49.559  1.00  0.00    -0.006 C 
HETATM   28  C16 UNL     1      20.793   4.237  49.938  1.00  0.00     0.046 C 
HETATM   29 CL1  UNL     1      19.698   5.589  50.134  1.00  0.00    -0.083 Cl
HETATM   30  C17 UNL     1      20.384   2.854  50.179  1.00  0.00     0.045 C 
HETATM   31  C18 UNL     1      21.326   2.023  50.644  1.00  0.00     0.023 C 
HETATM   32 CL2  UNL     1      20.816   0.381  50.925  1.00  0.00    -0.088 Cl
ENDBRANCH   8  25
TORSDOF 5
ENDMDL
