MODEL 1
REMARK VINA RESULT:      -6.5      0.000      0.000
REMARK  5 active torsions:
REMARK  status: ('A' for Active; 'I' for Inactive)
REMARK    1  A    between atoms: N2_5  and  C4_6 
REMARK    2  A    between atoms: C4_6  and  C5_7 
REMARK    3  A    between atoms: C5_7  and  C6_8 
REMARK    4  A    between atoms: C6_8  and  O1_9 
REMARK    5  A    between atoms: O1_9  and  C7_10 
ROOT
HETATM    1  O1  UNL     1      23.578   1.768  50.902  1.00  0.00    -0.350 OA
ENDROOT
BRANCH   1   2
HETATM    2  C6  UNL     1      23.841   3.141  51.204  1.00  0.00     0.177 C 
BRANCH   2   3
HETATM    3  C5  UNL     1      25.361   3.379  51.207  1.00  0.00     0.046 C 
BRANCH   3   4
HETATM    4  C4  UNL     1      26.007   2.097  50.862  1.00  0.00     0.119 C 
BRANCH   4   5
HETATM    5  N2  UNL     1      26.760   1.405  51.803  1.00  0.00    -0.409 N 
HETATM    6  C3  UNL     1      27.160   1.988  53.014  1.00  0.00     0.147 C 
HETATM    7  C2  UNL     1      26.625   1.216  54.196  1.00  0.00     0.291 C 
HETATM    8  N1  UNL     1      27.308  -0.061  54.276  1.00  0.00     0.087 N 
HETATM    9  C1  UNL     1      28.588   0.139  54.916  1.00  0.00     0.310 C 
HETATM   10  C16 UNL     1      27.449  -0.644  52.955  1.00  0.00     0.291 C 
HETATM   11  C15 UNL     1      26.545   0.001  51.948  1.00  0.00     0.147 C 
ENDBRANCH   4   5
ENDBRANCH   3   4
ENDBRANCH   2   3
ENDBRANCH   1   2
BRANCH   1  12
HETATM   12  C7  UNL     1      22.545   1.188  51.571  1.00  0.00     0.077 C 
HETATM   13  C8  UNL     1      21.176   1.204  51.449  1.00  0.00     0.051 C 
HETATM   14  C9  UNL     1      20.878   0.319  52.620  1.00  0.00    -0.004 C 
HETATM   15  C10 UNL     1      21.854   0.929  53.378  1.00  0.00    -0.003 C 
HETATM   16  C13 UNL     1      20.286  -0.728  53.448  1.00  0.00     0.022 C 
HETATM   17  C11 UNL     1      22.879   0.319  52.704  1.00  0.00    -0.003 C 
HETATM   18  C12 UNL     1      23.183  -0.535  53.858  1.00  0.00     0.121 C 
HETATM   19  S1  UNL     1      21.620  -1.343  54.508  1.00  0.00    -0.123 SA
HETATM   20  C14 UNL     1      19.053  -0.701  52.986  1.00  0.00     0.104 C 
HETATM   21 CL1  UNL     1      17.857  -1.785  53.637  1.00  0.00    -0.096 Cl
ENDBRANCH   1  12
TORSDOF 5
ENDMDL
MODEL 2
REMARK VINA RESULT:      -6.5      4.672      6.463
REMARK  5 active torsions:
REMARK  status: ('A' for Active; 'I' for Inactive)
REMARK    1  A    between atoms: N2_5  and  C4_6 
REMARK    2  A    between atoms: C4_6  and  C5_7 
REMARK    3  A    between atoms: C5_7  and  C6_8 
REMARK    4  A    between atoms: C6_8  and  O1_9 
REMARK    5  A    between atoms: O1_9  and  C7_10 
ROOT
HETATM    1  O1  UNL     1      24.282   2.165  50.620  1.00  0.00    -0.350 OA
ENDROOT
BRANCH   1   2
HETATM    2  C6  UNL     1      23.481   2.498  51.758  1.00  0.00     0.177 C 
BRANCH   2   3
HETATM    3  C5  UNL     1      24.293   2.252  53.041  1.00  0.00     0.046 C 
BRANCH   3   4
HETATM    4  C4  UNL     1      24.702   0.833  53.038  1.00  0.00     0.119 C 
BRANCH   4   5
HETATM    5  N2  UNL     1      26.007   0.468  53.346  1.00  0.00    -0.409 N 
HETATM    6  C3  UNL     1      27.076   0.708  52.469  1.00  0.00     0.147 C 
HETATM    7  C2  UNL     1      28.122   1.586  53.111  1.00  0.00     0.291 C 
HETATM    8  N1  UNL     1      28.795   0.837  54.154  1.00  0.00     0.087 N 
HETATM    9  C1  UNL     1      29.798  -0.007  53.543  1.00  0.00     0.310 C 
HETATM   10  C16 UNL     1      27.837   0.067  54.924  1.00  0.00     0.291 C 
HETATM   11  C15 UNL     1      26.428   0.532  54.708  1.00  0.00     0.147 C 
ENDBRANCH   4   5
ENDBRANCH   3   4
ENDBRANCH   2   3
ENDBRANCH   1   2
BRANCH   1  12
HETATM   12  C7  UNL     1      25.098   3.144  50.146  1.00  0.00     0.077 C 
HETATM   13  C8  UNL     1      26.458   3.305  50.027  1.00  0.00     0.051 C 
HETATM   14  C9  UNL     1      26.428   4.682  49.438  1.00  0.00    -0.004 C 
HETATM   15  C10 UNL     1      25.415   5.066  50.290  1.00  0.00    -0.003 C 
HETATM   16  C13 UNL     1      26.728   5.829  48.586  1.00  0.00     0.022 C 
HETATM   17  C11 UNL     1      24.461   4.353  49.612  1.00  0.00    -0.003 C 
HETATM   18  C12 UNL     1      23.850   5.583  49.096  1.00  0.00     0.121 C 
HETATM   19  S1  UNL     1      25.159   6.706  48.356  1.00  0.00    -0.123 SA
HETATM   20  C14 UNL     1      28.018   5.635  48.403  1.00  0.00     0.104 C 
HETATM   21 CL1  UNL     1      28.933   6.745  47.425  1.00  0.00    -0.096 Cl
ENDBRANCH   1  12
TORSDOF 5
ENDMDL
MODEL 3
REMARK VINA RESULT:      -6.4      3.614      5.108
REMARK  5 active torsions:
REMARK  status: ('A' for Active; 'I' for Inactive)
REMARK    1  A    between atoms: N2_5  and  C4_6 
REMARK    2  A    between atoms: C4_6  and  C5_7 
REMARK    3  A    between atoms: C5_7  and  C6_8 
REMARK    4  A    between atoms: C6_8  and  O1_9 
REMARK    5  A    between atoms: O1_9  and  C7_10 
ROOT
HETATM    1  O1  UNL     1      22.015   1.184  52.274  1.00  0.00    -0.350 OA
ENDROOT
BRANCH   1   2
HETATM    2  C6  UNL     1      22.300   0.603  53.550  1.00  0.00     0.177 C 
BRANCH   2   3
HETATM    3  C5  UNL     1      23.011  -0.746  53.348  1.00  0.00     0.046 C 
BRANCH   3   4
HETATM    4  C4  UNL     1      24.223  -0.735  54.193  1.00  0.00     0.119 C 
BRANCH   4   5
HETATM    5  N2  UNL     1      25.366  -0.059  53.787  1.00  0.00    -0.409 N 
HETATM    6  C3  UNL     1      26.136   0.708  54.675  1.00  0.00     0.147 C 
HETATM    7  C2  UNL     1      27.553   0.195  54.753  1.00  0.00     0.291 C 
HETATM    8  N1  UNL     1      28.229   0.478  53.502  1.00  0.00     0.087 N 
HETATM    9  C1  UNL     1      28.668   1.855  53.515  1.00  0.00     0.310 C 
HETATM   10  C16 UNL     1      27.354   0.199  52.379  1.00  0.00     0.291 C 
HETATM   11  C15 UNL     1      26.177  -0.644  52.769  1.00  0.00     0.147 C 
ENDBRANCH   4   5
ENDBRANCH   3   4
ENDBRANCH   2   3
ENDBRANCH   1   2
BRANCH   1  12
HETATM   12  C7  UNL     1      22.940   2.053  51.784  1.00  0.00     0.077 C 
HETATM   13  C8  UNL     1      24.127   1.927  51.101  1.00  0.00     0.051 C 
HETATM   14  C9  UNL     1      24.446   3.388  51.022  1.00  0.00    -0.004 C 
HETATM   15  C10 UNL     1      24.017   3.592  52.315  1.00  0.00    -0.003 C 
HETATM   16  C13 UNL     1      24.869   4.686  50.502  1.00  0.00     0.022 C 
HETATM   17  C11 UNL     1      22.692   3.485  51.982  1.00  0.00    -0.003 C 
HETATM   18  C12 UNL     1      22.481   4.922  52.189  1.00  0.00     0.121 C 
HETATM   19  S1  UNL     1      23.795   5.915  51.289  1.00  0.00    -0.123 SA
HETATM   20  C14 UNL     1      25.834   4.295  49.696  1.00  0.00     0.104 C 
HETATM   21 CL1  UNL     1      26.727   5.471  48.775  1.00  0.00    -0.096 Cl
ENDBRANCH   1  12
TORSDOF 5
ENDMDL
MODEL 4
REMARK VINA RESULT:      -6.3      3.945      6.602
REMARK  5 active torsions:
REMARK  status: ('A' for Active; 'I' for Inactive)
REMARK    1  A    between atoms: N2_5  and  C4_6 
REMARK    2  A    between atoms: C4_6  and  C5_7 
REMARK    3  A    between atoms: C5_7  and  C6_8 
REMARK    4  A    between atoms: C6_8  and  O1_9 
REMARK    5  A    between atoms: O1_9  and  C7_10 
ROOT
HETATM    1  O1  UNL     1      22.682  -0.853  53.469  1.00  0.00    -0.350 OA
ENDROOT
BRANCH   1   2
HETATM    2  C6  UNL     1      21.911  -0.674  54.661  1.00  0.00     0.177 C 
BRANCH   2   3
HETATM    3  C5  UNL     1      20.749   0.293  54.375  1.00  0.00     0.046 C 
BRANCH   3   4
HETATM    4  C4  UNL     1      20.394   0.143  52.949  1.00  0.00     0.119 C 
BRANCH   4   5
HETATM    5  N2  UNL     1      20.414   1.237  52.092  1.00  0.00    -0.409 N 
HETATM    6  C3  UNL     1      20.386   2.557  52.566  1.00  0.00     0.147 C 
HETATM    7  C2  UNL     1      21.608   3.323  52.123  1.00  0.00     0.291 C 
HETATM    8  N1  UNL     1      21.531   3.551  50.693  1.00  0.00     0.087 N 
HETATM    9  C1  UNL     1      20.666   4.684  50.452  1.00  0.00     0.310 C 
HETATM   10  C16 UNL     1      21.063   2.358  50.014  1.00  0.00     0.291 C 
HETATM   11  C15 UNL     1      21.157   1.137  50.878  1.00  0.00     0.147 C 
ENDBRANCH   4   5
ENDBRANCH   3   4
ENDBRANCH   2   3
ENDBRANCH   1   2
BRANCH   1  12
HETATM   12  C7  UNL     1      23.989  -0.484  53.532  1.00  0.00     0.077 C 
HETATM   13  C8  UNL     1      25.072  -0.862  54.290  1.00  0.00     0.051 C 
HETATM   14  C9  UNL     1      26.057   0.093  53.690  1.00  0.00    -0.004 C 
HETATM   15  C10 UNL     1      25.120   1.103  53.662  1.00  0.00    -0.003 C 
HETATM   16  C13 UNL     1      27.287   0.636  53.120  1.00  0.00     0.022 C 
HETATM   17  C11 UNL     1      24.441   0.558  52.604  1.00  0.00    -0.003 C 
HETATM   18  C12 UNL     1      24.913   1.617  51.704  1.00  0.00     0.121 C 
HETATM   19  S1  UNL     1      26.770   1.834  51.863  1.00  0.00    -0.123 SA
HETATM   20  C14 UNL     1      28.172  -0.046  53.818  1.00  0.00     0.104 C 
HETATM   21 CL1  UNL     1      29.872   0.204  53.546  1.00  0.00    -0.096 Cl
ENDBRANCH   1  12
TORSDOF 5
ENDMDL
MODEL 5
REMARK VINA RESULT:      -6.1      3.883      6.244
REMARK  5 active torsions:
REMARK  status: ('A' for Active; 'I' for Inactive)
REMARK    1  A    between atoms: N2_5  and  C4_6 
REMARK    2  A    between atoms: C4_6  and  C5_7 
REMARK    3  A    between atoms: C5_7  and  C6_8 
REMARK    4  A    between atoms: C6_8  and  O1_9 
REMARK    5  A    between atoms: O1_9  and  C7_10 
ROOT
HETATM    1  O1  UNL     1      21.953   0.195  52.474  1.00  0.00    -0.350 OA
ENDROOT
BRANCH   1   2
HETATM    2  C6  UNL     1      21.546   0.353  51.111  1.00  0.00     0.177 C 
BRANCH   2   3
HETATM    3  C5  UNL     1      20.116   0.918  51.069  1.00  0.00     0.046 C 
BRANCH   3   4
HETATM    4  C4  UNL     1      20.190   2.256  50.447  1.00  0.00     0.119 C 
BRANCH   4   5
HETATM    5  N2  UNL     1      21.188   3.153  50.808  1.00  0.00    -0.409 N 
HETATM    6  C3  UNL     1      21.826   3.977  49.869  1.00  0.00     0.147 C 
HETATM    7  C2  UNL     1      21.638   5.436  50.205  1.00  0.00     0.291 C 
HETATM    8  N1  UNL     1      22.401   5.750  51.398  1.00  0.00     0.087 N 
HETATM    9  C1  UNL     1      23.781   5.957  51.022  1.00  0.00     0.310 C 
HETATM   10  C16 UNL     1      22.261   4.693  52.382  1.00  0.00     0.291 C 
HETATM   11  C15 UNL     1      21.104   3.787  52.084  1.00  0.00     0.147 C 
ENDBRANCH   4   5
ENDBRANCH   3   4
ENDBRANCH   2   3
ENDBRANCH   1   2
BRANCH   1  12
HETATM   12  C7  UNL     1      23.290   0.246  52.716  1.00  0.00     0.077 C 
HETATM   13  C8  UNL     1      24.162  -0.458  53.512  1.00  0.00     0.051 C 
HETATM   14  C9  UNL     1      25.396   0.311  53.156  1.00  0.00    -0.004 C 
HETATM   15  C10 UNL     1      24.707   1.505  53.185  1.00  0.00    -0.003 C 
HETATM   16  C13 UNL     1      26.776   0.623  52.792  1.00  0.00     0.022 C 
HETATM   17  C11 UNL     1      24.068   1.262  51.998  1.00  0.00    -0.003 C 
HETATM   18  C12 UNL     1      24.865   2.285  51.313  1.00  0.00     0.121 C 
HETATM   19  S1  UNL     1      26.690   2.052  51.680  1.00  0.00    -0.123 SA
HETATM   20  C14 UNL     1      27.399  -0.322  53.465  1.00  0.00     0.104 C 
HETATM   21 CL1  UNL     1      29.134  -0.436  53.399  1.00  0.00    -0.096 Cl
ENDBRANCH   1  12
TORSDOF 5
ENDMDL
MODEL 6
REMARK VINA RESULT:      -6.1      5.050      6.845
REMARK  5 active torsions:
REMARK  status: ('A' for Active; 'I' for Inactive)
REMARK    1  A    between atoms: N2_5  and  C4_6 
REMARK    2  A    between atoms: C4_6  and  C5_7 
REMARK    3  A    between atoms: C5_7  and  C6_8 
REMARK    4  A    between atoms: C6_8  and  O1_9 
REMARK    5  A    between atoms: O1_9  and  C7_10 
ROOT
HETATM    1  O1  UNL     1      24.117   3.735  50.991  1.00  0.00    -0.350 OA
ENDROOT
BRANCH   1   2
HETATM    2  C6  UNL     1      24.961   2.650  51.387  1.00  0.00     0.177 C 
BRANCH   2   3
HETATM    3  C5  UNL     1      24.609   2.230  52.825  1.00  0.00     0.046 C 
BRANCH   3   4
HETATM    4  C4  UNL     1      25.854   2.290  53.617  1.00  0.00     0.119 C 
BRANCH   4   5
HETATM    5  N2  UNL     1      26.876   1.372  53.407  1.00  0.00    -0.409 N 
HETATM    6  C3  UNL     1      28.193   1.611  53.825  1.00  0.00     0.147 C 
HETATM    7  C2  UNL     1      28.659   0.554  54.796  1.00  0.00     0.291 C 
HETATM    8  N1  UNL     1      28.828  -0.699  54.087  1.00  0.00     0.087 N 
HETATM    9  C1  UNL     1      30.106  -0.678  53.410  1.00  0.00     0.310 C 
HETATM   10  C16 UNL     1      27.730  -0.911  53.163  1.00  0.00     0.291 C 
HETATM   11  C15 UNL     1      26.560  -0.019  53.454  1.00  0.00     0.147 C 
ENDBRANCH   4   5
ENDBRANCH   3   4
ENDBRANCH   2   3
ENDBRANCH   1   2
BRANCH   1  12
HETATM   12  C7  UNL     1      24.742   4.851  50.526  1.00  0.00     0.077 C 
HETATM   13  C8  UNL     1      24.533   6.204  50.646  1.00  0.00     0.051 C 
HETATM   14  C9  UNL     1      25.678   6.642  49.786  1.00  0.00    -0.004 C 
HETATM   15  C10 UNL     1      25.430   5.636  48.877  1.00  0.00    -0.003 C 
HETATM   16  C13 UNL     1      26.843   7.377  49.303  1.00  0.00     0.022 C 
HETATM   17  C11 UNL     1      25.934   4.659  49.694  1.00  0.00    -0.003 C 
HETATM   18  C12 UNL     1      27.114   4.494  48.837  1.00  0.00     0.121 C 
HETATM   19  S1  UNL     1      27.889   6.161  48.460  1.00  0.00    -0.123 SA
HETATM   20  C14 UNL     1      26.542   8.581  49.745  1.00  0.00     0.104 C 
HETATM   21 CL1  UNL     1      27.621   9.912  49.445  1.00  0.00    -0.096 Cl
ENDBRANCH   1  12
TORSDOF 5
ENDMDL
MODEL 7
REMARK VINA RESULT:      -6.1      3.284      4.437
REMARK  5 active torsions:
REMARK  status: ('A' for Active; 'I' for Inactive)
REMARK    1  A    between atoms: N2_5  and  C4_6 
REMARK    2  A    between atoms: C4_6  and  C5_7 
REMARK    3  A    between atoms: C5_7  and  C6_8 
REMARK    4  A    between atoms: C6_8  and  O1_9 
REMARK    5  A    between atoms: O1_9  and  C7_10 
ROOT
HETATM    1  O1  UNL     1      21.146   0.469  52.574  1.00  0.00    -0.350 OA
ENDROOT
BRANCH   1   2
HETATM    2  C6  UNL     1      22.172   0.374  53.567  1.00  0.00     0.177 C 
BRANCH   2   3
HETATM    3  C5  UNL     1      23.186  -0.704  53.149  1.00  0.00     0.046 C 
BRANCH   3   4
HETATM    4  C4  UNL     1      24.356  -0.577  54.042  1.00  0.00     0.119 C 
BRANCH   4   5
HETATM    5  N2  UNL     1      25.370   0.330  53.760  1.00  0.00    -0.409 N 
HETATM    6  C3  UNL     1      26.450   0.537  54.632  1.00  0.00     0.147 C 
HETATM    7  C2  UNL     1      27.764   0.227  53.957  1.00  0.00     0.291 C 
HETATM    8  N1  UNL     1      28.032   1.241  52.955  1.00  0.00     0.087 N 
HETATM    9  C1  UNL     1      28.580   2.406  53.611  1.00  0.00     0.310 C 
HETATM   10  C16 UNL     1      26.824   1.554  52.215  1.00  0.00     0.291 C 
HETATM   11  C15 UNL     1      25.758   0.516  52.400  1.00  0.00     0.147 C 
ENDBRANCH   4   5
ENDBRANCH   3   4
ENDBRANCH   2   3
ENDBRANCH   1   2
BRANCH   1  12
HETATM   12  C7  UNL     1      21.491   1.066  51.402  1.00  0.00     0.077 C 
HETATM   13  C8  UNL     1      21.417   0.718  50.074  1.00  0.00     0.051 C 
HETATM   14  C9  UNL     1      22.052   1.958  49.525  1.00  0.00    -0.004 C 
HETATM   15  C10 UNL     1      22.988   1.974  50.537  1.00  0.00    -0.003 C 
HETATM   16  C13 UNL     1      22.314   3.122  48.683  1.00  0.00     0.022 C 
HETATM   17  C11 UNL     1      22.088   2.404  51.476  1.00  0.00    -0.003 C 
HETATM   18  C12 UNL     1      22.712   3.731  51.524  1.00  0.00     0.121 C 
HETATM   19  S1  UNL     1      22.945   4.410  49.790  1.00  0.00    -0.123 SA
HETATM   20  C14 UNL     1      21.941   2.637  47.516  1.00  0.00     0.104 C 
HETATM   21 CL1  UNL     1      22.040   3.629  46.091  1.00  0.00    -0.096 Cl
ENDBRANCH   1  12
TORSDOF 5
ENDMDL
MODEL 8
REMARK VINA RESULT:      -6.0      7.746      9.690
REMARK  5 active torsions:
REMARK  status: ('A' for Active; 'I' for Inactive)
REMARK    1  A    between atoms: N2_5  and  C4_6 
REMARK    2  A    between atoms: C4_6  and  C5_7 
REMARK    3  A    between atoms: C5_7  and  C6_8 
REMARK    4  A    between atoms: C6_8  and  O1_9 
REMARK    5  A    between atoms: O1_9  and  C7_10 
ROOT
HETATM    1  O1  UNL     1      30.025   8.331  48.036  1.00  0.00    -0.350 OA
ENDROOT
BRANCH   1   2
HETATM    2  C6  UNL     1      30.684   8.866  49.188  1.00  0.00     0.177 C 
BRANCH   2   3
HETATM    3  C5  UNL     1      31.826   7.924  49.605  1.00  0.00     0.046 C 
BRANCH   3   4
HETATM    4  C4  UNL     1      32.757   7.830  48.462  1.00  0.00     0.119 C 
BRANCH   4   5
HETATM    5  N2  UNL     1      33.114   6.595  47.935  1.00  0.00    -0.409 N 
HETATM    6  C3  UNL     1      34.439   6.283  47.595  1.00  0.00     0.147 C 
HETATM    7  C2  UNL     1      34.937   5.090  48.373  1.00  0.00     0.291 C 
HETATM    8  N1  UNL     1      34.253   3.900  47.903  1.00  0.00     0.087 N 
HETATM    9  C1  UNL     1      34.896   3.447  46.690  1.00  0.00     0.310 C 
HETATM   10  C16 UNL     1      32.843   4.172  47.700  1.00  0.00     0.291 C 
HETATM   11  C15 UNL     1      32.404   5.437  48.374  1.00  0.00     0.147 C 
ENDBRANCH   4   5
ENDBRANCH   3   4
ENDBRANCH   2   3
ENDBRANCH   1   2
BRANCH   1  12
HETATM   12  C7  UNL     1      29.033   7.430  48.270  1.00  0.00     0.077 C 
HETATM   13  C8  UNL     1      28.876   6.080  48.060  1.00  0.00     0.051 C 
HETATM   14  C9  UNL     1      27.479   5.975  48.589  1.00  0.00    -0.004 C 
HETATM   15  C10 UNL     1      27.120   7.162  47.987  1.00  0.00    -0.003 C 
HETATM   16  C13 UNL     1      26.304   5.487  49.305  1.00  0.00     0.022 C 
HETATM   17  C11 UNL     1      27.803   7.927  48.896  1.00  0.00    -0.003 C 
HETATM   18  C12 UNL     1      26.553   8.403  49.497  1.00  0.00     0.121 C 
HETATM   19  S1  UNL     1      25.412   6.960  49.868  1.00  0.00    -0.123 SA
HETATM   20  C14 UNL     1      26.498   4.189  49.186  1.00  0.00     0.104 C 
HETATM   21 CL1  UNL     1      25.359   3.073  49.880  1.00  0.00    -0.096 Cl
ENDBRANCH   1  12
TORSDOF 5
ENDMDL
MODEL 9
REMARK VINA RESULT:      -6.0      4.545      6.831
REMARK  5 active torsions:
REMARK  status: ('A' for Active; 'I' for Inactive)
REMARK    1  A    between atoms: N2_5  and  C4_6 
REMARK    2  A    between atoms: C4_6  and  C5_7 
REMARK    3  A    between atoms: C5_7  and  C6_8 
REMARK    4  A    between atoms: C6_8  and  O1_9 
REMARK    5  A    between atoms: O1_9  and  C7_10 
ROOT
HETATM    1  O1  UNL     1      25.121   3.247  52.002  1.00  0.00    -0.350 OA
ENDROOT
BRANCH   1   2
HETATM    2  C6  UNL     1      24.344   3.173  50.802  1.00  0.00     0.177 C 
BRANCH   2   3
HETATM    3  C5  UNL     1      25.233   3.529  49.598  1.00  0.00     0.046 C 
BRANCH   3   4
HETATM    4  C4  UNL     1      24.895   4.910  49.196  1.00  0.00     0.119 C 
BRANCH   4   5
HETATM    5  N2  UNL     1      25.801   5.947  49.385  1.00  0.00    -0.409 N 
HETATM    6  C3  UNL     1      26.835   6.210  48.474  1.00  0.00     0.147 C 
HETATM    7  C2  UNL     1      26.726   7.606  47.911  1.00  0.00     0.291 C 
HETATM    8  N1  UNL     1      27.039   8.563  48.954  1.00  0.00     0.087 N 
HETATM    9  C1  UNL     1      28.476   8.664  49.073  1.00  0.00     0.310 C 
HETATM   10  C16 UNL     1      26.419   8.171  50.205  1.00  0.00     0.291 C 
HETATM   11  C15 UNL     1      25.342   7.145  50.010  1.00  0.00     0.147 C 
ENDBRANCH   4   5
ENDBRANCH   3   4
ENDBRANCH   2   3
ENDBRANCH   1   2
BRANCH   1  12
HETATM   12  C7  UNL     1      25.778   2.114  52.369  1.00  0.00     0.077 C 
HETATM   13  C8  UNL     1      25.493   0.769  52.333  1.00  0.00     0.051 C 
HETATM   14  C9  UNL     1      26.765   0.297  52.966  1.00  0.00    -0.004 C 
HETATM   15  C10 UNL     1      26.742   1.332  53.876  1.00  0.00    -0.003 C 
HETATM   16  C13 UNL     1      27.971  -0.482  53.234  1.00  0.00     0.022 C 
HETATM   17  C11 UNL     1      27.117   2.268  52.947  1.00  0.00    -0.003 C 
HETATM   18  C12 UNL     1      28.447   2.395  53.552  1.00  0.00     0.121 C 
HETATM   19  S1  UNL     1      29.212   0.702  53.820  1.00  0.00    -0.123 SA
HETATM   20  C14 UNL     1      27.539  -1.679  52.896  1.00  0.00     0.104 C 
HETATM   21 CL1  UNL     1      28.600  -3.052  53.019  1.00  0.00    -0.096 Cl
ENDBRANCH   1  12
TORSDOF 5
ENDMDL
