MODEL 1
REMARK VINA RESULT:      -7.1      0.000      0.000
REMARK  8 active torsions:
REMARK  status: ('A' for Active; 'I' for Inactive)
REMARK    1  A    between atoms: O1_2  and  C2_3 
REMARK    2  A    between atoms: C2_3  and  C3_5 
REMARK    3  A    between atoms: C6_8  and  C7_9 
REMARK    4  A    between atoms: C7_9  and  P1_10 
REMARK    5  A    between atoms: C8_11  and  N1_12 
REMARK       I    between atoms: N1_12  and  C9_13 
REMARK    6  A    between atoms: C9_13  and  C10_15 
REMARK    7  A    between atoms: C10_15  and  C11_16 
REMARK    8  A    between atoms: C11_16  and  C12_17 
ROOT
HETATM    1  C3  UNL     1      26.349   0.194  53.975  1.00  0.00     0.041 A 
HETATM    2  C4  UNL     1      25.442  -0.671  54.540  1.00  0.00     0.018 A 
HETATM    3  C5  UNL     1      24.146  -0.585  54.082  1.00  0.00     0.011 A 
HETATM    4  C6  UNL     1      23.755   0.309  53.110  1.00  0.00    -0.028 A 
HETATM    5  C8  UNL     1      24.652   1.179  52.539  1.00  0.00     0.042 A 
HETATM    6  C16 UNL     1      25.939   1.079  53.009  1.00  0.00     0.047 A 
ENDROOT
BRANCH   5   7
HETATM    7  N1  UNL     1      24.179   2.069  51.546  1.00  0.00    -0.327 N 
HETATM    8  C9  UNL     1      23.845   3.433  51.675  1.00  0.00     0.222 C 
HETATM    9  O3  UNL     1      23.948   4.015  52.783  1.00  0.00    -0.273 OA
HETATM   10  H10 UNL     1      24.033   1.762  50.582  1.00  0.00     0.169 HD
BRANCH   8  11
HETATM   11  C10 UNL     1      23.361   4.335  50.636  1.00  0.00     0.107 C 
BRANCH  11  12
HETATM   12  C11 UNL     1      23.955   4.055  49.280  1.00  0.00     0.044 C 
BRANCH  12  13
HETATM   13  C12 UNL     1      25.299   4.671  49.259  1.00  0.00    -0.063 C 
HETATM   14  C13 UNL     1      25.582   5.967  49.306  1.00  0.00     0.085 C 
HETATM   15  N2  UNL     1      27.004   6.202  49.267  1.00  0.00    -0.398 N 
HETATM   16  C14 UNL     1      27.641   4.941  48.925  1.00  0.00     0.123 C 
HETATM   17  H16 UNL     1      27.512   7.092  49.444  1.00  0.00     0.158 HD
HETATM   18  C15 UNL     1      26.594   3.902  49.183  1.00  0.00     0.055 C 
ENDBRANCH  12  13
ENDBRANCH  11  12
ENDBRANCH   8  11
ENDBRANCH   5   7
BRANCH   4  19
HETATM   19  C7  UNL     1      22.323   0.282  52.718  1.00  0.00     0.069 C 
BRANCH  19  20
HETATM   20  P1  UNL     1      21.254  -0.604  53.944  1.00  0.00    -0.137 P 
HETATM   21  H8  UNL     1      21.952  -1.702  54.578  1.00  0.00     0.054 HD
HETATM   22  H9  UNL     1      20.055  -1.139  53.328  1.00  0.00     0.054 HD
ENDBRANCH  19  20
ENDBRANCH   4  19
BRANCH   1  23
HETATM   23  C2  UNL     1      27.714   0.137  54.426  1.00  0.00     0.293 C 
HETATM   24  O2  UNL     1      28.250   1.104  55.013  1.00  0.00    -0.259 OA
BRANCH  23  25
HETATM   25  O1  UNL     1      28.593  -0.923  54.294  1.00  0.00    -0.323 OA
HETATM   26  C1  UNL     1      29.823  -0.827  53.600  1.00  0.00     0.213 C 
ENDBRANCH  23  25
ENDBRANCH   1  23
TORSDOF 8
ENDMDL
MODEL 2
REMARK VINA RESULT:      -7.0      1.321      1.473
REMARK  8 active torsions:
REMARK  status: ('A' for Active; 'I' for Inactive)
REMARK    1  A    between atoms: O1_2  and  C2_3 
REMARK    2  A    between atoms: C2_3  and  C3_5 
REMARK    3  A    between atoms: C6_8  and  C7_9 
REMARK    4  A    between atoms: C7_9  and  P1_10 
REMARK    5  A    between atoms: C8_11  and  N1_12 
REMARK       I    between atoms: N1_12  and  C9_13 
REMARK    6  A    between atoms: C9_13  and  C10_15 
REMARK    7  A    between atoms: C10_15  and  C11_16 
REMARK    8  A    between atoms: C11_16  and  C12_17 
ROOT
HETATM    1  C3  UNL     1      26.875   0.665  54.097  1.00  0.00     0.041 A 
HETATM    2  C4  UNL     1      25.982  -0.374  54.203  1.00  0.00     0.018 A 
HETATM    3  C5  UNL     1      24.722  -0.153  53.692  1.00  0.00     0.011 A 
HETATM    4  C6  UNL     1      24.353   1.035  53.102  1.00  0.00    -0.028 A 
HETATM    5  C8  UNL     1      25.236   2.081  52.991  1.00  0.00     0.042 A 
HETATM    6  C16 UNL     1      26.488   1.842  53.506  1.00  0.00     0.047 A 
ENDROOT
BRANCH   5   7
HETATM    7  N1  UNL     1      24.788   3.271  52.372  1.00  0.00    -0.327 N 
HETATM    8  C9  UNL     1      24.981   3.698  51.042  1.00  0.00     0.222 C 
HETATM    9  O3  UNL     1      25.625   2.990  50.230  1.00  0.00    -0.273 OA
HETATM   10  H10 UNL     1      24.248   3.969  52.888  1.00  0.00     0.169 HD
BRANCH   8  11
HETATM   11  C10 UNL     1      24.507   4.931  50.423  1.00  0.00     0.107 C 
BRANCH  11  12
HETATM   12  C11 UNL     1      25.035   5.138  49.026  1.00  0.00     0.044 C 
BRANCH  12  13
HETATM   13  C12 UNL     1      26.132   6.125  49.119  1.00  0.00    -0.063 C 
HETATM   14  C13 UNL     1      26.148   7.231  49.855  1.00  0.00     0.085 C 
HETATM   15  N2  UNL     1      27.385   7.955  49.698  1.00  0.00    -0.398 N 
HETATM   16  C14 UNL     1      28.096   7.358  48.579  1.00  0.00     0.123 C 
HETATM   17  H16 UNL     1      27.734   8.757  50.260  1.00  0.00     0.158 HD
HETATM   18  C15 UNL     1      27.439   6.028  48.375  1.00  0.00     0.055 C 
ENDBRANCH  12  13
ENDBRANCH  11  12
ENDBRANCH   8  11
ENDBRANCH   5   7
BRANCH   4  19
HETATM   19  C7  UNL     1      22.959   1.123  52.596  1.00  0.00     0.069 C 
BRANCH  19  20
HETATM   20  P1  UNL     1      21.756   0.153  53.618  1.00  0.00    -0.137 P 
HETATM   21  H8  UNL     1      20.445   0.101  53.007  1.00  0.00     0.054 HD
HETATM   22  H9  UNL     1      21.603   0.714  54.947  1.00  0.00     0.054 HD
ENDBRANCH  19  20
ENDBRANCH   4  19
BRANCH   1  23
HETATM   23  C2  UNL     1      28.203   0.475  54.619  1.00  0.00     0.293 C 
HETATM   24  O2  UNL     1      28.848   1.420  55.126  1.00  0.00    -0.259 OA
BRANCH  23  25
HETATM   25  O1  UNL     1      28.929  -0.701  54.642  1.00  0.00    -0.323 OA
HETATM   26  C1  UNL     1      29.588  -1.227  53.505  1.00  0.00     0.213 C 
ENDBRANCH  23  25
ENDBRANCH   1  23
TORSDOF 8
ENDMDL
MODEL 3
REMARK VINA RESULT:      -7.0      1.508      1.775
REMARK  8 active torsions:
REMARK  status: ('A' for Active; 'I' for Inactive)
REMARK    1  A    between atoms: O1_2  and  C2_3 
REMARK    2  A    between atoms: C2_3  and  C3_5 
REMARK    3  A    between atoms: C6_8  and  C7_9 
REMARK    4  A    between atoms: C7_9  and  P1_10 
REMARK    5  A    between atoms: C8_11  and  N1_12 
REMARK       I    between atoms: N1_12  and  C9_13 
REMARK    6  A    between atoms: C9_13  and  C10_15 
REMARK    7  A    between atoms: C10_15  and  C11_16 
REMARK    8  A    between atoms: C11_16  and  C12_17 
ROOT
HETATM    1  C3  UNL     1      25.256   0.606  53.692  1.00  0.00     0.041 A 
HETATM    2  C4  UNL     1      24.122  -0.166  53.608  1.00  0.00     0.018 A 
HETATM    3  C5  UNL     1      23.190   0.214  52.668  1.00  0.00     0.011 A 
HETATM    4  C6  UNL     1      23.362   1.303  51.844  1.00  0.00    -0.028 A 
HETATM    5  C8  UNL     1      24.490   2.083  51.918  1.00  0.00     0.042 A 
HETATM    6  C16 UNL     1      25.408   1.689  52.862  1.00  0.00     0.047 A 
ENDROOT
BRANCH   5   7
HETATM    7  N1  UNL     1      24.599   3.187  51.040  1.00  0.00    -0.327 N 
HETATM    8  C9  UNL     1      24.226   4.528  51.262  1.00  0.00     0.222 C 
HETATM    9  O3  UNL     1      23.718   4.878  52.356  1.00  0.00    -0.273 OA
HETATM   10  H10 UNL     1      24.990   3.083  50.101  1.00  0.00     0.169 HD
BRANCH   8  11
HETATM   11  C10 UNL     1      24.349   5.653  50.341  1.00  0.00     0.107 C 
BRANCH  11  12
HETATM   12  C11 UNL     1      24.845   5.253  48.975  1.00  0.00     0.044 C 
BRANCH  12  13
HETATM   13  C12 UNL     1      26.274   5.629  48.905  1.00  0.00    -0.063 C 
HETATM   14  C13 UNL     1      26.776   6.857  48.950  1.00  0.00     0.085 C 
HETATM   15  N2  UNL     1      28.215   6.845  48.855  1.00  0.00    -0.398 N 
HETATM   16  C14 UNL     1      28.612   5.498  48.479  1.00  0.00     0.123 C 
HETATM   17  H16 UNL     1      28.875   7.632  49.018  1.00  0.00     0.158 HD
HETATM   18  C15 UNL     1      27.413   4.651  48.772  1.00  0.00     0.055 C 
ENDBRANCH  12  13
ENDBRANCH  11  12
ENDBRANCH   8  11
ENDBRANCH   5   7
BRANCH   4  19
HETATM   19  C7  UNL     1      22.269   1.588  50.878  1.00  0.00     0.069 C 
BRANCH  19  20
HETATM   20  P1  UNL     1      20.826   2.453  51.653  1.00  0.00    -0.137 P 
HETATM   21  H8  UNL     1      19.933   3.013  50.661  1.00  0.00     0.054 HD
HETATM   22  H9  UNL     1      21.249   3.532  52.526  1.00  0.00     0.054 HD
ENDBRANCH  19  20
ENDBRANCH   4  19
BRANCH   1  23
HETATM   23  C2  UNL     1      26.255   0.242  54.661  1.00  0.00     0.293 C 
HETATM   24  O2  UNL     1      26.066  -0.687  55.478  1.00  0.00    -0.259 OA
BRANCH  23  25
HETATM   25  O1  UNL     1      27.499   0.820  54.834  1.00  0.00    -0.323 OA
HETATM   26  C1  UNL     1      28.708   0.085  54.789  1.00  0.00     0.213 C 
ENDBRANCH  23  25
ENDBRANCH   1  23
TORSDOF 8
ENDMDL
MODEL 4
REMARK VINA RESULT:      -7.0      3.605      7.253
REMARK  8 active torsions:
REMARK  status: ('A' for Active; 'I' for Inactive)
REMARK    1  A    between atoms: O1_2  and  C2_3 
REMARK    2  A    between atoms: C2_3  and  C3_5 
REMARK    3  A    between atoms: C6_8  and  C7_9 
REMARK    4  A    between atoms: C7_9  and  P1_10 
REMARK    5  A    between atoms: C8_11  and  N1_12 
REMARK       I    between atoms: N1_12  and  C9_13 
REMARK    6  A    between atoms: C9_13  and  C10_15 
REMARK    7  A    between atoms: C10_15  and  C11_16 
REMARK    8  A    between atoms: C11_16  and  C12_17 
ROOT
HETATM    1  C3  UNL     1      27.844   5.653  48.486  1.00  0.00     0.041 A 
HETATM    2  C4  UNL     1      26.804   6.547  48.400  1.00  0.00     0.018 A 
HETATM    3  C5  UNL     1      25.579   6.107  48.853  1.00  0.00     0.011 A 
HETATM    4  C6  UNL     1      25.383   4.846  49.368  1.00  0.00    -0.028 A 
HETATM    5  C8  UNL     1      26.414   3.943  49.458  1.00  0.00     0.042 A 
HETATM    6  C16 UNL     1      27.628   4.399  49.002  1.00  0.00     0.047 A 
ENDROOT
BRANCH   5   7
HETATM    7  N1  UNL     1      26.139   2.665  49.998  1.00  0.00    -0.327 N 
HETATM    8  C9  UNL     1      26.683   2.062  51.150  1.00  0.00     0.222 C 
HETATM    9  O3  UNL     1      27.533   2.666  51.849  1.00  0.00    -0.273 OA
HETATM   10  H10 UNL     1      25.470   2.032  49.554  1.00  0.00     0.169 HD
BRANCH   8  11
HETATM   11  C10 UNL     1      26.383   0.740  51.692  1.00  0.00     0.107 C 
BRANCH  11  12
HETATM   12  C11 UNL     1      26.934   0.525  53.078  1.00  0.00     0.044 C 
BRANCH  12  13
HETATM   13  C12 UNL     1      27.668  -0.759  53.059  1.00  0.00    -0.063 C 
HETATM   14  C13 UNL     1      27.151  -1.969  52.883  1.00  0.00     0.085 C 
HETATM   15  N2  UNL     1      28.167  -2.991  52.923  1.00  0.00    -0.398 N 
HETATM   16  C14 UNL     1      29.388  -2.368  53.406  1.00  0.00     0.123 C 
HETATM   17  H16 UNL     1      28.077  -3.994  52.664  1.00  0.00     0.158 HD
HETATM   18  C15 UNL     1      29.158  -0.898  53.238  1.00  0.00     0.055 C 
ENDBRANCH  12  13
ENDBRANCH  11  12
ENDBRANCH   8  11
ENDBRANCH   5   7
BRANCH   4  19
HETATM   19  C7  UNL     1      24.006   4.516  49.817  1.00  0.00     0.069 C 
BRANCH  19  20
HETATM   20  P1  UNL     1      23.519   5.407  51.367  1.00  0.00    -0.137 P 
HETATM   21  H8  UNL     1      23.490   6.843  51.181  1.00  0.00     0.054 HD
HETATM   22  H9  UNL     1      24.427   5.122  52.462  1.00  0.00     0.054 HD
ENDBRANCH  19  20
ENDBRANCH   4  19
BRANCH   1  23
HETATM   23  C2  UNL     1      29.141   6.074  48.024  1.00  0.00     0.293 C 
HETATM   24  O2  UNL     1      29.268   6.965  47.155  1.00  0.00    -0.259 OA
BRANCH  23  25
HETATM   25  O1  UNL     1      30.370   5.595  48.438  1.00  0.00    -0.323 OA
HETATM   26  C1  UNL     1      31.188   4.764  47.635  1.00  0.00     0.213 C 
ENDBRANCH  23  25
ENDBRANCH   1  23
TORSDOF 8
ENDMDL
MODEL 5
REMARK VINA RESULT:      -6.8      2.204      2.890
REMARK  8 active torsions:
REMARK  status: ('A' for Active; 'I' for Inactive)
REMARK    1  A    between atoms: O1_2  and  C2_3 
REMARK    2  A    between atoms: C2_3  and  C3_5 
REMARK    3  A    between atoms: C6_8  and  C7_9 
REMARK    4  A    between atoms: C7_9  and  P1_10 
REMARK    5  A    between atoms: C8_11  and  N1_12 
REMARK       I    between atoms: N1_12  and  C9_13 
REMARK    6  A    between atoms: C9_13  and  C10_15 
REMARK    7  A    between atoms: C10_15  and  C11_16 
REMARK    8  A    between atoms: C11_16  and  C12_17 
ROOT
HETATM    1  C3  UNL     1      25.452   0.802  53.624  1.00  0.00     0.041 A 
HETATM    2  C4  UNL     1      24.248   0.188  53.376  1.00  0.00     0.018 A 
HETATM    3  C5  UNL     1      23.450   0.771  52.416  1.00  0.00     0.011 A 
HETATM    4  C6  UNL     1      23.817   1.905  51.727  1.00  0.00    -0.028 A 
HETATM    5  C8  UNL     1      25.017   2.528  51.967  1.00  0.00     0.042 A 
HETATM    6  C16 UNL     1      25.799   1.933  52.927  1.00  0.00     0.047 A 
ENDROOT
BRANCH   5   7
HETATM    7  N1  UNL     1      25.328   3.689  51.222  1.00  0.00    -0.327 N 
HETATM    8  C9  UNL     1      26.111   3.802  50.055  1.00  0.00     0.222 C 
HETATM    9  O3  UNL     1      26.644   2.788  49.541  1.00  0.00    -0.273 OA
HETATM   10  H10 UNL     1      24.978   4.609  51.499  1.00  0.00     0.169 HD
BRANCH   8  11
HETATM   11  C10 UNL     1      26.418   5.012  49.300  1.00  0.00     0.107 C 
BRANCH  11  12
HETATM   12  C11 UNL     1      27.734   4.941  48.569  1.00  0.00     0.044 C 
BRANCH  12  13
HETATM   13  C12 UNL     1      28.045   6.310  48.102  1.00  0.00    -0.063 C 
HETATM   14  C13 UNL     1      27.181   7.299  47.904  1.00  0.00     0.085 C 
HETATM   15  N2  UNL     1      27.841   8.496  47.446  1.00  0.00    -0.398 N 
HETATM   16  C14 UNL     1      29.207   8.133  47.106  1.00  0.00     0.123 C 
HETATM   17  H16 UNL     1      27.445   9.454  47.362  1.00  0.00     0.158 HD
HETATM   18  C15 UNL     1      29.428   6.811  47.771  1.00  0.00     0.055 C 
ENDBRANCH  12  13
ENDBRANCH  11  12
ENDBRANCH   8  11
ENDBRANCH   5   7
BRANCH   4  19
HETATM   19  C7  UNL     1      22.851   2.414  50.720  1.00  0.00     0.069 C 
BRANCH  19  20
HETATM   20  P1  UNL     1      21.281   3.043  51.477  1.00  0.00    -0.137 P 
HETATM   21  H8  UNL     1      21.492   4.265  52.225  1.00  0.00     0.054 HD
HETATM   22  H9  UNL     1      20.688   2.072  52.376  1.00  0.00     0.054 HD
ENDBRANCH  19  20
ENDBRANCH   4  19
BRANCH   1  23
HETATM   23  C2  UNL     1      26.316   0.225  54.620  1.00  0.00     0.293 C 
HETATM   24  O2  UNL     1      26.003  -0.823  55.229  1.00  0.00    -0.259 OA
BRANCH  23  25
HETATM   25  O1  UNL     1      27.546   0.701  55.034  1.00  0.00    -0.323 OA
HETATM   26  C1  UNL     1      28.776   0.178  54.567  1.00  0.00     0.213 C 
ENDBRANCH  23  25
ENDBRANCH   1  23
TORSDOF 8
ENDMDL
MODEL 6
REMARK VINA RESULT:      -6.7      3.746      6.715
REMARK  8 active torsions:
REMARK  status: ('A' for Active; 'I' for Inactive)
REMARK    1  A    between atoms: O1_2  and  C2_3 
REMARK    2  A    between atoms: C2_3  and  C3_5 
REMARK    3  A    between atoms: C6_8  and  C7_9 
REMARK    4  A    between atoms: C7_9  and  P1_10 
REMARK    5  A    between atoms: C8_11  and  N1_12 
REMARK       I    between atoms: N1_12  and  C9_13 
REMARK    6  A    between atoms: C9_13  and  C10_15 
REMARK    7  A    between atoms: C10_15  and  C11_16 
REMARK    8  A    between atoms: C11_16  and  C12_17 
ROOT
HETATM    1  C3  UNL     1      26.309  -0.141  52.762  1.00  0.00     0.041 A 
HETATM    2  C4  UNL     1      26.743   0.833  51.895  1.00  0.00     0.018 A 
HETATM    3  C5  UNL     1      25.795   1.734  51.462  1.00  0.00     0.011 A 
HETATM    4  C6  UNL     1      24.479   1.683  51.862  1.00  0.00    -0.028 A 
HETATM    5  C8  UNL     1      24.033   0.714  52.727  1.00  0.00     0.042 A 
HETATM    6  C16 UNL     1      24.993  -0.175  53.148  1.00  0.00     0.047 A 
ENDROOT
BRANCH   5   7
HETATM    7  N1  UNL     1      22.668   0.723  53.096  1.00  0.00    -0.327 N 
HETATM    8  C9  UNL     1      21.822  -0.372  53.364  1.00  0.00     0.222 C 
HETATM    9  O3  UNL     1      22.254  -1.548  53.288  1.00  0.00    -0.273 OA
HETATM   10  H10 UNL     1      22.151   1.599  53.202  1.00  0.00     0.169 HD
BRANCH   8  11
HETATM   11  C10 UNL     1      20.414  -0.340  53.745  1.00  0.00     0.107 C 
BRANCH  11  12
HETATM   12  C11 UNL     1      19.494  -0.006  52.599  1.00  0.00     0.044 C 
BRANCH  12  13
HETATM   13  C12 UNL     1      18.272  -0.822  52.771  1.00  0.00    -0.063 C 
HETATM   14  C13 UNL     1      18.159  -1.948  53.465  1.00  0.00     0.085 C 
HETATM   15  N2  UNL     1      16.816  -2.470  53.414  1.00  0.00    -0.398 N 
HETATM   16  C14 UNL     1      16.098  -1.718  52.398  1.00  0.00     0.123 C 
HETATM   17  H16 UNL     1      16.405  -3.239  53.981  1.00  0.00     0.158 HD
HETATM   18  C15 UNL     1      16.928  -0.492  52.173  1.00  0.00     0.055 C 
ENDBRANCH  12  13
ENDBRANCH  11  12
ENDBRANCH   8  11
ENDBRANCH   5   7
BRANCH   4  19
HETATM   19  C7  UNL     1      23.575   2.725  51.311  1.00  0.00     0.069 C 
BRANCH  19  20
HETATM   20  P1  UNL     1      24.237   3.517  49.773  1.00  0.00    -0.137 P 
HETATM   21  H8  UNL     1      25.526   2.976  49.396  1.00  0.00     0.054 HD
HETATM   22  H9  UNL     1      24.388   4.952  49.927  1.00  0.00     0.054 HD
ENDBRANCH  19  20
ENDBRANCH   4  19
BRANCH   1  23
HETATM   23  C2  UNL     1      27.269  -1.102  53.238  1.00  0.00     0.293 C 
HETATM   24  O2  UNL     1      27.210  -2.307  52.903  1.00  0.00    -0.259 OA
BRANCH  23  25
HETATM   25  O1  UNL     1      28.337  -0.866  54.084  1.00  0.00    -0.323 OA
HETATM   26  C1  UNL     1      29.664  -0.689  53.624  1.00  0.00     0.213 C 
ENDBRANCH  23  25
ENDBRANCH   1  23
TORSDOF 8
ENDMDL
MODEL 7
REMARK VINA RESULT:      -6.6      1.933      2.551
REMARK  8 active torsions:
REMARK  status: ('A' for Active; 'I' for Inactive)
REMARK    1  A    between atoms: O1_2  and  C2_3 
REMARK    2  A    between atoms: C2_3  and  C3_5 
REMARK    3  A    between atoms: C6_8  and  C7_9 
REMARK    4  A    between atoms: C7_9  and  P1_10 
REMARK    5  A    between atoms: C8_11  and  N1_12 
REMARK       I    between atoms: N1_12  and  C9_13 
REMARK    6  A    between atoms: C9_13  and  C10_15 
REMARK    7  A    between atoms: C10_15  and  C11_16 
REMARK    8  A    between atoms: C11_16  and  C12_17 
ROOT
HETATM    1  C3  UNL     1      26.158  -0.462  53.100  1.00  0.00     0.041 A 
HETATM    2  C4  UNL     1      25.023  -0.763  53.814  1.00  0.00     0.018 A 
HETATM    3  C5  UNL     1      23.913   0.009  53.554  1.00  0.00     0.011 A 
HETATM    4  C6  UNL     1      23.914   1.032  52.633  1.00  0.00    -0.028 A 
HETATM    5  C8  UNL     1      25.042   1.344  51.914  1.00  0.00     0.042 A 
HETATM    6  C16 UNL     1      26.139   0.563  52.187  1.00  0.00     0.047 A 
ENDROOT
BRANCH   5   7
HETATM    7  N1  UNL     1      24.970   2.407  50.985  1.00  0.00    -0.327 N 
HETATM    8  C9  UNL     1      26.009   3.233  50.511  1.00  0.00     0.222 C 
HETATM    9  O3  UNL     1      27.187   3.075  50.915  1.00  0.00    -0.273 OA
HETATM   10  H10 UNL     1      24.083   2.678  50.553  1.00  0.00     0.169 HD
BRANCH   8  11
HETATM   11  C10 UNL     1      25.913   4.326  49.548  1.00  0.00     0.107 C 
BRANCH  11  12
HETATM   12  C11 UNL     1      24.492   4.703  49.216  1.00  0.00     0.044 C 
BRANCH  12  13
HETATM   13  C12 UNL     1      24.246   6.034  49.814  1.00  0.00    -0.063 C 
HETATM   14  C13 UNL     1      24.282   6.345  51.104  1.00  0.00     0.085 C 
HETATM   15  N2  UNL     1      23.991   7.740  51.322  1.00  0.00    -0.398 N 
HETATM   16  C14 UNL     1      23.497   8.280  50.065  1.00  0.00     0.123 C 
HETATM   17  H16 UNL     1      24.101   8.289  52.198  1.00  0.00     0.158 HD
HETATM   18  C15 UNL     1      23.909   7.277  49.032  1.00  0.00     0.055 C 
ENDBRANCH  12  13
ENDBRANCH  11  12
ENDBRANCH   8  11
ENDBRANCH   5   7
BRANCH   4  19
HETATM   19  C7  UNL     1      22.639   1.775  52.462  1.00  0.00     0.069 C 
BRANCH  19  20
HETATM   20  P1  UNL     1      21.393   0.849  51.451  1.00  0.00    -0.137 P 
HETATM   21  H8  UNL     1      20.083   1.464  51.508  1.00  0.00     0.054 HD
HETATM   22  H9  UNL     1      21.255  -0.526  51.892  1.00  0.00     0.054 HD
ENDBRANCH  19  20
ENDBRANCH   4  19
BRANCH   1  23
HETATM   23  C2  UNL     1      27.341  -1.246  53.341  1.00  0.00     0.293 C 
HETATM   24  O2  UNL     1      27.514  -2.356  52.789  1.00  0.00    -0.259 OA
BRANCH  23  25
HETATM   25  O1  UNL     1      28.403  -0.922  54.165  1.00  0.00    -0.323 OA
HETATM   26  C1  UNL     1      28.623   0.383  54.667  1.00  0.00     0.213 C 
ENDBRANCH  23  25
ENDBRANCH   1  23
TORSDOF 8
ENDMDL
MODEL 8
REMARK VINA RESULT:      -6.4      3.209      6.841
REMARK  8 active torsions:
REMARK  status: ('A' for Active; 'I' for Inactive)
REMARK    1  A    between atoms: O1_2  and  C2_3 
REMARK    2  A    between atoms: C2_3  and  C3_5 
REMARK    3  A    between atoms: C6_8  and  C7_9 
REMARK    4  A    between atoms: C7_9  and  P1_10 
REMARK    5  A    between atoms: C8_11  and  N1_12 
REMARK       I    between atoms: N1_12  and  C9_13 
REMARK    6  A    between atoms: C9_13  and  C10_15 
REMARK    7  A    between atoms: C10_15  and  C11_16 
REMARK    8  A    between atoms: C11_16  and  C12_17 
ROOT
HETATM    1  C3  UNL     1      27.539   5.479  48.574  1.00  0.00     0.041 A 
HETATM    2  C4  UNL     1      26.498   6.367  48.450  1.00  0.00     0.018 A 
HETATM    3  C5  UNL     1      25.276   5.949  48.930  1.00  0.00     0.011 A 
HETATM    4  C6  UNL     1      25.084   4.715  49.509  1.00  0.00    -0.028 A 
HETATM    5  C8  UNL     1      26.116   3.819  49.638  1.00  0.00     0.042 A 
HETATM    6  C16 UNL     1      27.327   4.253  49.153  1.00  0.00     0.047 A 
ENDROOT
BRANCH   5   7
HETATM    7  N1  UNL     1      25.845   2.570  50.244  1.00  0.00    -0.327 N 
HETATM    8  C9  UNL     1      26.515   1.949  51.318  1.00  0.00     0.222 C 
HETATM    9  O3  UNL     1      27.495   2.507  51.869  1.00  0.00    -0.273 OA
HETATM   10  H10 UNL     1      25.080   1.975  49.918  1.00  0.00     0.169 HD
BRANCH   8  11
HETATM   11  C10 UNL     1      26.217   0.658  51.929  1.00  0.00     0.107 C 
BRANCH  11  12
HETATM   12  C11 UNL     1      25.689   0.772  53.336  1.00  0.00     0.044 C 
BRANCH  12  13
HETATM   13  C12 UNL     1      24.213   0.724  53.250  1.00  0.00    -0.063 C 
HETATM   14  C13 UNL     1      23.405   1.707  52.872  1.00  0.00     0.085 C 
HETATM   15  N2  UNL     1      22.022   1.302  52.909  1.00  0.00    -0.398 N 
HETATM   16  C14 UNL     1      21.964   0.025  53.602  1.00  0.00     0.123 C 
HETATM   17  H16 UNL     1      21.196   1.803  52.524  1.00  0.00     0.158 HD
HETATM   18  C15 UNL     1      23.373  -0.482  53.584  1.00  0.00     0.055 C 
ENDBRANCH  12  13
ENDBRANCH  11  12
ENDBRANCH   8  11
ENDBRANCH   5   7
BRANCH   4  19
HETATM   19  C7  UNL     1      23.709   4.408  49.982  1.00  0.00     0.069 C 
BRANCH  19  20
HETATM   20  P1  UNL     1      23.077   5.638  51.215  1.00  0.00    -0.137 P 
HETATM   21  H8  UNL     1      23.789   5.560  52.473  1.00  0.00     0.054 HD
HETATM   22  H9  UNL     1      21.667   5.448  51.493  1.00  0.00     0.054 HD
ENDBRANCH  19  20
ENDBRANCH   4  19
BRANCH   1  23
HETATM   23  C2  UNL     1      28.833   5.876  48.085  1.00  0.00     0.293 C 
HETATM   24  O2  UNL     1      28.965   6.829  47.283  1.00  0.00    -0.259 OA
BRANCH  23  25
HETATM   25  O1  UNL     1      30.054   5.311  48.400  1.00  0.00    -0.323 OA
HETATM   26  C1  UNL     1      31.216   6.075  48.668  1.00  0.00     0.213 C 
ENDBRANCH  23  25
ENDBRANCH   1  23
TORSDOF 8
ENDMDL
MODEL 9
REMARK VINA RESULT:      -6.3      4.165      7.316
REMARK  8 active torsions:
REMARK  status: ('A' for Active; 'I' for Inactive)
REMARK    1  A    between atoms: O1_2  and  C2_3 
REMARK    2  A    between atoms: C2_3  and  C3_5 
REMARK    3  A    between atoms: C6_8  and  C7_9 
REMARK    4  A    between atoms: C7_9  and  P1_10 
REMARK    5  A    between atoms: C8_11  and  N1_12 
REMARK       I    between atoms: N1_12  and  C9_13 
REMARK    6  A    between atoms: C9_13  and  C10_15 
REMARK    7  A    between atoms: C10_15  and  C11_16 
REMARK    8  A    between atoms: C11_16  and  C12_17 
ROOT
HETATM    1  C3  UNL     1      25.152   0.614  53.359  1.00  0.00     0.041 A 
HETATM    2  C4  UNL     1      25.425   1.786  52.696  1.00  0.00     0.018 A 
HETATM    3  C5  UNL     1      24.402   2.314  51.938  1.00  0.00     0.011 A 
HETATM    4  C6  UNL     1      23.165   1.719  51.837  1.00  0.00    -0.028 A 
HETATM    5  C8  UNL     1      22.880   0.547  52.494  1.00  0.00     0.042 A 
HETATM    6  C16 UNL     1      23.912   0.036  53.244  1.00  0.00     0.047 A 
ENDROOT
BRANCH   5   7
HETATM    7  N1  UNL     1      21.588  -0.007  52.344  1.00  0.00    -0.327 N 
HETATM    8  C9  UNL     1      20.517  -0.003  53.261  1.00  0.00     0.222 C 
HETATM    9  O3  UNL     1      20.640   0.541  54.386  1.00  0.00    -0.273 OA
HETATM   10  H10 UNL     1      21.313  -0.492  51.487  1.00  0.00     0.169 HD
BRANCH   8  11
HETATM   11  C10 UNL     1      19.188  -0.579  53.084  1.00  0.00     0.107 C 
BRANCH  11  12
HETATM   12  C11 UNL     1      19.008  -1.892  53.802  1.00  0.00     0.044 C 
BRANCH  12  13
HETATM   13  C12 UNL     1      17.687  -2.426  53.404  1.00  0.00    -0.063 C 
HETATM   14  C13 UNL     1      16.692  -1.750  52.843  1.00  0.00     0.085 C 
HETATM   15  N2  UNL     1      15.551  -2.596  52.593  1.00  0.00    -0.398 N 
HETATM   16  C14 UNL     1      15.786  -3.854  53.283  1.00  0.00     0.123 C 
HETATM   17  H16 UNL     1      14.704  -2.379  52.031  1.00  0.00     0.158 HD
HETATM   18  C15 UNL     1      17.254  -3.860  53.576  1.00  0.00     0.055 C 
ENDBRANCH  12  13
ENDBRANCH  11  12
ENDBRANCH   8  11
ENDBRANCH   5   7
BRANCH   4  19
HETATM   19  C7  UNL     1      22.163   2.407  50.983  1.00  0.00     0.069 C 
BRANCH  19  20
HETATM   20  P1  UNL     1      21.249   3.747  51.879  1.00  0.00    -0.137 P 
HETATM   21  H8  UNL     1      20.728   4.748  50.972  1.00  0.00     0.054 HD
HETATM   22  H9  UNL     1      22.093   4.423  52.846  1.00  0.00     0.054 HD
ENDBRANCH  19  20
ENDBRANCH   4  19
BRANCH   1  23
HETATM   23  C2  UNL     1      26.194   0.030  54.162  1.00  0.00     0.293 C 
HETATM   24  O2  UNL     1      26.498   0.500  55.282  1.00  0.00    -0.259 OA
BRANCH  23  25
HETATM   25  O1  UNL     1      26.971  -1.069  53.849  1.00  0.00    -0.323 OA
HETATM   26  C1  UNL     1      26.870  -1.765  52.620  1.00  0.00     0.213 C 
ENDBRANCH  23  25
ENDBRANCH   1  23
TORSDOF 8
ENDMDL
