MODEL 1
REMARK VINA RESULT:      -8.3      0.000      0.000
REMARK  2 active torsions:
REMARK  status: ('A' for Active; 'I' for Inactive)
REMARK    1  A    between atoms: C12_14  and  C13_15 
REMARK    2  A    between atoms: C13_15  and  O2_16 
ROOT
HETATM    1  C1  UNL     1      19.495   0.027  52.487  1.00  0.00     0.046 C 
HETATM    2  C2  UNL     1      20.691   0.241  51.560  1.00  0.00     0.159 C 
HETATM    3  C3  UNL     1      21.894   0.514  52.248  1.00  0.00    -0.051 C 
HETATM    4  C4  UNL     1      22.893   0.743  52.798  1.00  0.00     0.062 C 
HETATM    5  O1  UNL     1      24.030   1.014  53.399  1.00  0.00    -0.259 OA
HETATM    6  C5  UNL     1      25.206   1.344  52.677  1.00  0.00     0.107 C 
HETATM    7  C6  UNL     1      26.211   0.314  52.764  1.00  0.00     0.001 A 
HETATM    8  C7  UNL     1      25.806  -1.003  52.508  1.00  0.00     0.014 A 
HETATM    9  C8  UNL     1      26.640  -2.118  52.568  1.00  0.00     0.002 A 
HETATM   10  C9  UNL     1      27.962  -1.910  52.904  1.00  0.00     0.019 A 
HETATM   11  C10 UNL     1      28.353  -0.619  53.155  1.00  0.00     0.011 A 
HETATM   12 BR1  UNL     1      30.170  -0.246  53.622  1.00  0.00    -0.051 Br
HETATM   13  C11 UNL     1      27.560   0.500  53.106  1.00  0.00     0.033 A 
HETATM   14  C12 UNL     1      25.573   2.397  51.948  1.00  0.00     0.018 C 
HETATM   15  C14 UNL     1      24.554   3.474  51.859  1.00  0.00     0.128 C 
HETATM   16  N1  UNL     1      23.404   3.424  52.430  1.00  0.00    -0.276 NA
HETATM   17  C15 UNL     1      22.381   4.367  52.413  1.00  0.00     0.098 C 
HETATM   18  C16 UNL     1      21.274   3.960  51.865  1.00  0.00     0.062 C 
HETATM   19  C17 UNL     1      19.968   3.735  51.314  1.00  0.00     0.001 C 
HETATM   20  C18 UNL     1      19.838   2.516  50.814  1.00  0.00     0.080 C 
HETATM   21  N2  UNL     1      20.352   1.230  50.522  1.00  0.00    -0.385 N 
HETATM   22  H17 UNL     1      20.529   0.927  49.514  1.00  0.00     0.160 HD
ENDROOT
BRANCH  14  23
HETATM   23  C13 UNL     1      26.799   2.741  51.188  1.00  0.00     0.207 C 
BRANCH  23  24
HETATM   24  O2  UNL     1      26.571   3.957  50.547  1.00  0.00    -0.396 OA
HETATM   25  H11 UNL     1      26.354   3.761  49.593  1.00  0.00     0.209 HD
ENDBRANCH  23  24
ENDBRANCH  14  23
TORSDOF 2
ENDMDL
MODEL 2
REMARK VINA RESULT:      -8.1      6.774     10.136
REMARK  2 active torsions:
REMARK  status: ('A' for Active; 'I' for Inactive)
REMARK    1  A    between atoms: C12_14  and  C13_15 
REMARK    2  A    between atoms: C13_15  and  O2_16 
ROOT
HETATM    1  C1  UNL     1      32.817   4.655  47.210  1.00  0.00     0.046 C 
HETATM    2  C2  UNL     1      32.013   5.150  48.412  1.00  0.00     0.159 C 
HETATM    3  C3  UNL     1      30.724   5.618  48.071  1.00  0.00    -0.051 C 
HETATM    4  C4  UNL     1      29.662   6.010  47.809  1.00  0.00     0.062 C 
HETATM    5  O1  UNL     1      28.461   6.468  47.532  1.00  0.00    -0.259 OA
HETATM    6  C5  UNL     1      27.633   7.062  48.520  1.00  0.00     0.107 C 
HETATM    7  C6  UNL     1      26.487   6.247  48.838  1.00  0.00     0.001 A 
HETATM    8  C7  UNL     1      26.716   4.892  49.110  1.00  0.00     0.014 A 
HETATM    9  C8  UNL     1      25.724   3.963  49.414  1.00  0.00     0.002 A 
HETATM   10  C9  UNL     1      24.419   4.409  49.449  1.00  0.00     0.019 A 
HETATM   11  C10 UNL     1      24.199   5.737  49.181  1.00  0.00     0.011 A 
HETATM   12 BR1  UNL     1      22.420   6.436  49.215  1.00  0.00    -0.051 Br
HETATM   13  C11 UNL     1      25.151   6.678  48.878  1.00  0.00     0.033 A 
HETATM   14  C12 UNL     1      27.692   8.204  49.203  1.00  0.00     0.018 C 
HETATM   15  C14 UNL     1      28.859   9.062  48.878  1.00  0.00     0.128 C 
HETATM   16  N1  UNL     1      29.756   8.755  48.011  1.00  0.00    -0.276 NA
HETATM   17  C15 UNL     1      30.883   9.477  47.630  1.00  0.00     0.098 C 
HETATM   18  C16 UNL     1      32.017   8.889  47.880  1.00  0.00     0.062 C 
HETATM   19  C17 UNL     1      33.369   8.441  48.056  1.00  0.00     0.001 C 
HETATM   20  C18 UNL     1      33.431   7.249  48.628  1.00  0.00     0.080 C 
HETATM   21  N2  UNL     1      32.815   6.107  49.194  1.00  0.00    -0.385 N 
HETATM   22  H17 UNL     1      32.901   5.899  50.238  1.00  0.00     0.160 HD
ENDROOT
BRANCH  14  23
HETATM   23  C13 UNL     1      26.830   8.824  50.239  1.00  0.00     0.207 C 
BRANCH  23  24
HETATM   24  O2  UNL     1      27.661   9.512  51.121  1.00  0.00    -0.396 OA
HETATM   25  H11 UNL     1      28.421   8.909  51.355  1.00  0.00     0.209 HD
ENDBRANCH  23  24
ENDBRANCH  14  23
TORSDOF 2
ENDMDL
MODEL 3
REMARK VINA RESULT:      -8.1      4.860      7.597
REMARK  2 active torsions:
REMARK  status: ('A' for Active; 'I' for Inactive)
REMARK    1  A    between atoms: C12_14  and  C13_15 
REMARK    2  A    between atoms: C13_15  and  O2_16 
ROOT
HETATM    1  C1  UNL     1      30.877   5.997  47.329  1.00  0.00     0.046 C 
HETATM    2  C2  UNL     1      30.070   6.205  48.610  1.00  0.00     0.159 C 
HETATM    3  C3  UNL     1      28.819   5.549  48.598  1.00  0.00    -0.051 C 
HETATM    4  C4  UNL     1      27.784   5.019  48.605  1.00  0.00     0.062 C 
HETATM    5  O1  UNL     1      26.606   4.436  48.628  1.00  0.00    -0.259 OA
HETATM    6  C5  UNL     1      25.692   4.622  49.699  1.00  0.00     0.107 C 
HETATM    7  C6  UNL     1      25.522   3.427  50.488  1.00  0.00     0.001 A 
HETATM    8  C7  UNL     1      26.681   2.766  50.914  1.00  0.00     0.014 A 
HETATM    9  C8  UNL     1      26.698   1.592  51.664  1.00  0.00     0.002 A 
HETATM   10  C9  UNL     1      25.483   1.040  52.013  1.00  0.00     0.019 A 
HETATM   11  C10 UNL     1      24.350   1.690  51.593  1.00  0.00     0.011 A 
HETATM   12 BR1  UNL     1      22.627   0.992  52.040  1.00  0.00    -0.051 Br
HETATM   13  C11 UNL     1      24.297   2.845  50.855  1.00  0.00     0.033 A 
HETATM   14  C12 UNL     1      24.966   5.657  50.119  1.00  0.00     0.018 C 
HETATM   15  C14 UNL     1      25.119   6.891  49.309  1.00  0.00     0.128 C 
HETATM   16  N1  UNL     1      25.883   6.984  48.279  1.00  0.00    -0.276 NA
HETATM   17  C15 UNL     1      26.102   8.083  47.453  1.00  0.00     0.098 C 
HETATM   18  C16 UNL     1      27.326   8.525  47.448  1.00  0.00     0.062 C 
HETATM   19  C17 UNL     1      28.592   9.179  47.283  1.00  0.00     0.001 C 
HETATM   20  C18 UNL     1      29.545   8.618  48.011  1.00  0.00     0.080 C 
HETATM   21  N2  UNL     1      29.995   7.641  48.930  1.00  0.00    -0.385 N 
HETATM   22  H17 UNL     1      30.293   7.914  49.918  1.00  0.00     0.160 HD
ENDROOT
BRANCH  14  23
HETATM   23  C13 UNL     1      24.015   5.854  51.240  1.00  0.00     0.207 C 
BRANCH  23  24
HETATM   24  O2  UNL     1      24.504   6.894  52.028  1.00  0.00    -0.396 OA
HETATM   25  H11 UNL     1      24.921   6.489  52.839  1.00  0.00     0.209 HD
ENDBRANCH  23  24
ENDBRANCH  14  23
TORSDOF 2
ENDMDL
MODEL 4
REMARK VINA RESULT:      -8.1      1.659      3.635
REMARK  2 active torsions:
REMARK  status: ('A' for Active; 'I' for Inactive)
REMARK    1  A    between atoms: C12_14  and  C13_15 
REMARK    2  A    between atoms: C13_15  and  O2_16 
ROOT
HETATM    1  C1  UNL     1      21.913   4.991  50.307  1.00  0.00     0.046 C 
HETATM    2  C2  UNL     1      22.309   4.412  51.665  1.00  0.00     0.159 C 
HETATM    3  C3  UNL     1      23.168   3.294  51.570  1.00  0.00    -0.051 C 
HETATM    4  C4  UNL     1      23.872   2.370  51.511  1.00  0.00     0.062 C 
HETATM    5  O1  UNL     1      24.660   1.319  51.465  1.00  0.00    -0.259 OA
HETATM    6  C5  UNL     1      25.030   0.602  52.633  1.00  0.00     0.107 C 
HETATM    7  C6  UNL     1      26.426   0.763  52.958  1.00  0.00     0.001 A 
HETATM    8  C7  UNL     1      26.936   2.068  52.976  1.00  0.00     0.014 A 
HETATM    9  C8  UNL     1      28.260   2.401  53.249  1.00  0.00     0.002 A 
HETATM   10  C9  UNL     1      29.135   1.369  53.521  1.00  0.00     0.019 A 
HETATM   11  C10 UNL     1      28.632   0.093  53.500  1.00  0.00     0.011 A 
HETATM   12 BR1  UNL     1      29.778  -1.392  53.872  1.00  0.00    -0.051 Br
HETATM   13  C11 UNL     1      27.336  -0.270  53.236  1.00  0.00     0.033 A 
HETATM   14  C12 UNL     1      24.365  -0.183  53.479  1.00  0.00     0.018 C 
HETATM   15  C14 UNL     1      22.929  -0.371  53.152  1.00  0.00     0.128 C 
HETATM   16  N1  UNL     1      22.347   0.166  52.140  1.00  0.00    -0.276 NA
HETATM   17  C15 UNL     1      21.017   0.060  51.742  1.00  0.00     0.098 C 
HETATM   18  C16 UNL     1      20.356   1.181  51.748  1.00  0.00     0.062 C 
HETATM   19  C17 UNL     1      19.437   2.281  51.676  1.00  0.00     0.001 C 
HETATM   20  C18 UNL     1      19.997   3.425  52.036  1.00  0.00     0.080 C 
HETATM   21  N2  UNL     1      21.106   4.180  52.484  1.00  0.00    -0.385 N 
HETATM   22  H17 UNL     1      21.118   4.611  53.461  1.00  0.00     0.160 HD
ENDROOT
BRANCH  14  23
HETATM   23  C13 UNL     1      24.748  -0.930  54.702  1.00  0.00     0.207 C 
BRANCH  23  24
HETATM   24  O2  UNL     1      23.574  -1.307  55.350  1.00  0.00    -0.396 OA
HETATM   25  H11 UNL     1      23.426  -2.277  55.168  1.00  0.00     0.209 HD
ENDBRANCH  23  24
ENDBRANCH  14  23
TORSDOF 2
ENDMDL
MODEL 5
REMARK VINA RESULT:      -7.7      2.765      5.048
REMARK  2 active torsions:
REMARK  status: ('A' for Active; 'I' for Inactive)
REMARK    1  A    between atoms: C12_14  and  C13_15 
REMARK    2  A    between atoms: C13_15  and  O2_16 
ROOT
HETATM    1  C1  UNL     1      17.939   4.260  49.632  1.00  0.00     0.046 C 
HETATM    2  C2  UNL     1      18.390   3.932  51.055  1.00  0.00     0.159 C 
HETATM    3  C3  UNL     1      19.409   2.955  51.109  1.00  0.00    -0.051 C 
HETATM    4  C4  UNL     1      20.245   2.149  51.174  1.00  0.00     0.062 C 
HETATM    5  O1  UNL     1      21.182   1.232  51.269  1.00  0.00    -0.259 OA
HETATM    6  C5  UNL     1      21.632   0.739  52.522  1.00  0.00     0.107 C 
HETATM    7  C6  UNL     1      22.981   1.152  52.822  1.00  0.00     0.001 A 
HETATM    8  C7  UNL     1      23.289   2.509  52.666  1.00  0.00     0.014 A 
HETATM    9  C8  UNL     1      24.543   3.072  52.892  1.00  0.00     0.002 A 
HETATM   10  C9  UNL     1      25.557   2.230  53.298  1.00  0.00     0.019 A 
HETATM   11  C10 UNL     1      25.251   0.901  53.448  1.00  0.00     0.011 A 
HETATM   12 BR1  UNL     1      26.600  -0.331  54.015  1.00  0.00    -0.051 Br
HETATM   13  C11 UNL     1      24.030   0.314  53.235  1.00  0.00     0.033 A 
HETATM   14  C12 UNL     1      21.075  -0.019  53.465  1.00  0.00     0.018 C 
HETATM   15  C14 UNL     1      19.691  -0.463  53.166  1.00  0.00     0.128 C 
HETATM   16  N1  UNL     1      19.055  -0.159  52.092  1.00  0.00    -0.276 NA
HETATM   17  C15 UNL     1      17.765  -0.517  51.711  1.00  0.00     0.098 C 
HETATM   18  C16 UNL     1      16.943   0.482  51.568  1.00  0.00     0.062 C 
HETATM   19  C17 UNL     1      15.871   1.411  51.350  1.00  0.00     0.001 C 
HETATM   20  C18 UNL     1      16.245   2.663  51.554  1.00  0.00     0.080 C 
HETATM   21  N2  UNL     1      17.219   3.631  51.897  1.00  0.00    -0.385 N 
HETATM   22  H17 UNL     1      17.147   4.183  52.808  1.00  0.00     0.160 HD
ENDROOT
BRANCH  14  23
HETATM   23  C13 UNL     1      21.542  -0.531  54.777  1.00  0.00     0.207 C 
BRANCH  23  24
HETATM   24  O2  UNL     1      20.986  -1.795  54.957  1.00  0.00    -0.396 OA
HETATM   25  H11 UNL     1      20.003  -1.679  55.084  1.00  0.00     0.209 HD
ENDBRANCH  23  24
ENDBRANCH  14  23
TORSDOF 2
ENDMDL
MODEL 6
REMARK VINA RESULT:      -7.5      1.927      2.537
REMARK  2 active torsions:
REMARK  status: ('A' for Active; 'I' for Inactive)
REMARK    1  A    between atoms: C12_14  and  C13_15 
REMARK    2  A    between atoms: C13_15  and  O2_16 
ROOT
HETATM    1  C1  UNL     1      18.559   3.676  51.492  1.00  0.00     0.046 C 
HETATM    2  C2  UNL     1      19.754   3.010  50.811  1.00  0.00     0.159 C 
HETATM    3  C3  UNL     1      20.957   3.132  51.543  1.00  0.00    -0.051 C 
HETATM    4  C4  UNL     1      21.957   3.226  52.128  1.00  0.00     0.062 C 
HETATM    5  O1  UNL     1      23.099   3.330  52.770  1.00  0.00    -0.259 OA
HETATM    6  C5  UNL     1      24.320   2.861  52.219  1.00  0.00     0.107 C 
HETATM    7  C6  UNL     1      24.832   1.709  52.921  1.00  0.00     0.001 A 
HETATM    8  C7  UNL     1      23.941   0.655  53.164  1.00  0.00     0.014 A 
HETATM    9  C8  UNL     1      24.263  -0.517  53.843  1.00  0.00     0.002 A 
HETATM   10  C9  UNL     1      25.554  -0.651  54.311  1.00  0.00     0.019 A 
HETATM   11  C10 UNL     1      26.422   0.384  54.072  1.00  0.00     0.011 A 
HETATM   12 BR1  UNL     1      28.231   0.274  54.683  1.00  0.00    -0.051 Br
HETATM   13  C11 UNL     1      26.139   1.551  53.408  1.00  0.00     0.033 A 
HETATM   14  C12 UNL     1      25.084   3.260  51.204  1.00  0.00     0.018 C 
HETATM   15  C14 UNL     1      24.578   4.452  50.478  1.00  0.00     0.128 C 
HETATM   16  N1  UNL     1      23.495   5.072  50.784  1.00  0.00    -0.276 NA
HETATM   17  C15 UNL     1      22.931   6.191  50.177  1.00  0.00     0.098 C 
HETATM   18  C16 UNL     1      21.760   5.989  49.645  1.00  0.00     0.062 C 
HETATM   19  C17 UNL     1      20.480   6.005  48.996  1.00  0.00     0.001 C 
HETATM   20  C18 UNL     1      19.885   4.824  49.036  1.00  0.00     0.080 C 
HETATM   21  N2  UNL     1      19.850   3.460  49.411  1.00  0.00    -0.385 N 
HETATM   22  H17 UNL     1      19.906   2.687  48.677  1.00  0.00     0.160 HD
ENDROOT
BRANCH  14  23
HETATM   23  C13 UNL     1      26.357   2.767  50.623  1.00  0.00     0.207 C 
BRANCH  23  24
HETATM   24  O2  UNL     1      27.186   3.870  50.429  1.00  0.00    -0.396 OA
HETATM   25  H11 UNL     1      27.423   3.905  49.461  1.00  0.00     0.209 HD
ENDBRANCH  23  24
ENDBRANCH  14  23
TORSDOF 2
ENDMDL
MODEL 7
REMARK VINA RESULT:      -7.5      3.671      5.891
REMARK  2 active torsions:
REMARK  status: ('A' for Active; 'I' for Inactive)
REMARK    1  A    between atoms: C12_14  and  C13_15 
REMARK    2  A    between atoms: C13_15  and  O2_16 
ROOT
HETATM    1  C1  UNL     1      27.906   5.013  48.350  1.00  0.00     0.046 C 
HETATM    2  C2  UNL     1      27.017   5.210  49.577  1.00  0.00     0.159 C 
HETATM    3  C3  UNL     1      25.998   4.237  49.694  1.00  0.00    -0.051 C 
HETATM    4  C4  UNL     1      25.151   3.448  49.804  1.00  0.00     0.062 C 
HETATM    5  O1  UNL     1      24.181   2.572  49.941  1.00  0.00    -0.259 OA
HETATM    6  C5  UNL     1      23.205   2.680  50.966  1.00  0.00     0.107 C 
HETATM    7  C6  UNL     1      23.337   1.645  51.961  1.00  0.00     0.001 A 
HETATM    8  C7  UNL     1      24.614   1.422  52.492  1.00  0.00     0.014 A 
HETATM    9  C8  UNL     1      24.922   0.453  53.444  1.00  0.00     0.002 A 
HETATM   10  C9  UNL     1      23.893  -0.348  53.896  1.00  0.00     0.019 A 
HETATM   11  C10 UNL     1      22.645  -0.127  53.372  1.00  0.00     0.011 A 
HETATM   12 BR1  UNL     1      21.164  -1.191  53.951  1.00  0.00    -0.051 Br
HETATM   13  C11 UNL     1      22.307   0.817  52.436  1.00  0.00     0.033 A 
HETATM   14  C12 UNL     1      22.202   3.526  51.195  1.00  0.00     0.018 C 
HETATM   15  C14 UNL     1      22.044   4.591  50.172  1.00  0.00     0.128 C 
HETATM   16  N1  UNL     1      22.797   4.711  49.137  1.00  0.00    -0.276 NA
HETATM   17  C15 UNL     1      22.739   5.662  48.123  1.00  0.00     0.098 C 
HETATM   18  C16 UNL     1      23.792   6.422  48.030  1.00  0.00     0.062 C 
HETATM   19  C17 UNL     1      24.833   7.365  47.739  1.00  0.00     0.001 C 
HETATM   20  C18 UNL     1      25.870   7.232  48.551  1.00  0.00     0.080 C 
HETATM   21  N2  UNL     1      26.532   6.600  49.630  1.00  0.00    -0.385 N 
HETATM   22  H17 UNL     1      26.698   7.116  50.549  1.00  0.00     0.160 HD
ENDROOT
BRANCH  14  23
HETATM   23  C13 UNL     1      21.184   3.644  52.267  1.00  0.00     0.207 C 
BRANCH  23  24
HETATM   24  O2  UNL     1      19.935   3.723  51.656  1.00  0.00    -0.396 OA
HETATM   25  H11 UNL     1      19.323   4.206  52.278  1.00  0.00     0.209 HD
ENDBRANCH  23  24
ENDBRANCH  14  23
TORSDOF 2
ENDMDL
MODEL 8
REMARK VINA RESULT:      -7.4      3.971      6.909
REMARK  2 active torsions:
REMARK  status: ('A' for Active; 'I' for Inactive)
REMARK    1  A    between atoms: C12_14  and  C13_15 
REMARK    2  A    between atoms: C13_15  and  O2_16 
ROOT
HETATM    1  C1  UNL     1      26.138   1.566  51.578  1.00  0.00     0.046 C 
HETATM    2  C2  UNL     1      24.837   2.213  52.052  1.00  0.00     0.159 C 
HETATM    3  C3  UNL     1      23.681   1.626  51.491  1.00  0.00    -0.051 C 
HETATM    4  C4  UNL     1      22.719   1.157  51.036  1.00  0.00     0.062 C 
HETATM    5  O1  UNL     1      21.620   0.649  50.526  1.00  0.00    -0.259 OA
HETATM    6  C5  UNL     1      20.340   1.207  50.780  1.00  0.00     0.107 C 
HETATM    7  C6  UNL     1      19.521   0.352  51.603  1.00  0.00     0.001 A 
HETATM    8  C7  UNL     1      20.098  -0.160  52.773  1.00  0.00     0.014 A 
HETATM    9  C8  UNL     1      19.458  -1.014  53.668  1.00  0.00     0.002 A 
HETATM   10  C9  UNL     1      18.160  -1.384  53.381  1.00  0.00     0.019 A 
HETATM   11  C10 UNL     1      17.600  -0.882  52.233  1.00  0.00     0.011 A 
HETATM   12 BR1  UNL     1      15.803  -1.343  51.767  1.00  0.00    -0.051 Br
HETATM   13  C11 UNL     1      18.200  -0.040  51.332  1.00  0.00     0.033 A 
HETATM   14  C12 UNL     1      19.743   2.342  50.418  1.00  0.00     0.018 C 
HETATM   15  C14 UNL     1      20.568   3.229  49.559  1.00  0.00     0.128 C 
HETATM   16  N1  UNL     1      21.763   2.951  49.178  1.00  0.00    -0.276 NA
HETATM   17  C15 UNL     1      22.620   3.702  48.379  1.00  0.00     0.098 C 
HETATM   18  C16 UNL     1      23.718   4.083  48.967  1.00  0.00     0.062 C 
HETATM   19  C17 UNL     1      24.981   4.609  49.400  1.00  0.00     0.001 C 
HETATM   20  C18 UNL     1      25.247   4.299  50.658  1.00  0.00     0.080 C 
HETATM   21  N2  UNL     1      24.913   3.676  51.884  1.00  0.00    -0.385 N 
HETATM   22  H17 UNL     1      24.685   4.256  52.750  1.00  0.00     0.160 HD
ENDROOT
BRANCH  14  23
HETATM   23  C13 UNL     1      18.408   2.930  50.687  1.00  0.00     0.207 C 
BRANCH  23  24
HETATM   24  O2  UNL     1      18.488   3.620  51.895  1.00  0.00    -0.396 OA
HETATM   25  H11 UNL     1      18.021   4.493  51.777  1.00  0.00     0.209 HD
ENDBRANCH  23  24
ENDBRANCH  14  23
TORSDOF 2
ENDMDL
MODEL 9
REMARK VINA RESULT:      -7.4      3.496      5.493
REMARK  2 active torsions:
REMARK  status: ('A' for Active; 'I' for Inactive)
REMARK    1  A    between atoms: C12_14  and  C13_15 
REMARK    2  A    between atoms: C13_15  and  O2_16 
ROOT
HETATM    1  C1  UNL     1      25.111  -0.341  54.726  1.00  0.00     0.046 C 
HETATM    2  C2  UNL     1      24.755  -0.189  53.248  1.00  0.00     0.159 C 
HETATM    3  C3  UNL     1      24.570   1.154  52.850  1.00  0.00    -0.051 C 
HETATM    4  C4  UNL     1      24.410   2.253  52.506  1.00  0.00     0.062 C 
HETATM    5  O1  UNL     1      24.216   3.488  52.099  1.00  0.00    -0.259 OA
HETATM    6  C5  UNL     1      23.774   3.788  50.784  1.00  0.00     0.107 C 
HETATM    7  C6  UNL     1      24.796   4.431  49.994  1.00  0.00     0.001 A 
HETATM    8  C7  UNL     1      26.067   3.842  49.985  1.00  0.00     0.014 A 
HETATM    9  C8  UNL     1      27.170   4.340  49.295  1.00  0.00     0.002 A 
HETATM   10  C9  UNL     1      26.998   5.500  48.568  1.00  0.00     0.019 A 
HETATM   11  C10 UNL     1      25.751   6.074  48.581  1.00  0.00     0.011 A 
HETATM   12 BR1  UNL     1      25.429   7.680  47.594  1.00  0.00    -0.051 Br
HETATM   13  C11 UNL     1      24.646   5.611  49.248  1.00  0.00     0.033 A 
HETATM   14  C12 UNL     1      22.624   3.606  50.136  1.00  0.00     0.018 C 
HETATM   15  C14 UNL     1      21.557   2.958  50.938  1.00  0.00     0.128 C 
HETATM   16  N1  UNL     1      21.700   2.593  52.162  1.00  0.00    -0.276 NA
HETATM   17  C15 UNL     1      20.774   1.981  53.003  1.00  0.00     0.098 C 
HETATM   18  C16 UNL     1      21.111   0.791  53.409  1.00  0.00     0.062 C 
HETATM   19  C17 UNL     1      21.269  -0.516  53.979  1.00  0.00     0.001 C 
HETATM   20  C18 UNL     1      22.406  -1.087  53.615  1.00  0.00     0.080 C 
HETATM   21  N2  UNL     1      23.631  -1.079  52.907  1.00  0.00    -0.385 N 
HETATM   22  H17 UNL     1      23.786  -1.725  52.071  1.00  0.00     0.160 HD
ENDROOT
BRANCH  14  23
HETATM   23  C13 UNL     1      22.163   3.915  48.760  1.00  0.00     0.207 C 
BRANCH  23  24
HETATM   24  O2  UNL     1      22.443   2.807  47.964  1.00  0.00    -0.396 OA
HETATM   25  H11 UNL     1      21.670   2.673  47.347  1.00  0.00     0.209 HD
ENDBRANCH  23  24
ENDBRANCH  14  23
TORSDOF 2
ENDMDL
