MODEL 1
REMARK VINA RESULT:      -8.0      0.000      0.000
REMARK  4 active torsions:
REMARK  status: ('A' for Active; 'I' for Inactive)
REMARK    1  A    between atoms: N1_2  and  N2_3 
REMARK    2  A    between atoms: N1_2  and  N6_15 
REMARK    3  A    between atoms: N3_4  and  C2_5 
REMARK    4  A    between atoms: N6_15  and  C10_16 
ROOT
HETATM    1  N2  UNL     1      26.696   0.522  54.940  1.00  0.00    -0.050 NA
HETATM    2  N3  UNL     1      26.593   1.722  54.569  1.00  0.00    -0.131 NA
ENDROOT
BRANCH   1   3
HETATM    3  N1  UNL     1      26.512  -0.491  54.012  1.00  0.00    -0.197 N 
HETATM    4  C1  UNL     1      26.850  -1.308  52.865  1.00  0.00     0.204 C 
BRANCH   3   5
HETATM    5  N6  UNL     1      25.290  -0.840  54.636  1.00  0.00    -0.282 N 
HETATM    6  H9  UNL     1      25.089  -1.245  55.578  1.00  0.00     0.189 HD
BRANCH   5   7
HETATM    7  C10 UNL     1      23.904  -0.789  54.259  1.00  0.00     0.051 A 
HETATM    8  C11 UNL     1      22.963  -1.265  55.179  1.00  0.00     0.031 A 
HETATM    9  C12 UNL     1      21.602  -1.257  54.901  1.00  0.00     0.004 A 
HETATM   10  C13 UNL     1      21.189  -0.761  53.682  1.00  0.00     0.024 A 
HETATM   11  C14 UNL     1      22.102  -0.279  52.746  1.00  0.00     0.036 A 
HETATM   12 CL1  UNL     1      21.593   0.359  51.178  1.00  0.00    -0.084 Cl
HETATM   13  C15 UNL     1      23.433  -0.298  53.040  1.00  0.00     0.054 A 
ENDBRANCH   5   7
ENDBRANCH   3   5
ENDBRANCH   1   3
BRANCH   2  14
HETATM   14  C2  UNL     1      26.300   2.147  53.248  1.00  0.00     0.081 A 
HETATM   15  C3  UNL     1      27.065   2.163  52.104  1.00  0.00     0.036 A 
HETATM   16  C4  UNL     1      26.540   2.637  50.925  1.00  0.00     0.035 A 
HETATM   17  C5  UNL     1      25.253   3.109  50.824  1.00  0.00     0.070 A 
HETATM   18  N4  UNL     1      24.788   3.568  49.626  1.00  0.00    -0.241 NA
HETATM   19  C8  UNL     1      24.471   3.098  51.974  1.00  0.00     0.013 A 
HETATM   20  C6  UNL     1      23.540   4.025  49.544  1.00  0.00     0.233 A 
HETATM   21  N5  UNL     1      22.727   4.038  50.637  1.00  0.00    -0.253 NA
HETATM   22  C7  UNL     1      23.188   3.583  51.823  1.00  0.00     0.132 A 
HETATM   23  C9  UNL     1      24.986   2.624  53.166  1.00  0.00     0.048 A 
ENDBRANCH   2  14
TORSDOF 4
ENDMDL
MODEL 2
REMARK VINA RESULT:      -7.4      1.835      4.305
REMARK  4 active torsions:
REMARK  status: ('A' for Active; 'I' for Inactive)
REMARK    1  A    between atoms: N1_2  and  N2_3 
REMARK    2  A    between atoms: N1_2  and  N6_15 
REMARK    3  A    between atoms: N3_4  and  C2_5 
REMARK    4  A    between atoms: N6_15  and  C10_16 
ROOT
HETATM    1  N2  UNL     1      22.664   3.715  52.124  1.00  0.00    -0.050 NA
HETATM    2  N3  UNL     1      23.834   3.875  52.565  1.00  0.00    -0.131 NA
ENDROOT
BRANCH   1   3
HETATM    3  N1  UNL     1      22.362   2.566  51.410  1.00  0.00    -0.197 N 
HETATM    4  C1  UNL     1      22.413   1.660  50.281  1.00  0.00     0.204 C 
BRANCH   3   5
HETATM    5  N6  UNL     1      21.548   2.118  52.480  1.00  0.00    -0.282 N 
HETATM    6  H9  UNL     1      20.919   2.640  53.131  1.00  0.00     0.189 HD
BRANCH   5   7
HETATM    7  C10 UNL     1      21.268   0.843  53.080  1.00  0.00     0.051 A 
HETATM    8  C11 UNL     1      22.305   0.210  53.773  1.00  0.00     0.031 A 
HETATM    9  C12 UNL     1      22.128  -1.026  54.384  1.00  0.00     0.004 A 
HETATM   10  C13 UNL     1      20.888  -1.624  54.295  1.00  0.00     0.024 A 
HETATM   11  C14 UNL     1      19.834  -1.018  53.612  1.00  0.00     0.036 A 
HETATM   12 CL1  UNL     1      18.240  -1.769  53.484  1.00  0.00    -0.084 Cl
HETATM   13  C15 UNL     1      20.033   0.194  53.019  1.00  0.00     0.054 A 
ENDBRANCH   5   7
ENDBRANCH   3   5
ENDBRANCH   1   3
BRANCH   2  14
HETATM   14  C2  UNL     1      24.903   2.960  52.395  1.00  0.00     0.081 A 
HETATM   15  C3  UNL     1      25.694   2.672  51.305  1.00  0.00     0.036 A 
HETATM   16  C4  UNL     1      26.684   1.721  51.398  1.00  0.00     0.035 A 
HETATM   17  C5  UNL     1      26.933   1.023  52.555  1.00  0.00     0.070 A 
HETATM   18  N4  UNL     1      27.929   0.090  52.585  1.00  0.00    -0.241 NA
HETATM   19  C8  UNL     1      26.141   1.305  53.662  1.00  0.00     0.013 A 
HETATM   20  C6  UNL     1      28.159  -0.582  53.712  1.00  0.00     0.233 A 
HETATM   21  N5  UNL     1      27.414  -0.346  54.829  1.00  0.00    -0.253 NA
HETATM   22  C7  UNL     1      26.429   0.577  54.798  1.00  0.00     0.132 A 
HETATM   23  C9  UNL     1      25.143   2.258  53.583  1.00  0.00     0.048 A 
ENDBRANCH   2  14
TORSDOF 4
ENDMDL
MODEL 3
REMARK VINA RESULT:      -7.3      2.328      5.394
REMARK  4 active torsions:
REMARK  status: ('A' for Active; 'I' for Inactive)
REMARK    1  A    between atoms: N1_2  and  N2_3 
REMARK    2  A    between atoms: N1_2  and  N6_15 
REMARK    3  A    between atoms: N3_4  and  C2_5 
REMARK    4  A    between atoms: N6_15  and  C10_16 
ROOT
HETATM    1  N2  UNL     1      24.693   3.557  52.466  1.00  0.00    -0.050 NA
HETATM    2  N3  UNL     1      24.791   2.685  53.370  1.00  0.00    -0.131 NA
ENDROOT
BRANCH   1   3
HETATM    3  N1  UNL     1      25.318   3.342  51.247  1.00  0.00    -0.197 N 
HETATM    4  C1  UNL     1      26.431   3.060  50.366  1.00  0.00     0.204 C 
BRANCH   3   5
HETATM    5  N6  UNL     1      24.081   3.530  50.582  1.00  0.00    -0.282 N 
HETATM    6  H9  UNL     1      23.572   4.401  50.310  1.00  0.00     0.189 HD
BRANCH   5   7
HETATM    7  C10 UNL     1      23.073   2.660  50.043  1.00  0.00     0.051 A 
HETATM    8  C11 UNL     1      22.981   2.559  48.650  1.00  0.00     0.031 A 
HETATM    9  C12 UNL     1      22.036   1.743  48.039  1.00  0.00     0.004 A 
HETATM   10  C13 UNL     1      21.179   1.022  48.844  1.00  0.00     0.024 A 
HETATM   11  C14 UNL     1      21.247   1.102  50.235  1.00  0.00     0.036 A 
HETATM   12 CL1  UNL     1      20.156   0.189  51.283  1.00  0.00    -0.084 Cl
HETATM   13  C15 UNL     1      22.181   1.909  50.812  1.00  0.00     0.054 A 
ENDBRANCH   5   7
ENDBRANCH   3   5
ENDBRANCH   1   3
BRANCH   2  14
HETATM   14  C2  UNL     1      25.501   1.463  53.253  1.00  0.00     0.081 A 
HETATM   15  C3  UNL     1      25.093   0.202  52.879  1.00  0.00     0.036 A 
HETATM   16  C4  UNL     1      25.993  -0.837  52.848  1.00  0.00     0.035 A 
HETATM   17  C5  UNL     1      27.317  -0.680  53.182  1.00  0.00     0.070 A 
HETATM   18  N4  UNL     1      28.163  -1.752  53.134  1.00  0.00    -0.241 NA
HETATM   19  C8  UNL     1      27.740   0.588  53.562  1.00  0.00     0.013 A 
HETATM   20  C6  UNL     1      29.442  -1.586  53.463  1.00  0.00     0.233 A 
HETATM   21  N5  UNL     1      29.914  -0.365  53.842  1.00  0.00    -0.253 NA
HETATM   22  C7  UNL     1      29.076   0.695  53.889  1.00  0.00     0.132 A 
HETATM   23  C9  UNL     1      26.847   1.642  53.597  1.00  0.00     0.048 A 
ENDBRANCH   2  14
TORSDOF 4
ENDMDL
MODEL 4
REMARK VINA RESULT:      -7.1      2.922      6.900
REMARK  4 active torsions:
REMARK  status: ('A' for Active; 'I' for Inactive)
REMARK    1  A    between atoms: N1_2  and  N2_3 
REMARK    2  A    between atoms: N1_2  and  N6_15 
REMARK    3  A    between atoms: N3_4  and  C2_5 
REMARK    4  A    between atoms: N6_15  and  C10_16 
ROOT
HETATM    1  N2  UNL     1      22.705   3.573  50.327  1.00  0.00    -0.050 NA
HETATM    2  N3  UNL     1      22.735   2.314  50.361  1.00  0.00    -0.131 NA
ENDROOT
BRANCH   1   3
HETATM    3  N1  UNL     1      23.231   4.291  51.390  1.00  0.00    -0.197 N 
HETATM    4  C1  UNL     1      23.473   4.600  52.784  1.00  0.00     0.204 C 
BRANCH   3   5
HETATM    5  N6  UNL     1      23.843   5.187  50.480  1.00  0.00    -0.282 N 
HETATM    6  H9  UNL     1      23.501   6.081  50.059  1.00  0.00     0.189 HD
BRANCH   5   7
HETATM    7  C10 UNL     1      25.106   5.238  49.796  1.00  0.00     0.051 A 
HETATM    8  C11 UNL     1      25.922   4.103  49.855  1.00  0.00     0.031 A 
HETATM    9  C12 UNL     1      27.160   4.060  49.226  1.00  0.00     0.004 A 
HETATM   10  C13 UNL     1      27.575   5.177  48.530  1.00  0.00     0.024 A 
HETATM   11  C14 UNL     1      26.785   6.322  48.453  1.00  0.00     0.036 A 
HETATM   12 CL1  UNL     1      27.300   7.762  47.568  1.00  0.00    -0.084 Cl
HETATM   13  C15 UNL     1      25.574   6.341  49.079  1.00  0.00     0.054 A 
ENDBRANCH   5   7
ENDBRANCH   3   5
ENDBRANCH   1   3
BRANCH   2  14
HETATM   14  C2  UNL     1      23.275   1.537  51.417  1.00  0.00     0.081 A 
HETATM   15  C3  UNL     1      24.576   1.271  51.781  1.00  0.00     0.036 A 
HETATM   16  C4  UNL     1      24.842   0.469  52.865  1.00  0.00     0.035 A 
HETATM   17  C5  UNL     1      23.850  -0.099  53.628  1.00  0.00     0.070 A 
HETATM   18  N4  UNL     1      24.177  -0.889  54.693  1.00  0.00    -0.241 NA
HETATM   19  C8  UNL     1      22.532   0.162  53.269  1.00  0.00     0.013 A 
HETATM   20  C6  UNL     1      23.205  -1.435  55.421  1.00  0.00     0.233 A 
HETATM   21  N5  UNL     1      21.895  -1.213  55.116  1.00  0.00    -0.253 NA
HETATM   22  C7  UNL     1      21.572  -0.432  54.063  1.00  0.00     0.132 A 
HETATM   23  C9  UNL     1      22.250   0.967  52.181  1.00  0.00     0.048 A 
ENDBRANCH   2  14
TORSDOF 4
ENDMDL
MODEL 5
REMARK VINA RESULT:      -7.1      2.600      6.452
REMARK  4 active torsions:
REMARK  status: ('A' for Active; 'I' for Inactive)
REMARK    1  A    between atoms: N1_2  and  N2_3 
REMARK    2  A    between atoms: N1_2  and  N6_15 
REMARK    3  A    between atoms: N3_4  and  C2_5 
REMARK    4  A    between atoms: N6_15  and  C10_16 
ROOT
HETATM    1  N2  UNL     1      22.293   3.848  51.375  1.00  0.00    -0.050 NA
HETATM    2  N3  UNL     1      22.820   3.529  52.474  1.00  0.00    -0.131 NA
ENDROOT
BRANCH   1   3
HETATM    3  N1  UNL     1      22.405   2.985  50.295  1.00  0.00    -0.197 N 
HETATM    4  C1  UNL     1      22.246   1.735  49.582  1.00  0.00     0.204 C 
BRANCH   3   5
HETATM    5  N6  UNL     1      23.046   4.004  49.549  1.00  0.00    -0.282 N 
HETATM    6  H9  UNL     1      22.656   4.768  48.951  1.00  0.00     0.189 HD
BRANCH   5   7
HETATM    7  C10 UNL     1      24.410   4.389  49.314  1.00  0.00     0.051 A 
HETATM    8  C11 UNL     1      25.404   3.432  49.548  1.00  0.00     0.031 A 
HETATM    9  C12 UNL     1      26.750   3.713  49.350  1.00  0.00     0.004 A 
HETATM   10  C13 UNL     1      27.093   4.975  48.909  1.00  0.00     0.024 A 
HETATM   11  C14 UNL     1      26.126   5.949  48.666  1.00  0.00     0.036 A 
HETATM   12 CL1  UNL     1      26.546   7.571  48.104  1.00  0.00    -0.084 Cl
HETATM   13  C15 UNL     1      24.812   5.650  48.869  1.00  0.00     0.054 A 
ENDBRANCH   5   7
ENDBRANCH   3   5
ENDBRANCH   1   3
BRANCH   2  14
HETATM   14  C2  UNL     1      23.539   2.333  52.720  1.00  0.00     0.081 A 
HETATM   15  C3  UNL     1      23.114   1.043  52.949  1.00  0.00     0.036 A 
HETATM   16  C4  UNL     1      24.028   0.040  53.167  1.00  0.00     0.035 A 
HETATM   17  C5  UNL     1      25.384   0.261  53.168  1.00  0.00     0.070 A 
HETATM   18  N4  UNL     1      26.244  -0.776  53.393  1.00  0.00    -0.241 NA
HETATM   19  C8  UNL     1      25.826   1.560  52.938  1.00  0.00     0.013 A 
HETATM   20  C6  UNL     1      27.555  -0.546  53.394  1.00  0.00     0.233 A 
HETATM   21  N5  UNL     1      28.045   0.706  53.173  1.00  0.00    -0.253 NA
HETATM   22  C7  UNL     1      27.194   1.732  52.951  1.00  0.00     0.132 A 
HETATM   23  C9  UNL     1      24.918   2.578  52.717  1.00  0.00     0.048 A 
ENDBRANCH   2  14
TORSDOF 4
ENDMDL
MODEL 6
REMARK VINA RESULT:      -7.1      3.131      4.885
REMARK  4 active torsions:
REMARK  status: ('A' for Active; 'I' for Inactive)
REMARK    1  A    between atoms: N1_2  and  N2_3 
REMARK    2  A    between atoms: N1_2  and  N6_15 
REMARK    3  A    between atoms: N3_4  and  C2_5 
REMARK    4  A    between atoms: N6_15  and  C10_16 
ROOT
HETATM    1  N2  UNL     1      22.917   2.558  51.380  1.00  0.00    -0.050 NA
HETATM    2  N3  UNL     1      23.443   2.547  50.236  1.00  0.00    -0.131 NA
ENDROOT
BRANCH   1   3
HETATM    3  N1  UNL     1      23.435   3.396  52.355  1.00  0.00    -0.197 N 
HETATM    4  C1  UNL     1      23.707   4.665  52.997  1.00  0.00     0.204 C 
BRANCH   3   5
HETATM    5  N6  UNL     1      23.968   2.273  53.035  1.00  0.00    -0.282 N 
HETATM    6  H9  UNL     1      23.534   1.614  53.720  1.00  0.00     0.189 HD
BRANCH   5   7
HETATM    7  C10 UNL     1      25.245   1.616  53.069  1.00  0.00     0.051 A 
HETATM    8  C11 UNL     1      25.295   0.274  52.673  1.00  0.00     0.031 A 
HETATM    9  C12 UNL     1      26.485  -0.443  52.674  1.00  0.00     0.004 A 
HETATM   10  C13 UNL     1      27.635   0.203  53.078  1.00  0.00     0.024 A 
HETATM   11  C14 UNL     1      27.617   1.539  53.477  1.00  0.00     0.036 A 
HETATM   12 CL1  UNL     1      29.078   2.383  54.000  1.00  0.00    -0.084 Cl
HETATM   13  C15 UNL     1      26.437   2.222  53.469  1.00  0.00     0.054 A 
ENDBRANCH   5   7
ENDBRANCH   3   5
ENDBRANCH   1   3
BRANCH   2  14
HETATM   14  C2  UNL     1      24.551   3.337  49.837  1.00  0.00     0.081 A 
HETATM   15  C3  UNL     1      25.907   3.105  49.899  1.00  0.00     0.036 A 
HETATM   16  C4  UNL     1      26.794   4.051  49.440  1.00  0.00     0.035 A 
HETATM   17  C5  UNL     1      26.387   5.250  48.906  1.00  0.00     0.070 A 
HETATM   18  N4  UNL     1      27.316   6.150  48.468  1.00  0.00    -0.241 NA
HETATM   19  C8  UNL     1      25.020   5.495  48.839  1.00  0.00     0.013 A 
HETATM   20  C6  UNL     1      26.907   7.310  47.956  1.00  0.00     0.233 A 
HETATM   21  N5  UNL     1      25.580   7.604  47.864  1.00  0.00    -0.253 NA
HETATM   22  C7  UNL     1      24.662   6.713  48.298  1.00  0.00     0.132 A 
HETATM   23  C9  UNL     1      24.117   4.554  49.297  1.00  0.00     0.048 A 
ENDBRANCH   2  14
TORSDOF 4
ENDMDL
MODEL 7
REMARK VINA RESULT:      -6.9      2.054      5.049
REMARK  4 active torsions:
REMARK  status: ('A' for Active; 'I' for Inactive)
REMARK    1  A    between atoms: N1_2  and  N2_3 
REMARK    2  A    between atoms: N1_2  and  N6_15 
REMARK    3  A    between atoms: N3_4  and  C2_5 
REMARK    4  A    between atoms: N6_15  and  C10_16 
ROOT
HETATM    1  N2  UNL     1      24.304   3.937  50.606  1.00  0.00    -0.050 NA
HETATM    2  N3  UNL     1      25.108   2.980  50.451  1.00  0.00    -0.131 NA
ENDROOT
BRANCH   1   3
HETATM    3  N1  UNL     1      23.765   4.171  51.862  1.00  0.00    -0.197 N 
HETATM    4  C1  UNL     1      23.788   4.548  53.259  1.00  0.00     0.204 C 
BRANCH   3   5
HETATM    5  N6  UNL     1      22.487   3.797  51.380  1.00  0.00    -0.282 N 
HETATM    6  H9  UNL     1      21.763   4.340  50.857  1.00  0.00     0.189 HD
BRANCH   5   7
HETATM    7  C10 UNL     1      21.699   2.595  51.410  1.00  0.00     0.051 A 
HETATM    8  C11 UNL     1      21.213   2.107  50.193  1.00  0.00     0.031 A 
HETATM    9  C12 UNL     1      20.442   0.953  50.124  1.00  0.00     0.004 A 
HETATM   10  C13 UNL     1      20.162   0.286  51.299  1.00  0.00     0.024 A 
HETATM   11  C14 UNL     1      20.633   0.748  52.528  1.00  0.00     0.036 A 
HETATM   12 CL1  UNL     1      20.283  -0.091  54.043  1.00  0.00    -0.084 Cl
HETATM   13  C15 UNL     1      21.387   1.883  52.570  1.00  0.00     0.054 A 
ENDBRANCH   5   7
ENDBRANCH   3   5
ENDBRANCH   1   3
BRANCH   2  14
HETATM   14  C2  UNL     1      25.528   2.090  51.472  1.00  0.00     0.081 A 
HETATM   15  C3  UNL     1      24.939   0.962  51.998  1.00  0.00     0.036 A 
HETATM   16  C4  UNL     1      25.559   0.261  53.006  1.00  0.00     0.035 A 
HETATM   17  C5  UNL     1      26.771   0.639  53.532  1.00  0.00     0.070 A 
HETATM   18  N4  UNL     1      27.337  -0.097  54.534  1.00  0.00    -0.241 NA
HETATM   19  C8  UNL     1      27.374   1.777  53.010  1.00  0.00     0.013 A 
HETATM   20  C6  UNL     1      28.510   0.282  55.037  1.00  0.00     0.233 A 
HETATM   21  N5  UNL     1      29.148   1.389  54.563  1.00  0.00    -0.253 NA
HETATM   22  C7  UNL     1      28.588   2.116  53.572  1.00  0.00     0.132 A 
HETATM   23  C9  UNL     1      26.763   2.491  51.996  1.00  0.00     0.048 A 
ENDBRANCH   2  14
TORSDOF 4
ENDMDL
MODEL 8
REMARK VINA RESULT:      -6.7      3.324      7.183
REMARK  4 active torsions:
REMARK  status: ('A' for Active; 'I' for Inactive)
REMARK    1  A    between atoms: N1_2  and  N2_3 
REMARK    2  A    between atoms: N1_2  and  N6_15 
REMARK    3  A    between atoms: N3_4  and  C2_5 
REMARK    4  A    between atoms: N6_15  and  C10_16 
ROOT
HETATM    1  N2  UNL     1      23.350   5.364  51.570  1.00  0.00    -0.050 NA
HETATM    2  N3  UNL     1      23.238   4.670  52.615  1.00  0.00    -0.131 NA
ENDROOT
BRANCH   1   3
HETATM    3  N1  UNL     1      23.725   4.748  50.386  1.00  0.00    -0.197 N 
HETATM    4  C1  UNL     1      23.524   3.971  49.181  1.00  0.00     0.204 C 
BRANCH   3   5
HETATM    5  N6  UNL     1      25.054   5.200  50.573  1.00  0.00    -0.282 N 
HETATM    6  H9  UNL     1      25.620   5.331  51.442  1.00  0.00     0.189 HD
BRANCH   5   7
HETATM    7  C10 UNL     1      26.111   5.642  49.705  1.00  0.00     0.051 A 
HETATM    8  C11 UNL     1      27.031   4.684  49.265  1.00  0.00     0.031 A 
HETATM    9  C12 UNL     1      28.087   5.019  48.425  1.00  0.00     0.004 A 
HETATM   10  C13 UNL     1      28.210   6.334  48.026  1.00  0.00     0.024 A 
HETATM   11  C14 UNL     1      27.309   7.310  48.448  1.00  0.00     0.036 A 
HETATM   12 CL1  UNL     1      27.451   8.999  47.950  1.00  0.00    -0.084 Cl
HETATM   13  C15 UNL     1      26.282   6.958  49.273  1.00  0.00     0.054 A 
ENDBRANCH   5   7
ENDBRANCH   3   5
ENDBRANCH   1   3
BRANCH   2  14
HETATM   14  C2  UNL     1      23.466   3.273  52.697  1.00  0.00     0.081 A 
HETATM   15  C3  UNL     1      22.675   2.198  52.357  1.00  0.00     0.036 A 
HETATM   16  C4  UNL     1      23.133   0.914  52.539  1.00  0.00     0.035 A 
HETATM   17  C5  UNL     1      24.375   0.638  53.058  1.00  0.00     0.070 A 
HETATM   18  N4  UNL     1      24.773  -0.658  53.218  1.00  0.00    -0.241 NA
HETATM   19  C8  UNL     1      25.182   1.716  53.406  1.00  0.00     0.013 A 
HETATM   20  C6  UNL     1      25.979  -0.911  53.725  1.00  0.00     0.233 A 
HETATM   21  N5  UNL     1      26.813   0.105  54.083  1.00  0.00    -0.253 NA
HETATM   22  C7  UNL     1      26.418   1.388  53.925  1.00  0.00     0.132 A 
HETATM   23  C9  UNL     1      24.735   3.011  53.228  1.00  0.00     0.048 A 
ENDBRANCH   2  14
TORSDOF 4
ENDMDL
MODEL 9
REMARK VINA RESULT:      -6.7      2.770      6.782
REMARK  4 active torsions:
REMARK  status: ('A' for Active; 'I' for Inactive)
REMARK    1  A    between atoms: N1_2  and  N2_3 
REMARK    2  A    between atoms: N1_2  and  N6_15 
REMARK    3  A    between atoms: N3_4  and  C2_5 
REMARK    4  A    between atoms: N6_15  and  C10_16 
ROOT
HETATM    1  N2  UNL     1      23.176   2.754  50.863  1.00  0.00    -0.050 NA
HETATM    2  N3  UNL     1      23.549   1.557  50.991  1.00  0.00    -0.131 NA
ENDROOT
BRANCH   1   3
HETATM    3  N1  UNL     1      23.510   3.674  51.845  1.00  0.00    -0.197 N 
HETATM    4  C1  UNL     1      23.858   4.113  53.180  1.00  0.00     0.204 C 
BRANCH   3   5
HETATM    5  N6  UNL     1      23.433   4.718  50.890  1.00  0.00    -0.282 N 
HETATM    6  H9  UNL     1      22.624   5.295  50.566  1.00  0.00     0.189 HD
BRANCH   5   7
HETATM    7  C10 UNL     1      24.371   5.374  50.022  1.00  0.00     0.051 A 
HETATM    8  C11 UNL     1      23.982   6.587  49.444  1.00  0.00     0.031 A 
HETATM    9  C12 UNL     1      24.822   7.292  48.591  1.00  0.00     0.004 A 
HETATM   10  C13 UNL     1      26.069   6.765  48.322  1.00  0.00     0.024 A 
HETATM   11  C14 UNL     1      26.485   5.558  48.882  1.00  0.00     0.036 A 
HETATM   12 CL1  UNL     1      28.075   4.865  48.548  1.00  0.00    -0.084 Cl
HETATM   13  C15 UNL     1      25.642   4.884  49.716  1.00  0.00     0.054 A 
ENDBRANCH   5   7
ENDBRANCH   3   5
ENDBRANCH   1   3
BRANCH   2  14
HETATM   14  C2  UNL     1      24.301   1.046  52.078  1.00  0.00     0.081 A 
HETATM   15  C3  UNL     1      23.923   0.336  53.196  1.00  0.00     0.036 A 
HETATM   16  C4  UNL     1      24.862  -0.049  54.124  1.00  0.00     0.035 A 
HETATM   17  C5  UNL     1      26.198   0.246  53.992  1.00  0.00     0.070 A 
HETATM   18  N4  UNL     1      27.083  -0.161  54.948  1.00  0.00    -0.241 NA
HETATM   19  C8  UNL     1      26.591   0.964  52.867  1.00  0.00     0.013 A 
HETATM   20  C6  UNL     1      28.374   0.134  54.808  1.00  0.00     0.233 A 
HETATM   21  N5  UNL     1      28.817   0.834  53.726  1.00  0.00    -0.253 NA
HETATM   22  C7  UNL     1      27.941   1.238  52.781  1.00  0.00     0.132 A 
HETATM   23  C9  UNL     1      25.658   1.357  51.926  1.00  0.00     0.048 A 
ENDBRANCH   2  14
TORSDOF 4
ENDMDL
