MODEL 1
REMARK VINA RESULT:      -8.2      0.000      0.000
REMARK  0 active torsions:
REMARK  status: ('A' for Active; 'I' for Inactive)
ROOT
HETATM    1  C1  UNL     1      21.429   3.814  45.976  1.00  0.00     0.048 C 
HETATM    2  C2  UNL     1      21.470   3.509  47.431  1.00  0.00    -0.061 C 
HETATM    3  C3  UNL     1      22.266   2.405  47.467  1.00  0.00     0.018 C 
HETATM    4  C4  UNL     1      22.473   1.933  48.869  1.00  0.00     0.128 A 
HETATM    5  C5  UNL     1      23.648   2.810  48.893  1.00  0.00     0.175 A 
HETATM    6  N1  UNL     1      24.101   2.819  50.250  1.00  0.00    -0.262 NA
HETATM    7  C6  UNL     1      23.242   1.995  51.003  1.00  0.00     0.134 A 
HETATM    8  N2  UNL     1      22.600   1.778  49.882  1.00  0.00    -0.313 N 
HETATM    9  C7  UNL     1      21.617   1.112  49.561  1.00  0.00     0.185 A 
HETATM   10  N3  UNL     1      21.216   0.499  50.751  1.00  0.00    -0.380 N 
HETATM   11  C8  UNL     1      21.370   0.176  52.160  1.00  0.00     0.126 C 
HETATM   12  C9  UNL     1      20.350   1.012  52.887  1.00  0.00     0.002 C 
HETATM   13  C10 UNL     1      19.906   2.093  52.314  1.00  0.00    -0.002 C 
HETATM   14  C11 UNL     1      19.364   3.334  51.715  1.00  0.00     0.002 C 
HETATM   15  C12 UNL     1      19.284   4.201  50.737  1.00  0.00     0.031 C 
HETATM   16  C13 UNL     1      19.974   4.149  49.483  1.00  0.00     0.050 C 
HETATM   17  C14 UNL     1      20.544   4.241  48.274  1.00  0.00     0.037 C 
HETATM   18  N4  UNL     1      20.114   5.618  49.613  1.00  0.00    -0.278 N 
HETATM   19  N5  UNL     1      21.240   6.085  50.217  1.00  0.00    -0.184 NA
HETATM   20  C15 UNL     1      21.944   5.833  51.232  1.00  0.00     0.032 C 
HETATM   21  C16 UNL     1      22.962   6.903  51.019  1.00  0.00     0.068 C 
HETATM   22  C17 UNL     1      22.267   5.038  52.486  1.00  0.00     0.083 C 
HETATM   23  C18 UNL     1      23.545   4.335  52.435  1.00  0.00    -0.020 C 
HETATM   24  C19 UNL     1      24.038   3.076  52.435  1.00  0.00     0.011 C 
HETATM   25  C20 UNL     1      23.342   1.789  52.487  1.00  0.00     0.008 C 
HETATM   26  C21 UNL     1      22.733   0.626  52.700  1.00  0.00     0.017 C 
HETATM   27  H6  UNL     1      20.367   0.086  50.313  1.00  0.00     0.157 HD
HETATM   28  H13 UNL     1      19.530   6.422  49.323  1.00  0.00     0.189 HD
ENDROOT
TORSDOF 0
ENDMDL
MODEL 2
REMARK VINA RESULT:      -7.8      1.633      4.908
REMARK  0 active torsions:
REMARK  status: ('A' for Active; 'I' for Inactive)
ROOT
HETATM    1  C1  UNL     1      23.277  -0.861  54.196  1.00  0.00     0.048 C 
HETATM    2  C2  UNL     1      22.985   0.145  53.141  1.00  0.00    -0.061 C 
HETATM    3  C3  UNL     1      21.723  -0.198  52.763  1.00  0.00     0.018 C 
HETATM    4  C4  UNL     1      21.205   0.723  51.707  1.00  0.00     0.128 A 
HETATM    5  C5  UNL     1      20.680   1.539  52.806  1.00  0.00     0.175 A 
HETATM    6  N1  UNL     1      20.214   2.750  52.206  1.00  0.00    -0.262 NA
HETATM    7  C6  UNL     1      20.450   2.670  50.819  1.00  0.00     0.134 A 
HETATM    8  N2  UNL     1      20.949   1.481  51.056  1.00  0.00    -0.313 N 
HETATM    9  C7  UNL     1      21.444   0.595  50.361  1.00  0.00     0.185 A 
HETATM   10  N3  UNL     1      21.378   1.102  49.061  1.00  0.00    -0.380 N 
HETATM   11  C8  UNL     1      20.984   2.094  48.074  1.00  0.00     0.126 C 
HETATM   12  C9  UNL     1      22.243   2.839  47.715  1.00  0.00     0.002 C 
HETATM   13  C10 UNL     1      23.231   2.840  48.562  1.00  0.00    -0.002 C 
HETATM   14  C11 UNL     1      24.389   2.879  49.484  1.00  0.00     0.002 C 
HETATM   15  C12 UNL     1      24.982   2.543  50.601  1.00  0.00     0.031 C 
HETATM   16  C13 UNL     1      24.454   1.708  51.638  1.00  0.00     0.050 C 
HETATM   17  C14 UNL     1      24.102   0.952  52.688  1.00  0.00     0.037 C 
HETATM   18  N4  UNL     1      25.110   2.639  52.585  1.00  0.00    -0.278 N 
HETATM   19  N5  UNL     1      24.370   3.683  53.045  1.00  0.00    -0.184 NA
HETATM   20  C15 UNL     1      23.577   4.552  52.594  1.00  0.00     0.032 C 
HETATM   21  C16 UNL     1      23.302   5.239  53.889  1.00  0.00     0.068 C 
HETATM   22  C17 UNL     1      22.798   5.214  51.469  1.00  0.00     0.083 C 
HETATM   23  C18 UNL     1      21.348   5.151  51.627  1.00  0.00    -0.020 C 
HETATM   24  C19 UNL     1      20.261   4.611  51.031  1.00  0.00     0.011 C 
HETATM   25  C20 UNL     1      20.159   3.768  49.839  1.00  0.00     0.008 C 
HETATM   26  C21 UNL     1      20.038   3.145  48.670  1.00  0.00     0.017 C 
HETATM   27  H6  UNL     1      21.903   0.297  48.664  1.00  0.00     0.157 HD
HETATM   28  H13 UNL     1      26.051   2.678  53.016  1.00  0.00     0.189 HD
ENDROOT
TORSDOF 0
ENDMDL
MODEL 3
REMARK VINA RESULT:      -7.8      1.863      4.550
REMARK  0 active torsions:
REMARK  status: ('A' for Active; 'I' for Inactive)
ROOT
HETATM    1  C1  UNL     1      21.318   8.236  50.457  1.00  0.00     0.048 C 
HETATM    2  C2  UNL     1      21.933   6.883  50.480  1.00  0.00    -0.061 C 
HETATM    3  C3  UNL     1      21.515   6.401  51.683  1.00  0.00     0.018 C 
HETATM    4  C4  UNL     1      22.003   5.007  51.907  1.00  0.00     0.128 A 
HETATM    5  C5  UNL     1      20.758   4.567  51.270  1.00  0.00     0.175 A 
HETATM    6  N1  UNL     1      20.892   3.155  51.085  1.00  0.00    -0.262 NA
HETATM    7  C6  UNL     1      22.153   2.767  51.579  1.00  0.00     0.134 A 
HETATM    8  N2  UNL     1      22.329   4.029  51.887  1.00  0.00    -0.313 N 
HETATM    9  C7  UNL     1      23.236   4.674  52.412  1.00  0.00     0.185 A 
HETATM   10  N3  UNL     1      24.213   3.718  52.702  1.00  0.00    -0.380 N 
HETATM   11  C8  UNL     1      24.714   2.355  52.772  1.00  0.00     0.126 C 
HETATM   12  C9  UNL     1      25.700   2.222  51.641  1.00  0.00     0.002 C 
HETATM   13  C10 UNL     1      25.600   3.032  50.627  1.00  0.00    -0.002 C 
HETATM   14  C11 UNL     1      25.538   3.923  49.446  1.00  0.00     0.002 C 
HETATM   15  C12 UNL     1      25.008   4.919  48.783  1.00  0.00     0.031 C 
HETATM   16  C13 UNL     1      23.914   5.744  49.199  1.00  0.00     0.050 C 
HETATM   17  C14 UNL     1      22.907   6.594  49.444  1.00  0.00     0.037 C 
HETATM   18  N4  UNL     1      23.480   5.710  47.782  1.00  0.00    -0.278 N 
HETATM   19  N5  UNL     1      22.609   4.730  47.421  1.00  0.00    -0.184 NA
HETATM   20  C15 UNL     1      22.450   3.492  47.597  1.00  0.00     0.032 C 
HETATM   21  C16 UNL     1      21.203   3.351  46.792  1.00  0.00     0.068 C 
HETATM   22  C17 UNL     1      22.857   2.150  48.184  1.00  0.00     0.083 C 
HETATM   23  C18 UNL     1      21.879   1.579  49.104  1.00  0.00    -0.020 C 
HETATM   24  C19 UNL     1      21.751   1.245  50.408  1.00  0.00     0.011 C 
HETATM   25  C20 UNL     1      22.703   1.373  51.512  1.00  0.00     0.008 C 
HETATM   26  C21 UNL     1      23.611   1.329  52.483  1.00  0.00     0.017 C 
HETATM   27  H6  UNL     1      24.892   4.436  53.029  1.00  0.00     0.157 HD
HETATM   28  H13 UNL     1      23.685   6.299  46.955  1.00  0.00     0.189 HD
ENDROOT
TORSDOF 0
ENDMDL
MODEL 4
REMARK VINA RESULT:      -7.6      7.528     10.345
REMARK  0 active torsions:
REMARK  status: ('A' for Active; 'I' for Inactive)
ROOT
HETATM    1  C1  UNL     1      30.583  12.601  49.166  1.00  0.00     0.048 C 
HETATM    2  C2  UNL     1      29.863  11.384  48.706  1.00  0.00    -0.061 C 
HETATM    3  C3  UNL     1      28.665  11.507  49.341  1.00  0.00     0.018 C 
HETATM    4  C4  UNL     1      27.749  10.380  48.991  1.00  0.00     0.128 A 
HETATM    5  C5  UNL     1      27.279  11.225  47.889  1.00  0.00     0.175 A 
HETATM    6  N1  UNL     1      26.436  10.392  47.089  1.00  0.00    -0.262 NA
HETATM    7  C6  UNL     1      26.403   9.112  47.675  1.00  0.00     0.134 A 
HETATM    8  N2  UNL     1      27.200   9.602  48.594  1.00  0.00    -0.313 N 
HETATM    9  C7  UNL     1      27.739   9.151  49.604  1.00  0.00     0.185 A 
HETATM   10  N3  UNL     1      27.300   7.826  49.663  1.00  0.00    -0.380 N 
HETATM   11  C8  UNL     1      26.499   6.703  49.204  1.00  0.00     0.126 C 
HETATM   12  C9  UNL     1      27.454   5.779  48.495  1.00  0.00     0.002 C 
HETATM   13  C10 UNL     1      28.564   6.271  48.025  1.00  0.00    -0.002 C 
HETATM   14  C11 UNL     1      29.841   6.771  47.466  1.00  0.00     0.002 C 
HETATM   15  C12 UNL     1      30.706   7.729  47.250  1.00  0.00     0.031 C 
HETATM   16  C13 UNL     1      30.603   9.093  47.674  1.00  0.00     0.050 C 
HETATM   17  C14 UNL     1      30.650  10.393  47.997  1.00  0.00     0.037 C 
HETATM   18  N4  UNL     1      31.201   9.441  46.364  1.00  0.00    -0.278 N 
HETATM   19  N5  UNL     1      30.346   9.693  45.337  1.00  0.00    -0.184 NA
HETATM   20  C15 UNL     1      29.300   9.202  44.834  1.00  0.00     0.032 C 
HETATM   21  C16 UNL     1      29.137  10.201  43.738  1.00  0.00     0.068 C 
HETATM   22  C17 UNL     1      28.182   8.174  44.783  1.00  0.00     0.083 C 
HETATM   23  C18 UNL     1      26.847   8.732  44.978  1.00  0.00    -0.020 C 
HETATM   24  C19 UNL     1      25.818   8.679  45.853  1.00  0.00     0.011 C 
HETATM   25  C20 UNL     1      25.678   7.929  47.103  1.00  0.00     0.008 C 
HETATM   26  C21 UNL     1      25.474   7.130  48.146  1.00  0.00     0.017 C 
HETATM   27  H6  UNL     1      27.907   7.606  50.479  1.00  0.00     0.157 HD
HETATM   28  H13 UNL     1      32.174   9.560  46.029  1.00  0.00     0.189 HD
ENDROOT
TORSDOF 0
ENDMDL
MODEL 5
REMARK VINA RESULT:      -7.6      9.120     11.422
REMARK  0 active torsions:
REMARK  status: ('A' for Active; 'I' for Inactive)
ROOT
HETATM    1  C1  UNL     1      34.425   5.307  47.123  1.00  0.00     0.048 C 
HETATM    2  C2  UNL     1      33.206   6.156  47.180  1.00  0.00    -0.061 C 
HETATM    3  C3  UNL     1      32.632   5.750  48.346  1.00  0.00     0.018 C 
HETATM    4  C4  UNL     1      31.378   6.512  48.625  1.00  0.00     0.128 A 
HETATM    5  C5  UNL     1      32.227   7.465  49.347  1.00  0.00     0.175 A 
HETATM    6  N1  UNL     1      31.385   8.578  49.662  1.00  0.00    -0.262 NA
HETATM    7  C6  UNL     1      30.099   8.311  49.154  1.00  0.00     0.134 A 
HETATM    8  N2  UNL     1      30.591   7.171  48.733  1.00  0.00    -0.313 N 
HETATM    9  C7  UNL     1      30.138   6.204  48.123  1.00  0.00     0.185 A 
HETATM   10  N3  UNL     1      28.794   6.528  47.918  1.00  0.00    -0.380 N 
HETATM   11  C8  UNL     1      27.622   7.371  48.089  1.00  0.00     0.126 C 
HETATM   12  C9  UNL     1      27.426   8.073  46.771  1.00  0.00     0.002 C 
HETATM   13  C10 UNL     1      28.446   8.201  45.973  1.00  0.00    -0.002 C 
HETATM   14  C11 UNL     1      29.569   8.379  45.024  1.00  0.00     0.002 C 
HETATM   15  C12 UNL     1      30.818   8.206  44.673  1.00  0.00     0.031 C 
HETATM   16  C13 UNL     1      31.831   7.514  45.412  1.00  0.00     0.050 C 
HETATM   17  C14 UNL     1      32.881   6.906  45.982  1.00  0.00     0.037 C 
HETATM   18  N4  UNL     1      32.754   8.574  44.945  1.00  0.00    -0.278 N 
HETATM   19  N5  UNL     1      32.909   9.663  45.744  1.00  0.00    -0.184 NA
HETATM   20  C15 UNL     1      32.194  10.453  46.417  1.00  0.00     0.032 C 
HETATM   21  C16 UNL     1      33.301  11.308  46.935  1.00  0.00     0.068 C 
HETATM   22  C17 UNL     1      30.855  10.945  46.942  1.00  0.00     0.083 C 
HETATM   23  C18 UNL     1      30.725  10.889  48.395  1.00  0.00    -0.020 C 
HETATM   24  C19 UNL     1      30.002  10.260  49.349  1.00  0.00     0.011 C 
HETATM   25  C20 UNL     1      28.940   9.261  49.223  1.00  0.00     0.008 C 
HETATM   26  C21 UNL     1      27.867   8.482  49.117  1.00  0.00     0.017 C 
HETATM   27  H6  UNL     1      28.625   5.681  47.337  1.00  0.00     0.157 HD
HETATM   28  H13 UNL     1      33.357   8.682  44.109  1.00  0.00     0.189 HD
ENDROOT
TORSDOF 0
ENDMDL
MODEL 6
REMARK VINA RESULT:      -7.4      7.864     10.611
REMARK  0 active torsions:
REMARK  status: ('A' for Active; 'I' for Inactive)
ROOT
HETATM    1  C1  UNL     1      27.779   4.944  48.547  1.00  0.00     0.048 C 
HETATM    2  C2  UNL     1      28.074   6.374  48.267  1.00  0.00    -0.061 C 
HETATM    3  C3  UNL     1      29.419   6.431  48.467  1.00  0.00     0.018 C 
HETATM    4  C4  UNL     1      29.947   7.804  48.205  1.00  0.00     0.128 A 
HETATM    5  C5  UNL     1      30.148   7.362  46.821  1.00  0.00     0.175 A 
HETATM    6  N1  UNL     1      30.505   8.535  46.085  1.00  0.00    -0.262 NA
HETATM    7  C6  UNL     1      30.514   9.625  46.976  1.00  0.00     0.134 A 
HETATM    8  N2  UNL     1      30.181   8.763  47.906  1.00  0.00    -0.313 N 
HETATM    9  C7  UNL     1      29.954   8.834  49.113  1.00  0.00     0.185 A 
HETATM   10  N3  UNL     1      30.149  10.183  49.419  1.00  0.00    -0.380 N 
HETATM   11  C8  UNL     1      30.535  11.546  49.089  1.00  0.00     0.126 C 
HETATM   12  C9  UNL     1      29.248  12.321  48.979  1.00  0.00     0.002 C 
HETATM   13  C10 UNL     1      28.148  11.672  48.728  1.00  0.00    -0.002 C 
HETATM   14  C11 UNL     1      26.864  10.992  48.443  1.00  0.00     0.002 C 
HETATM   15  C12 UNL     1      26.159   9.912  48.221  1.00  0.00     0.031 C 
HETATM   16  C13 UNL     1      26.637   8.563  48.190  1.00  0.00     0.050 C 
HETATM   17  C14 UNL     1      26.931   7.256  48.127  1.00  0.00     0.037 C 
HETATM   18  N4  UNL     1      25.695   8.360  47.065  1.00  0.00    -0.278 N 
HETATM   19  N5  UNL     1      26.172   8.562  45.808  1.00  0.00    -0.184 NA
HETATM   20  C15 UNL     1      26.879   9.400  45.187  1.00  0.00     0.032 C 
HETATM   21  C16 UNL     1      26.824   8.734  43.853  1.00  0.00     0.068 C 
HETATM   22  C17 UNL     1      27.714  10.668  45.112  1.00  0.00     0.083 C 
HETATM   23  C18 UNL     1      29.109  10.444  44.747  1.00  0.00    -0.020 C 
HETATM   24  C19 UNL     1      30.351  10.572  45.265  1.00  0.00     0.011 C 
HETATM   25  C20 UNL     1      30.780  11.048  46.581  1.00  0.00     0.008 C 
HETATM   26  C21 UNL     1      31.189  11.632  47.704  1.00  0.00     0.017 C 
HETATM   27  H6  UNL     1      29.832  10.060  50.402  1.00  0.00     0.157 HD
HETATM   28  H13 UNL     1      24.702   8.069  47.005  1.00  0.00     0.189 HD
ENDROOT
TORSDOF 0
ENDMDL
MODEL 7
REMARK VINA RESULT:      -7.3      1.662      3.646
REMARK  0 active torsions:
REMARK  status: ('A' for Active; 'I' for Inactive)
ROOT
HETATM    1  C1  UNL     1      25.025   6.617  48.839  1.00  0.00     0.048 C 
HETATM    2  C2  UNL     1      24.055   5.567  49.247  1.00  0.00    -0.061 C 
HETATM    3  C3  UNL     1      24.347   5.409  50.567  1.00  0.00     0.018 C 
HETATM    4  C4  UNL     1      23.450   4.397  51.203  1.00  0.00     0.128 A 
HETATM    5  C5  UNL     1      22.556   5.518  51.510  1.00  0.00     0.175 A 
HETATM    6  N1  UNL     1      21.351   4.931  52.010  1.00  0.00    -0.262 NA
HETATM    7  C6  UNL     1      21.509   3.532  51.999  1.00  0.00     0.134 A 
HETATM    8  N2  UNL     1      22.710   3.753  51.524  1.00  0.00    -0.313 N 
HETATM    9  C7  UNL     1      23.653   3.039  51.185  1.00  0.00     0.185 A 
HETATM   10  N3  UNL     1      23.204   1.739  51.431  1.00  0.00    -0.380 N 
HETATM   11  C8  UNL     1      22.240   0.772  51.931  1.00  0.00     0.126 C 
HETATM   12  C9  UNL     1      21.582   0.182  50.711  1.00  0.00     0.002 C 
HETATM   13  C10 UNL     1      21.594   0.865  49.603  1.00  0.00    -0.002 C 
HETATM   14  C11 UNL     1      21.574   1.593  48.314  1.00  0.00     0.002 C 
HETATM   15  C12 UNL     1      21.888   2.621  47.568  1.00  0.00     0.031 C 
HETATM   16  C13 UNL     1      22.645   3.771  47.963  1.00  0.00     0.050 C 
HETATM   17  C14 UNL     1      23.330   4.903  48.180  1.00  0.00     0.037 C 
HETATM   18  N4  UNL     1      21.707   4.553  47.125  1.00  0.00    -0.278 N 
HETATM   19  N5  UNL     1      20.604   5.064  47.735  1.00  0.00    -0.184 NA
HETATM   20  C15 UNL     1      19.716   4.696  48.549  1.00  0.00     0.032 C 
HETATM   21  C16 UNL     1      18.955   5.978  48.585  1.00  0.00     0.068 C 
HETATM   22  C17 UNL     1      19.067   3.670  49.465  1.00  0.00     0.083 C 
HETATM   23  C18 UNL     1      19.045   4.054  50.872  1.00  0.00    -0.020 C 
HETATM   24  C19 UNL     1      19.553   3.664  52.063  1.00  0.00     0.011 C 
HETATM   25  C20 UNL     1      20.444   2.550  52.390  1.00  0.00     0.008 C 
HETATM   26  C21 UNL     1      21.114   1.450  52.722  1.00  0.00     0.017 C 
HETATM   27  H6  UNL     1      24.055   1.310  51.013  1.00  0.00     0.157 HD
HETATM   28  H13 UNL     1      21.698   4.831  46.127  1.00  0.00     0.189 HD
ENDROOT
TORSDOF 0
ENDMDL
MODEL 8
REMARK VINA RESULT:      -7.3      1.727      4.975
REMARK  0 active torsions:
REMARK  status: ('A' for Active; 'I' for Inactive)
ROOT
HETATM    1  C1  UNL     1      23.231  -0.354  54.072  1.00  0.00     0.048 C 
HETATM    2  C2  UNL     1      23.117   0.865  53.229  1.00  0.00    -0.061 C 
HETATM    3  C3  UNL     1      24.346   1.430  53.379  1.00  0.00     0.018 C 
HETATM    4  C4  UNL     1      24.468   2.683  52.575  1.00  0.00     0.128 A 
HETATM    5  C5  UNL     1      24.965   1.830  51.491  1.00  0.00     0.175 A 
HETATM    6  N1  UNL     1      25.045   2.671  50.337  1.00  0.00    -0.262 NA
HETATM    7  C6  UNL     1      24.615   3.960  50.705  1.00  0.00     0.134 A 
HETATM    8  N2  UNL     1      24.440   3.470  51.908  1.00  0.00    -0.313 N 
HETATM    9  C7  UNL     1      24.051   3.927  52.982  1.00  0.00     0.185 A 
HETATM   10  N3  UNL     1      23.792   5.272  52.708  1.00  0.00    -0.380 N 
HETATM   11  C8  UNL     1      23.790   6.444  51.847  1.00  0.00     0.126 C 
HETATM   12  C9  UNL     1      22.355   6.651  51.438  1.00  0.00     0.002 C 
HETATM   13  C10 UNL     1      21.541   5.636  51.483  1.00  0.00    -0.002 C 
HETATM   14  C11 UNL     1      20.567   4.521  51.510  1.00  0.00     0.002 C 
HETATM   15  C12 UNL     1      20.252   3.274  51.754  1.00  0.00     0.031 C 
HETATM   16  C13 UNL     1      21.113   2.255  52.274  1.00  0.00     0.050 C 
HETATM   17  C14 UNL     1      21.790   1.200  52.749  1.00  0.00     0.037 C 
HETATM   18  N4  UNL     1      20.425   1.336  51.337  1.00  0.00    -0.278 N 
HETATM   19  N5  UNL     1      20.976   1.176  50.104  1.00  0.00    -0.184 NA
HETATM   20  C15 UNL     1      21.471   1.887  49.190  1.00  0.00     0.032 C 
HETATM   21  C16 UNL     1      21.789   0.778  48.245  1.00  0.00     0.068 C 
HETATM   22  C17 UNL     1      21.891   3.223  48.597  1.00  0.00     0.083 C 
HETATM   23  C18 UNL     1      23.324   3.342  48.345  1.00  0.00    -0.020 C 
HETATM   24  C19 UNL     1      24.394   4.058  48.758  1.00  0.00     0.011 C 
HETATM   25  C20 UNL     1      24.490   5.120  49.760  1.00  0.00     0.008 C 
HETATM   26  C21 UNL     1      24.558   6.193  50.543  1.00  0.00     0.017 C 
HETATM   27  H6  UNL     1      23.404   5.445  53.658  1.00  0.00     0.157 HD
HETATM   28  H13 UNL     1      19.581   0.739  51.408  1.00  0.00     0.189 HD
ENDROOT
TORSDOF 0
ENDMDL
MODEL 9
REMARK VINA RESULT:      -7.1      7.030      9.888
REMARK  0 active torsions:
REMARK  status: ('A' for Active; 'I' for Inactive)
ROOT
HETATM    1  C1  UNL     1      23.425   8.761  49.305  1.00  0.00     0.048 C 
HETATM    2  C2  UNL     1      24.830   9.019  48.895  1.00  0.00    -0.061 C 
HETATM    3  C3  UNL     1      25.525   8.195  49.726  1.00  0.00     0.018 C 
HETATM    4  C4  UNL     1      26.993   8.270  49.462  1.00  0.00     0.128 A 
HETATM    5  C5  UNL     1      26.785   7.175  48.511  1.00  0.00     0.175 A 
HETATM    6  N1  UNL     1      28.023   7.025  47.811  1.00  0.00    -0.262 NA
HETATM    7  C6  UNL     1      28.927   7.982  48.311  1.00  0.00     0.134 A 
HETATM    8  N2  UNL     1      27.960   8.356  49.113  1.00  0.00    -0.313 N 
HETATM    9  C7  UNL     1      27.843   9.213  49.988  1.00  0.00     0.185 A 
HETATM   10  N3  UNL     1      29.096   9.829  50.035  1.00  0.00    -0.380 N 
HETATM   11  C8  UNL     1      30.490   9.965  49.645  1.00  0.00     0.126 C 
HETATM   12  C9  UNL     1      30.545  11.159  48.729  1.00  0.00     0.002 C 
HETATM   13  C10 UNL     1      29.457  11.524  48.112  1.00  0.00    -0.002 C 
HETATM   14  C11 UNL     1      28.255  11.986  47.382  1.00  0.00     0.002 C 
HETATM   15  C12 UNL     1      26.983  11.898  47.087  1.00  0.00     0.031 C 
HETATM   16  C13 UNL     1      26.043  10.953  47.609  1.00  0.00     0.050 C 
HETATM   17  C14 UNL     1      25.051  10.141  48.002  1.00  0.00     0.037 C 
HETATM   18  N4  UNL     1      25.470  10.918  46.243  1.00  0.00    -0.278 N 
HETATM   19  N5  UNL     1      25.951   9.974  45.390  1.00  0.00    -0.184 NA
HETATM   20  C15 UNL     1      27.061   9.493  45.038  1.00  0.00     0.032 C 
HETATM   21  C16 UNL     1      26.531   8.509  44.051  1.00  0.00     0.068 C 
HETATM   22  C17 UNL     1      28.577   9.407  45.109  1.00  0.00     0.083 C 
HETATM   23  C18 UNL     1      29.083   8.115  45.559  1.00  0.00    -0.020 C 
HETATM   24  C19 UNL     1      29.770   7.570  46.588  1.00  0.00     0.011 C 
HETATM   25  C20 UNL     1      30.319   8.195  47.792  1.00  0.00     0.008 C 
HETATM   26  C21 UNL     1      30.963   8.774  48.801  1.00  0.00     0.017 C 
HETATM   27  H6  UNL     1      28.778  10.542  50.723  1.00  0.00     0.157 HD
HETATM   28  H13 UNL     1      24.737  11.466  45.759  1.00  0.00     0.189 HD
ENDROOT
TORSDOF 0
ENDMDL
