MODEL 1
REMARK VINA RESULT:      -6.7      0.000      0.000
REMARK  10 active torsions:
REMARK  status: ('A' for Active; 'I' for Inactive)
REMARK    1  A    between atoms: C2_2  and  N1_3 
REMARK    2  A    between atoms: N1_3  and  C3_4 
REMARK    3  A    between atoms: C3_4  and  C4_5 
REMARK    4  A    between atoms: C4_5  and  C5_6 
REMARK    5  A    between atoms: C5_6  and  C6_7 
REMARK       I    between atoms: C6_7  and  N2_9 
REMARK    6  A    between atoms: N2_9  and  C7_10 
REMARK    7  A    between atoms: C9_13  and  S1_14 
REMARK    8  A    between atoms: S1_14  and  C10_15 
REMARK    9  A    between atoms: C10_15  and  C11_16 
REMARK   10  A    between atoms: C13_19  and  C14_20 
ROOT
HETATM    1  C7  UNL     1      26.633   4.176  49.493  1.00  0.00     0.174 A 
HETATM    2  N3  UNL     1      27.682   4.380  48.822  1.00  0.00    -0.235 NA
HETATM    3  C8  UNL     1      27.941   5.621  48.412  1.00  0.00     0.145 A 
HETATM    4  C9  UNL     1      27.091   6.742  48.690  1.00  0.00     0.062 A 
HETATM    5  S2  UNL     1      25.758   5.855  49.672  1.00  0.00    -0.044 SA
ENDROOT
BRANCH   1   6
HETATM    6  N2  UNL     1      25.971   3.111  50.107  1.00  0.00    -0.306 N 
HETATM    7  C6  UNL     1      26.384   2.353  51.217  1.00  0.00     0.223 C 
HETATM    8  O1  UNL     1      27.483   2.623  51.767  1.00  0.00    -0.273 OA
HETATM    9  H13 UNL     1      25.059   2.857  49.681  1.00  0.00     0.171 HD
BRANCH   7  10
HETATM   10  C5  UNL     1      25.647   1.231  51.836  1.00  0.00     0.105 C 
BRANCH  10  11
HETATM   11  C4  UNL     1      26.712   0.185  52.192  1.00  0.00     0.039 C 
BRANCH  11  12
HETATM   12  C3  UNL     1      26.397  -0.359  53.566  1.00  0.00     0.270 C 
BRANCH  12  13
HETATM   13  N1  UNL     1      27.583  -0.511  54.374  1.00  0.00     0.083 N 
HETATM   14  H6  UNL     1      27.396   0.066  55.246  1.00  0.00     0.315 HD
BRANCH  13  15
HETATM   15  C2  UNL     1      28.775   0.017  53.780  1.00  0.00     0.265 C 
HETATM   16  C1  UNL     1      29.902  -0.960  53.648  1.00  0.00     0.037 C 
ENDBRANCH  13  15
ENDBRANCH  12  13
ENDBRANCH  11  12
ENDBRANCH  10  11
ENDBRANCH   7  10
ENDBRANCH   1   6
BRANCH   4  17
HETATM   17  S1  UNL     1      27.390   8.352  48.177  1.00  0.00    -0.115 SA
BRANCH  17  18
HETATM   18  C10 UNL     1      28.415   9.319  49.341  1.00  0.00     0.140 C 
BRANCH  18  19
HETATM   19  C11 UNL     1      29.826   9.054  49.022  1.00  0.00     0.052 A 
HETATM   20  N4  UNL     1      30.653   8.058  49.105  1.00  0.00    -0.263 NA
HETATM   21  C12 UNL     1      31.714   8.798  48.562  1.00  0.00     0.127 A 
HETATM   22  C13 UNL     1      30.903   9.855  48.454  1.00  0.00    -0.008 A 
BRANCH  22  23
HETATM   23  C14 UNL     1      31.008  11.259  47.970  1.00  0.00    -0.021 C 
HETATM   24  C15 UNL     1      32.374  11.446  47.355  1.00  0.00     0.019 C 
HETATM   25  C16 UNL     1      30.774  12.170  49.155  1.00  0.00     0.019 C 
HETATM   26  C17 UNL     1      29.913  11.558  46.967  1.00  0.00     0.019 C 
ENDBRANCH  22  23
ENDBRANCH  18  19
ENDBRANCH  17  18
ENDBRANCH   4  17
TORSDOF 10
ENDMDL
MODEL 2
REMARK VINA RESULT:      -6.5      2.400      9.602
REMARK  10 active torsions:
REMARK  status: ('A' for Active; 'I' for Inactive)
REMARK    1  A    between atoms: C2_2  and  N1_3 
REMARK    2  A    between atoms: N1_3  and  C3_4 
REMARK    3  A    between atoms: C3_4  and  C4_5 
REMARK    4  A    between atoms: C4_5  and  C5_6 
REMARK    5  A    between atoms: C5_6  and  C6_7 
REMARK       I    between atoms: C6_7  and  N2_9 
REMARK    6  A    between atoms: N2_9  and  C7_10 
REMARK    7  A    between atoms: C9_13  and  S1_14 
REMARK    8  A    between atoms: S1_14  and  C10_15 
REMARK    9  A    between atoms: C10_15  and  C11_16 
REMARK   10  A    between atoms: C13_19  and  C14_20 
ROOT
HETATM    1  C7  UNL     1      27.099   5.173  48.888  1.00  0.00     0.174 A 
HETATM    2  N3  UNL     1      27.172   3.920  49.022  1.00  0.00    -0.235 NA
HETATM    3  C8  UNL     1      26.185   3.292  49.658  1.00  0.00     0.145 A 
HETATM    4  C9  UNL     1      25.039   3.961  50.202  1.00  0.00     0.062 A 
HETATM    5  S2  UNL     1      25.476   5.721  49.714  1.00  0.00    -0.044 SA
ENDROOT
BRANCH   1   6
HETATM    6  N2  UNL     1      27.844   6.215  48.332  1.00  0.00    -0.306 N 
HETATM    7  C6  UNL     1      29.240   6.304  48.184  1.00  0.00     0.223 C 
HETATM    8  O1  UNL     1      29.959   5.353  48.588  1.00  0.00    -0.273 OA
HETATM    9  H13 UNL     1      27.285   7.019  47.988  1.00  0.00     0.171 HD
BRANCH   7  10
HETATM   10  C5  UNL     1      29.988   7.429  47.586  1.00  0.00     0.105 C 
BRANCH  10  11
HETATM   11  C4  UNL     1      30.568   8.214  48.771  1.00  0.00     0.039 C 
BRANCH  11  12
HETATM   12  C3  UNL     1      29.796   9.507  48.902  1.00  0.00     0.270 C 
BRANCH  12  13
HETATM   13  N1  UNL     1      29.079   9.585  50.152  1.00  0.00     0.083 N 
HETATM   14  H6  UNL     1      29.499   8.820  50.757  1.00  0.00     0.315 HD
BRANCH  13  15
HETATM   15  C2  UNL     1      27.678   9.302  50.048  1.00  0.00     0.265 C 
HETATM   16  C1  UNL     1      26.984   9.960  48.896  1.00  0.00     0.037 C 
ENDBRANCH  13  15
ENDBRANCH  12  13
ENDBRANCH  11  12
ENDBRANCH  10  11
ENDBRANCH   7  10
ENDBRANCH   1   6
BRANCH   4  17
HETATM   17  S1  UNL     1      23.750   3.185  51.027  1.00  0.00    -0.115 SA
BRANCH  17  18
HETATM   18  C10 UNL     1      24.097   2.853  52.791  1.00  0.00     0.140 C 
BRANCH  18  19
HETATM   19  C11 UNL     1      23.828   1.428  53.039  1.00  0.00     0.052 A 
HETATM   20  N4  UNL     1      22.793   0.669  53.224  1.00  0.00    -0.263 NA
HETATM   21  C12 UNL     1      23.574  -0.487  53.364  1.00  0.00     0.127 A 
HETATM   22  C13 UNL     1      24.673   0.249  53.179  1.00  0.00    -0.008 A 
BRANCH  22  23
HETATM   23  C14 UNL     1      26.142   0.012  53.129  1.00  0.00    -0.021 C 
HETATM   24  C15 UNL     1      26.742   0.477  54.434  1.00  0.00     0.019 C 
HETATM   25  C16 UNL     1      26.687   0.767  51.937  1.00  0.00     0.019 C 
HETATM   26  C17 UNL     1      26.435  -1.454  52.887  1.00  0.00     0.019 C 
ENDBRANCH  22  23
ENDBRANCH  18  19
ENDBRANCH  17  18
ENDBRANCH   4  17
TORSDOF 10
ENDMDL
MODEL 3
REMARK VINA RESULT:      -6.4      1.585      2.238
REMARK  10 active torsions:
REMARK  status: ('A' for Active; 'I' for Inactive)
REMARK    1  A    between atoms: C2_2  and  N1_3 
REMARK    2  A    between atoms: N1_3  and  C3_4 
REMARK    3  A    between atoms: C3_4  and  C4_5 
REMARK    4  A    between atoms: C4_5  and  C5_6 
REMARK    5  A    between atoms: C5_6  and  C6_7 
REMARK       I    between atoms: C6_7  and  N2_9 
REMARK    6  A    between atoms: N2_9  and  C7_10 
REMARK    7  A    between atoms: C9_13  and  S1_14 
REMARK    8  A    between atoms: S1_14  and  C10_15 
REMARK    9  A    between atoms: C10_15  and  C11_16 
REMARK   10  A    between atoms: C13_19  and  C14_20 
ROOT
HETATM    1  C7  UNL     1      26.519   3.834  49.828  1.00  0.00     0.174 A 
HETATM    2  N3  UNL     1      27.502   4.100  49.082  1.00  0.00    -0.235 NA
HETATM    3  C8  UNL     1      27.565   5.307  48.523  1.00  0.00     0.145 A 
HETATM    4  C9  UNL     1      26.575   6.326  48.720  1.00  0.00     0.062 A 
HETATM    5  S2  UNL     1      25.420   5.386  49.865  1.00  0.00    -0.044 SA
ENDROOT
BRANCH   1   6
HETATM    6  N2  UNL     1      26.038   2.768  50.591  1.00  0.00    -0.306 N 
HETATM    7  C6  UNL     1      26.649   2.141  51.691  1.00  0.00     0.223 C 
HETATM    8  O1  UNL     1      27.774   2.549  52.080  1.00  0.00    -0.273 OA
HETATM    9  H13 UNL     1      25.111   2.403  50.299  1.00  0.00     0.171 HD
BRANCH   7  10
HETATM   10  C5  UNL     1      26.101   1.012  52.472  1.00  0.00     0.105 C 
BRANCH  10  11
HETATM   11  C4  UNL     1      26.286   1.402  53.945  1.00  0.00     0.039 C 
BRANCH  11  12
HETATM   12  C3  UNL     1      27.179   0.372  54.596  1.00  0.00     0.270 C 
BRANCH  12  13
HETATM   13  N1  UNL     1      28.519   0.868  54.801  1.00  0.00     0.083 N 
HETATM   14  H6  UNL     1      28.465   1.904  54.572  1.00  0.00     0.315 HD
BRANCH  13  15
HETATM   15  C2  UNL     1      29.500   0.305  53.923  1.00  0.00     0.265 C 
HETATM   16  C1  UNL     1      29.277  -1.132  53.566  1.00  0.00     0.037 C 
ENDBRANCH  13  15
ENDBRANCH  12  13
ENDBRANCH  11  12
ENDBRANCH  10  11
ENDBRANCH   7  10
ENDBRANCH   1   6
BRANCH   4  17
HETATM   17  S1  UNL     1      26.623   7.890  48.016  1.00  0.00    -0.115 SA
BRANCH  17  18
HETATM   18  C10 UNL     1      28.178   8.251  47.124  1.00  0.00     0.140 C 
BRANCH  18  19
HETATM   19  C11 UNL     1      29.180   8.659  48.120  1.00  0.00     0.052 A 
HETATM   20  N4  UNL     1      29.228   9.417  49.172  1.00  0.00    -0.263 NA
HETATM   21  C12 UNL     1      30.585   9.142  49.398  1.00  0.00     0.127 A 
HETATM   22  C13 UNL     1      30.590   8.349  48.323  1.00  0.00    -0.008 A 
BRANCH  22  23
HETATM   23  C14 UNL     1      31.579   7.499  47.606  1.00  0.00    -0.021 C 
HETATM   24  C15 UNL     1      32.887   7.559  48.358  1.00  0.00     0.019 C 
HETATM   25  C16 UNL     1      31.696   8.024  46.193  1.00  0.00     0.019 C 
HETATM   26  C17 UNL     1      31.076   6.073  47.502  1.00  0.00     0.019 C 
ENDBRANCH  22  23
ENDBRANCH  18  19
ENDBRANCH  17  18
ENDBRANCH   4  17
TORSDOF 10
ENDMDL
MODEL 4
REMARK VINA RESULT:      -6.3      2.625     10.200
REMARK  10 active torsions:
REMARK  status: ('A' for Active; 'I' for Inactive)
REMARK    1  A    between atoms: C2_2  and  N1_3 
REMARK    2  A    between atoms: N1_3  and  C3_4 
REMARK    3  A    between atoms: C3_4  and  C4_5 
REMARK    4  A    between atoms: C4_5  and  C5_6 
REMARK    5  A    between atoms: C5_6  and  C6_7 
REMARK       I    between atoms: C6_7  and  N2_9 
REMARK    6  A    between atoms: N2_9  and  C7_10 
REMARK    7  A    between atoms: C9_13  and  S1_14 
REMARK    8  A    between atoms: S1_14  and  C10_15 
REMARK    9  A    between atoms: C10_15  and  C11_16 
REMARK   10  A    between atoms: C13_19  and  C14_20 
ROOT
HETATM    1  C7  UNL     1      26.959   4.941  48.993  1.00  0.00     0.174 A 
HETATM    2  N3  UNL     1      27.057   3.732  49.340  1.00  0.00    -0.235 NA
HETATM    3  C8  UNL     1      26.105   3.216  50.116  1.00  0.00     0.145 A 
HETATM    4  C9  UNL     1      24.971   3.960  50.582  1.00  0.00     0.062 A 
HETATM    5  S2  UNL     1      25.361   5.611  49.777  1.00  0.00    -0.044 SA
ENDROOT
BRANCH   1   6
HETATM    6  N2  UNL     1      27.666   5.876  48.234  1.00  0.00    -0.306 N 
HETATM    7  C6  UNL     1      29.059   6.015  48.102  1.00  0.00     0.223 C 
HETATM    8  O1  UNL     1      29.814   5.224  48.725  1.00  0.00    -0.273 OA
HETATM    9  H13 UNL     1      27.077   6.548  47.706  1.00  0.00     0.171 HD
BRANCH   7  10
HETATM   10  C5  UNL     1      29.766   7.022  47.283  1.00  0.00     0.105 C 
BRANCH  10  11
HETATM   11  C4  UNL     1      29.212   8.381  47.733  1.00  0.00     0.039 C 
BRANCH  11  12
HETATM   12  C3  UNL     1      29.947   8.797  48.986  1.00  0.00     0.270 C 
BRANCH  12  13
HETATM   13  N1  UNL     1      29.046   9.270  50.010  1.00  0.00     0.083 N 
HETATM   14  H6  UNL     1      28.789   8.405  50.570  1.00  0.00     0.315 HD
BRANCH  13  15
HETATM   15  C2  UNL     1      27.819   9.815  49.512  1.00  0.00     0.265 C 
HETATM   16  C1  UNL     1      26.578   9.233  50.116  1.00  0.00     0.037 C 
ENDBRANCH  13  15
ENDBRANCH  12  13
ENDBRANCH  11  12
ENDBRANCH  10  11
ENDBRANCH   7  10
ENDBRANCH   1   6
BRANCH   4  17
HETATM   17  S1  UNL     1      23.727   3.329  51.582  1.00  0.00    -0.115 SA
BRANCH  17  18
HETATM   18  C10 UNL     1      23.454   1.534  51.376  1.00  0.00     0.140 C 
BRANCH  18  19
HETATM   19  C11 UNL     1      24.220   0.842  52.424  1.00  0.00     0.052 A 
HETATM   20  N4  UNL     1      25.456   0.760  52.807  1.00  0.00    -0.263 NA
HETATM   21  C12 UNL     1      25.151  -0.122  53.854  1.00  0.00     0.127 A 
HETATM   22  C13 UNL     1      23.863  -0.073  53.501  1.00  0.00    -0.008 A 
BRANCH  22  23
HETATM   23  C14 UNL     1      22.585  -0.673  53.973  1.00  0.00    -0.021 C 
HETATM   24  C15 UNL     1      22.123  -1.674  52.942  1.00  0.00     0.019 C 
HETATM   25  C16 UNL     1      21.596   0.454  54.173  1.00  0.00     0.019 C 
HETATM   26  C17 UNL     1      22.775  -1.331  55.324  1.00  0.00     0.019 C 
ENDBRANCH  22  23
ENDBRANCH  18  19
ENDBRANCH  17  18
ENDBRANCH   4  17
TORSDOF 10
ENDMDL
MODEL 5
REMARK VINA RESULT:      -6.3      2.923      9.333
REMARK  10 active torsions:
REMARK  status: ('A' for Active; 'I' for Inactive)
REMARK    1  A    between atoms: C2_2  and  N1_3 
REMARK    2  A    between atoms: N1_3  and  C3_4 
REMARK    3  A    between atoms: C3_4  and  C4_5 
REMARK    4  A    between atoms: C4_5  and  C5_6 
REMARK    5  A    between atoms: C5_6  and  C6_7 
REMARK       I    between atoms: C6_7  and  N2_9 
REMARK    6  A    between atoms: N2_9  and  C7_10 
REMARK    7  A    between atoms: C9_13  and  S1_14 
REMARK    8  A    between atoms: S1_14  and  C10_15 
REMARK    9  A    between atoms: C10_15  and  C11_16 
REMARK   10  A    between atoms: C13_19  and  C14_20 
ROOT
HETATM    1  C7  UNL     1      27.213   5.113  48.802  1.00  0.00     0.174 A 
HETATM    2  N3  UNL     1      27.200   3.884  49.090  1.00  0.00    -0.235 NA
HETATM    3  C8  UNL     1      26.201   3.418  49.838  1.00  0.00     0.145 A 
HETATM    4  C9  UNL     1      25.136   4.237  50.338  1.00  0.00     0.062 A 
HETATM    5  S2  UNL     1      25.676   5.885  49.616  1.00  0.00    -0.044 SA
ENDROOT
BRANCH   1   6
HETATM    6  N2  UNL     1      28.004   6.017  48.090  1.00  0.00    -0.306 N 
HETATM    7  C6  UNL     1      29.407   6.107  48.058  1.00  0.00     0.223 C 
HETATM    8  O1  UNL     1      30.087   5.295  48.739  1.00  0.00    -0.273 OA
HETATM    9  H13 UNL     1      27.478   6.704  47.517  1.00  0.00     0.171 HD
BRANCH   7  10
HETATM   10  C5  UNL     1      30.206   7.083  47.287  1.00  0.00     0.105 C 
BRANCH  10  11
HETATM   11  C4  UNL     1      31.365   7.486  48.208  1.00  0.00     0.039 C 
BRANCH  11  12
HETATM   12  C3  UNL     1      32.660   7.240  47.470  1.00  0.00     0.270 C 
BRANCH  12  13
HETATM   13  N1  UNL     1      32.897   5.833  47.246  1.00  0.00     0.083 N 
HETATM   14  H6  UNL     1      31.931   5.391  47.245  1.00  0.00     0.315 HD
BRANCH  13  15
HETATM   15  C2  UNL     1      33.643   5.187  48.284  1.00  0.00     0.265 C 
HETATM   16  C1  UNL     1      34.535   4.076  47.823  1.00  0.00     0.037 C 
ENDBRANCH  13  15
ENDBRANCH  12  13
ENDBRANCH  11  12
ENDBRANCH  10  11
ENDBRANCH   7  10
ENDBRANCH   1   6
BRANCH   4  17
HETATM   17  S1  UNL     1      23.835   3.672  51.305  1.00  0.00    -0.115 SA
BRANCH  17  18
HETATM   18  C10 UNL     1      24.348   3.067  52.951  1.00  0.00     0.140 C 
BRANCH  18  19
HETATM   19  C11 UNL     1      23.983   1.645  53.039  1.00  0.00     0.052 A 
HETATM   20  N4  UNL     1      22.896   0.937  53.049  1.00  0.00    -0.263 NA
HETATM   21  C12 UNL     1      23.597  -0.273  53.159  1.00  0.00     0.127 A 
HETATM   22  C13 UNL     1      24.746   0.409  53.153  1.00  0.00    -0.008 A 
BRANCH  22  23
HETATM   23  C14 UNL     1      26.198   0.089  53.226  1.00  0.00    -0.021 C 
HETATM   24  C15 UNL     1      26.696   0.463  54.602  1.00  0.00     0.019 C 
HETATM   25  C16 UNL     1      26.893   0.860  52.126  1.00  0.00     0.019 C 
HETATM   26  C17 UNL     1      26.432  -1.381  52.944  1.00  0.00     0.019 C 
ENDBRANCH  22  23
ENDBRANCH  18  19
ENDBRANCH  17  18
ENDBRANCH   4  17
TORSDOF 10
ENDMDL
MODEL 6
REMARK VINA RESULT:      -6.2      3.478      9.330
REMARK  10 active torsions:
REMARK  status: ('A' for Active; 'I' for Inactive)
REMARK    1  A    between atoms: C2_2  and  N1_3 
REMARK    2  A    between atoms: N1_3  and  C3_4 
REMARK    3  A    between atoms: C3_4  and  C4_5 
REMARK    4  A    between atoms: C4_5  and  C5_6 
REMARK    5  A    between atoms: C5_6  and  C6_7 
REMARK       I    between atoms: C6_7  and  N2_9 
REMARK    6  A    between atoms: N2_9  and  C7_10 
REMARK    7  A    between atoms: C9_13  and  S1_14 
REMARK    8  A    between atoms: S1_14  and  C10_15 
REMARK    9  A    between atoms: C10_15  and  C11_16 
REMARK   10  A    between atoms: C13_19  and  C14_20 
ROOT
HETATM    1  C7  UNL     1      25.167   6.348  50.588  1.00  0.00     0.174 A 
HETATM    2  N3  UNL     1      24.061   6.700  51.082  1.00  0.00    -0.235 NA
HETATM    3  C8  UNL     1      23.165   5.756  51.369  1.00  0.00     0.145 A 
HETATM    4  C9  UNL     1      23.388   4.357  51.145  1.00  0.00     0.062 A 
HETATM    5  S2  UNL     1      25.122   4.453  50.430  1.00  0.00    -0.044 SA
ENDROOT
BRANCH   1   6
HETATM    6  N2  UNL     1      26.354   6.936  50.145  1.00  0.00    -0.306 N 
HETATM    7  C6  UNL     1      26.703   7.311  48.835  1.00  0.00     0.223 C 
HETATM    8  O1  UNL     1      25.880   7.114  47.904  1.00  0.00    -0.273 OA
HETATM    9  H13 UNL     1      27.059   7.113  50.886  1.00  0.00     0.171 HD
BRANCH   7  10
HETATM   10  C5  UNL     1      27.974   7.934  48.411  1.00  0.00     0.105 C 
BRANCH  10  11
HETATM   11  C4  UNL     1      28.616   6.937  47.437  1.00  0.00     0.039 C 
BRANCH  11  12
HETATM   12  C3  UNL     1      29.098   5.746  48.232  1.00  0.00     0.270 C 
BRANCH  12  13
HETATM   13  N1  UNL     1      30.116   6.109  49.189  1.00  0.00     0.083 N 
HETATM   14  H6  UNL     1      29.830   7.070  49.540  1.00  0.00     0.315 HD
BRANCH  13  15
HETATM   15  C2  UNL     1      31.428   6.250  48.632  1.00  0.00     0.265 C 
HETATM   16  C1  UNL     1      32.019   4.989  48.081  1.00  0.00     0.037 C 
ENDBRANCH  13  15
ENDBRANCH  12  13
ENDBRANCH  11  12
ENDBRANCH  10  11
ENDBRANCH   7  10
ENDBRANCH   1   6
BRANCH   4  17
HETATM   17  S1  UNL     1      22.258   3.115  51.499  1.00  0.00    -0.115 SA
BRANCH  17  18
HETATM   18  C10 UNL     1      22.805   1.450  50.981  1.00  0.00     0.140 C 
BRANCH  18  19
HETATM   19  C11 UNL     1      22.909   0.618  52.190  1.00  0.00     0.052 A 
HETATM   20  N4  UNL     1      22.144  -0.180  52.869  1.00  0.00    -0.263 NA
HETATM   21  C12 UNL     1      23.147  -0.459  53.810  1.00  0.00     0.127 A 
HETATM   22  C13 UNL     1      23.976   0.352  53.147  1.00  0.00    -0.008 A 
BRANCH  22  23
HETATM   23  C14 UNL     1      25.385   0.813  53.285  1.00  0.00    -0.021 C 
HETATM   24  C15 UNL     1      26.117   0.489  52.005  1.00  0.00     0.019 C 
HETATM   25  C16 UNL     1      25.979   0.113  54.487  1.00  0.00     0.019 C 
HETATM   26  C17 UNL     1      25.430   2.298  53.578  1.00  0.00     0.019 C 
ENDBRANCH  22  23
ENDBRANCH  18  19
ENDBRANCH  17  18
ENDBRANCH   4  17
TORSDOF 10
ENDMDL
MODEL 7
REMARK VINA RESULT:      -6.1      3.789     10.025
REMARK  10 active torsions:
REMARK  status: ('A' for Active; 'I' for Inactive)
REMARK    1  A    between atoms: C2_2  and  N1_3 
REMARK    2  A    between atoms: N1_3  and  C3_4 
REMARK    3  A    between atoms: C3_4  and  C4_5 
REMARK    4  A    between atoms: C4_5  and  C5_6 
REMARK    5  A    between atoms: C5_6  and  C6_7 
REMARK       I    between atoms: C6_7  and  N2_9 
REMARK    6  A    between atoms: N2_9  and  C7_10 
REMARK    7  A    between atoms: C9_13  and  S1_14 
REMARK    8  A    between atoms: S1_14  and  C10_15 
REMARK    9  A    between atoms: C10_15  and  C11_16 
REMARK   10  A    between atoms: C13_19  and  C14_20 
ROOT
HETATM    1  C7  UNL     1      26.592   4.957  49.132  1.00  0.00     0.174 A 
HETATM    2  N3  UNL     1      25.447   5.458  48.956  1.00  0.00    -0.235 NA
HETATM    3  C8  UNL     1      24.383   4.763  49.356  1.00  0.00     0.145 A 
HETATM    4  C9  UNL     1      24.466   3.473  49.976  1.00  0.00     0.062 A 
HETATM    5  S2  UNL     1      26.332   3.268  49.966  1.00  0.00    -0.044 SA
ENDROOT
BRANCH   1   6
HETATM    6  N2  UNL     1      27.928   5.284  48.892  1.00  0.00    -0.306 N 
HETATM    7  C6  UNL     1      28.441   6.337  48.114  1.00  0.00     0.223 C 
HETATM    8  O1  UNL     1      27.639   7.116  47.536  1.00  0.00    -0.273 OA
HETATM    9  H13 UNL     1      28.621   4.663  49.352  1.00  0.00     0.171 HD
BRANCH   7  10
HETATM   10  C5  UNL     1      29.868   6.647  47.888  1.00  0.00     0.105 C 
BRANCH  10  11
HETATM   11  C4  UNL     1      30.603   5.304  47.994  1.00  0.00     0.039 C 
BRANCH  11  12
HETATM   12  C3  UNL     1      32.089   5.575  47.947  1.00  0.00     0.270 C 
BRANCH  12  13
HETATM   13  N1  UNL     1      32.857   4.480  48.490  1.00  0.00     0.083 N 
HETATM   14  H6  UNL     1      33.854   4.841  48.534  1.00  0.00     0.315 HD
BRANCH  13  15
HETATM   15  C2  UNL     1      32.881   3.309  47.665  1.00  0.00     0.265 C 
HETATM   16  C1  UNL     1      33.313   3.542  46.250  1.00  0.00     0.037 C 
ENDBRANCH  13  15
ENDBRANCH  12  13
ENDBRANCH  11  12
ENDBRANCH  10  11
ENDBRANCH   7  10
ENDBRANCH   1   6
BRANCH   4  17
HETATM   17  S1  UNL     1      23.118   2.549  50.502  1.00  0.00    -0.115 SA
BRANCH  17  18
HETATM   18  C10 UNL     1      22.836   2.616  52.307  1.00  0.00     0.140 C 
BRANCH  18  19
HETATM   19  C11 UNL     1      23.437   1.411  52.898  1.00  0.00     0.052 A 
HETATM   20  N4  UNL     1      24.627   0.969  53.164  1.00  0.00    -0.263 NA
HETATM   21  C12 UNL     1      24.141  -0.233  53.700  1.00  0.00     0.127 A 
HETATM   22  C13 UNL     1      22.894   0.174  53.447  1.00  0.00    -0.008 A 
BRANCH  22  23
HETATM   23  C14 UNL     1      21.518  -0.364  53.630  1.00  0.00    -0.021 C 
HETATM   24  C15 UNL     1      20.810  -0.316  52.298  1.00  0.00     0.019 C 
HETATM   25  C16 UNL     1      20.833   0.478  54.684  1.00  0.00     0.019 C 
HETATM   26  C17 UNL     1      21.570  -1.779  54.169  1.00  0.00     0.019 C 
ENDBRANCH  22  23
ENDBRANCH  18  19
ENDBRANCH  17  18
ENDBRANCH   4  17
TORSDOF 10
ENDMDL
MODEL 8
REMARK VINA RESULT:      -6.1      3.752     10.952
REMARK  10 active torsions:
REMARK  status: ('A' for Active; 'I' for Inactive)
REMARK    1  A    between atoms: C2_2  and  N1_3 
REMARK    2  A    between atoms: N1_3  and  C3_4 
REMARK    3  A    between atoms: C3_4  and  C4_5 
REMARK    4  A    between atoms: C4_5  and  C5_6 
REMARK    5  A    between atoms: C5_6  and  C6_7 
REMARK       I    between atoms: C6_7  and  N2_9 
REMARK    6  A    between atoms: N2_9  and  C7_10 
REMARK    7  A    between atoms: C9_13  and  S1_14 
REMARK    8  A    between atoms: S1_14  and  C10_15 
REMARK    9  A    between atoms: C10_15  and  C11_16 
REMARK   10  A    between atoms: C13_19  and  C14_20 
ROOT
HETATM    1  C7  UNL     1      26.157   3.255  50.978  1.00  0.00     0.174 A 
HETATM    2  N3  UNL     1      27.003   2.446  51.451  1.00  0.00    -0.235 NA
HETATM    3  C8  UNL     1      26.557   1.354  52.070  1.00  0.00     0.145 A 
HETATM    4  C9  UNL     1      25.166   1.044  52.229  1.00  0.00     0.062 A 
HETATM    5  S2  UNL     1      24.437   2.542  51.363  1.00  0.00    -0.044 SA
ENDROOT
BRANCH   1   6
HETATM    6  N2  UNL     1      26.138   4.468  50.287  1.00  0.00    -0.306 N 
HETATM    7  C6  UNL     1      26.919   4.853  49.183  1.00  0.00     0.223 C 
HETATM    8  O1  UNL     1      27.760   4.042  48.716  1.00  0.00    -0.273 OA
HETATM    9  H13 UNL     1      25.457   5.165  50.643  1.00  0.00     0.171 HD
BRANCH   7  10
HETATM   10  C5  UNL     1      26.864   6.153  48.480  1.00  0.00     0.105 C 
BRANCH  10  11
HETATM   11  C4  UNL     1      28.325   6.530  48.198  1.00  0.00     0.039 C 
BRANCH  11  12
HETATM   12  C3  UNL     1      28.429   8.038  48.197  1.00  0.00     0.270 C 
BRANCH  12  13
HETATM   13  N1  UNL     1      28.969   8.544  49.436  1.00  0.00     0.083 N 
HETATM   14  H6  UNL     1      28.138   8.600  50.094  1.00  0.00     0.315 HD
BRANCH  13  15
HETATM   15  C2  UNL     1      29.512   9.867  49.348  1.00  0.00     0.265 C 
HETATM   16  C1  UNL     1      30.949   9.934  48.934  1.00  0.00     0.037 C 
ENDBRANCH  13  15
ENDBRANCH  12  13
ENDBRANCH  11  12
ENDBRANCH  10  11
ENDBRANCH   7  10
ENDBRANCH   1   6
BRANCH   4  17
HETATM   17  S1  UNL     1      24.557  -0.352  53.020  1.00  0.00    -0.115 SA
BRANCH  17  18
HETATM   18  C10 UNL     1      23.506   0.021  54.469  1.00  0.00     0.140 C 
BRANCH  18  19
HETATM   19  C11 UNL     1      22.288  -0.797  54.359  1.00  0.00     0.052 A 
HETATM   20  N4  UNL     1      21.818  -1.886  54.885  1.00  0.00    -0.263 NA
HETATM   21  C12 UNL     1      20.629  -1.818  54.143  1.00  0.00     0.127 A 
HETATM   22  C13 UNL     1      21.066  -0.693  53.571  1.00  0.00    -0.008 A 
BRANCH  22  23
HETATM   23  C14 UNL     1      20.561   0.280  52.564  1.00  0.00    -0.021 C 
HETATM   24  C15 UNL     1      19.106  -0.027  52.298  1.00  0.00     0.019 C 
HETATM   25  C16 UNL     1      21.420   0.146  51.326  1.00  0.00     0.019 C 
HETATM   26  C17 UNL     1      20.735   1.700  53.064  1.00  0.00     0.019 C 
ENDBRANCH  22  23
ENDBRANCH  18  19
ENDBRANCH  17  18
ENDBRANCH   4  17
TORSDOF 10
ENDMDL
MODEL 9
REMARK VINA RESULT:      -6.0      3.283      4.798
REMARK  10 active torsions:
REMARK  status: ('A' for Active; 'I' for Inactive)
REMARK    1  A    between atoms: C2_2  and  N1_3 
REMARK    2  A    between atoms: N1_3  and  C3_4 
REMARK    3  A    between atoms: C3_4  and  C4_5 
REMARK    4  A    between atoms: C4_5  and  C5_6 
REMARK    5  A    between atoms: C5_6  and  C6_7 
REMARK       I    between atoms: C6_7  and  N2_9 
REMARK    6  A    between atoms: N2_9  and  C7_10 
REMARK    7  A    between atoms: C9_13  and  S1_14 
REMARK    8  A    between atoms: S1_14  and  C10_15 
REMARK    9  A    between atoms: C10_15  and  C11_16 
REMARK   10  A    between atoms: C13_19  and  C14_20 
ROOT
HETATM    1  C7  UNL     1      27.608   5.366  48.609  1.00  0.00     0.174 A 
HETATM    2  N3  UNL     1      28.756   4.853  48.495  1.00  0.00    -0.235 NA
HETATM    3  C8  UNL     1      29.765   5.634  48.112  1.00  0.00     0.145 A 
HETATM    4  C9  UNL     1      29.620   7.030  47.819  1.00  0.00     0.062 A 
HETATM    5  S2  UNL     1      27.780   7.204  48.150  1.00  0.00    -0.044 SA
ENDROOT
BRANCH   1   6
HETATM    6  N2  UNL     1      26.313   4.977  48.957  1.00  0.00    -0.306 N 
HETATM    7  C6  UNL     1      25.920   3.945  49.828  1.00  0.00     0.223 C 
HETATM    8  O1  UNL     1      26.805   3.252  50.394  1.00  0.00    -0.273 OA
HETATM    9  H13 UNL     1      25.555   5.525  48.509  1.00  0.00     0.171 HD
BRANCH   7  10
HETATM   10  C5  UNL     1      24.532   3.567  50.170  1.00  0.00     0.105 C 
BRANCH  10  11
HETATM   11  C4  UNL     1      24.160   4.421  51.389  1.00  0.00     0.039 C 
BRANCH  11  12
HETATM   12  C3  UNL     1      23.917   3.493  52.557  1.00  0.00     0.270 C 
BRANCH  12  13
HETATM   13  N1  UNL     1      25.132   2.855  53.003  1.00  0.00     0.083 N 
HETATM   14  H6  UNL     1      25.816   2.975  52.198  1.00  0.00     0.315 HD
BRANCH  13  15
HETATM   15  C2  UNL     1      25.011   1.446  53.230  1.00  0.00     0.265 C 
HETATM   16  C1  UNL     1      26.019   0.601  52.515  1.00  0.00     0.037 C 
ENDBRANCH  13  15
ENDBRANCH  12  13
ENDBRANCH  11  12
ENDBRANCH  10  11
ENDBRANCH   7  10
ENDBRANCH   1   6
BRANCH   4  17
HETATM   17  S1  UNL     1      30.896   8.065  47.322  1.00  0.00    -0.115 SA
BRANCH  17  18
HETATM   18  C10 UNL     1      32.209   7.216  46.375  1.00  0.00     0.140 C 
BRANCH  18  19
HETATM   19  C11 UNL     1      33.244   6.790  47.330  1.00  0.00     0.052 A 
HETATM   20  N4  UNL     1      33.916   7.315  48.307  1.00  0.00    -0.263 NA
HETATM   21  C12 UNL     1      34.620   6.127  48.558  1.00  0.00     0.127 A 
HETATM   22  C13 UNL     1      33.954   5.538  47.561  1.00  0.00    -0.008 A 
BRANCH  22  23
HETATM   23  C14 UNL     1      33.918   4.192  46.926  1.00  0.00    -0.021 C 
HETATM   24  C15 UNL     1      34.668   3.230  47.815  1.00  0.00     0.019 C 
HETATM   25  C16 UNL     1      34.537   4.317  45.552  1.00  0.00     0.019 C 
HETATM   26  C17 UNL     1      32.487   3.741  46.720  1.00  0.00     0.019 C 
ENDBRANCH  22  23
ENDBRANCH  18  19
ENDBRANCH  17  18
ENDBRANCH   4  17
TORSDOF 10
ENDMDL
