MODEL 1
REMARK VINA RESULT:      -7.9      0.000      0.000
REMARK  1 active torsions:
REMARK  status: ('A' for Active; 'I' for Inactive)
REMARK    1  A    between atoms: C10_13  and  C11_14 
ROOT
HETATM    1  C1  UNL     1      32.008   2.187  46.741  1.00  0.00     0.076 C 
HETATM    2  C2  UNL     1      32.498   3.575  46.739  1.00  0.00     0.043 C 
HETATM    3  C3  UNL     1      32.471   4.678  46.051  1.00  0.00     0.047 C 
HETATM    4  C4  UNL     1      32.566   5.981  45.449  1.00  0.00     0.012 A 
HETATM    5  C5  UNL     1      33.500   6.036  44.446  1.00  0.00     0.130 A 
HETATM    6  N1  UNL     1      33.665   7.226  43.840  1.00  0.00    -0.271 NA
HETATM    7  C6  UNL     1      32.948   8.286  44.208  1.00  0.00     0.141 A 
HETATM    8  C7  UNL     1      32.008   8.246  45.209  1.00  0.00     0.089 A 
HETATM    9  C8  UNL     1      31.190   9.330  45.649  1.00  0.00     0.103 C 
HETATM   10  N2  UNL     1      30.527  10.226  45.991  1.00  0.00    -0.191 NA
HETATM   11  C9  UNL     1      31.827   7.040  45.838  1.00  0.00     0.067 A 
HETATM   12  N3  UNL     1      30.897   6.930  46.889  1.00  0.00    -0.354 N 
HETATM   13  C10 UNL     1      29.849   6.840  47.813  1.00  0.00     0.044 C 
HETATM   14  C13 UNL     1      29.465   7.908  48.511  1.00  0.00     0.003 C 
HETATM   15  C14 UNL     1      30.450   8.552  49.088  1.00  0.00     0.014 C 
HETATM   16  C15 UNL     1      31.795   8.035  48.920  1.00  0.00     0.001 C 
HETATM   17  C16 UNL     1      33.081   8.176  48.710  1.00  0.00    -0.000 C 
HETATM   18  C17 UNL     1      34.300   7.426  48.577  1.00  0.00    -0.004 C 
HETATM   19  C18 UNL     1      34.758   6.223  48.593  1.00  0.00    -0.025 C 
HETATM   20  C19 UNL     1      35.348   4.865  48.600  1.00  0.00     0.054 C 
HETATM   21  C20 UNL     1      34.725   3.995  47.506  1.00  0.00     0.179 C 
HETATM   22  O1  UNL     1      33.315   4.000  47.815  1.00  0.00    -0.355 OA
HETATM   23  H7  UNL     1      30.044   7.045  46.243  1.00  0.00     0.166 HD
ENDROOT
BRANCH  13  24
HETATM   24  C11 UNL     1      29.099   5.641  48.116  1.00  0.00     0.042 C 
HETATM   25  C12 UNL     1      27.901   5.358  48.591  1.00  0.00     0.087 C 
HETATM   26 CL1  UNL     1      27.012   3.851  48.946  1.00  0.00    -0.097 Cl
ENDBRANCH  13  24
TORSDOF 1
ENDMDL
MODEL 2
REMARK VINA RESULT:      -7.6      7.925     11.341
REMARK  1 active torsions:
REMARK  status: ('A' for Active; 'I' for Inactive)
REMARK    1  A    between atoms: C10_13  and  C11_14 
ROOT
HETATM    1  C1  UNL     1      26.792   3.565  49.714  1.00  0.00     0.076 C 
HETATM    2  C2  UNL     1      25.333   3.752  49.752  1.00  0.00     0.043 C 
HETATM    3  C3  UNL     1      24.221   3.301  49.251  1.00  0.00     0.047 C 
HETATM    4  C4  UNL     1      22.893   2.952  48.821  1.00  0.00     0.012 A 
HETATM    5  C5  UNL     1      22.565   3.502  47.608  1.00  0.00     0.130 A 
HETATM    6  N1  UNL     1      21.331   3.238  47.140  1.00  0.00    -0.271 NA
HETATM    7  C6  UNL     1      20.485   2.478  47.833  1.00  0.00     0.141 A 
HETATM    8  C7  UNL     1      20.801   1.920  49.047  1.00  0.00     0.089 A 
HETATM    9  C8  UNL     1      19.958   1.082  49.841  1.00  0.00     0.103 C 
HETATM   10  N2  UNL     1      19.258   0.397  50.472  1.00  0.00    -0.191 NA
HETATM   11  C9  UNL     1      22.055   2.178  49.540  1.00  0.00     0.067 A 
HETATM   12  N3  UNL     1      22.439   1.656  50.790  1.00  0.00    -0.354 N 
HETATM   13  C10 UNL     1      22.821   0.983  51.955  1.00  0.00     0.044 C 
HETATM   14  C13 UNL     1      21.915   0.633  52.867  1.00  0.00     0.003 C 
HETATM   15  C14 UNL     1      21.105   1.603  53.216  1.00  0.00     0.014 C 
HETATM   16  C15 UNL     1      21.297   2.904  52.603  1.00  0.00     0.001 C 
HETATM   17  C16 UNL     1      20.857   4.010  52.053  1.00  0.00    -0.000 C 
HETATM   18  C17 UNL     1      21.305   5.250  51.480  1.00  0.00    -0.004 C 
HETATM   19  C18 UNL     1      22.374   5.915  51.207  1.00  0.00    -0.025 C 
HETATM   20  C19 UNL     1      23.563   6.729  50.869  1.00  0.00     0.054 C 
HETATM   21  C20 UNL     1      24.477   5.981  49.896  1.00  0.00     0.179 C 
HETATM   22  O1  UNL     1      24.807   4.762  50.594  1.00  0.00    -0.355 OA
HETATM   23  H7  UNL     1      22.475   0.641  50.436  1.00  0.00     0.166 HD
ENDROOT
BRANCH  13  24
HETATM   24  C11 UNL     1      24.176   0.609  52.302  1.00  0.00     0.042 C 
HETATM   25  C12 UNL     1      25.390   0.994  51.959  1.00  0.00     0.087 C 
HETATM   26 CL1  UNL     1      27.043   0.501  52.421  1.00  0.00    -0.097 Cl
ENDBRANCH  13  24
TORSDOF 1
ENDMDL
MODEL 3
REMARK VINA RESULT:      -7.4      2.280      5.119
REMARK  1 active torsions:
REMARK  status: ('A' for Active; 'I' for Inactive)
REMARK    1  A    between atoms: C10_13  and  C11_14 
ROOT
HETATM    1  C1  UNL     1      29.915   9.873  47.649  1.00  0.00     0.076 C 
HETATM    2  C2  UNL     1      31.139   9.187  47.207  1.00  0.00     0.043 C 
HETATM    3  C3  UNL     1      32.228   8.631  47.651  1.00  0.00     0.047 C 
HETATM    4  C4  UNL     1      33.479   7.978  47.932  1.00  0.00     0.012 A 
HETATM    5  C5  UNL     1      34.499   8.864  48.171  1.00  0.00     0.130 A 
HETATM    6  N1  UNL     1      35.710   8.334  48.426  1.00  0.00    -0.271 NA
HETATM    7  C6  UNL     1      35.890   7.015  48.442  1.00  0.00     0.141 A 
HETATM    8  C7  UNL     1      34.878   6.117  48.206  1.00  0.00     0.089 A 
HETATM    9  C8  UNL     1      34.986   4.693  48.222  1.00  0.00     0.103 C 
HETATM   10  N2  UNL     1      35.093   3.533  48.245  1.00  0.00    -0.191 NA
HETATM   11  C9  UNL     1      33.636   6.639  47.944  1.00  0.00     0.067 A 
HETATM   12  N3  UNL     1      32.557   5.778  47.671  1.00  0.00    -0.354 N 
HETATM   13  C10 UNL     1      31.491   4.877  47.566  1.00  0.00     0.044 C 
HETATM   14  C13 UNL     1      31.690   3.637  47.120  1.00  0.00     0.003 C 
HETATM   15  C14 UNL     1      32.376   3.573  46.005  1.00  0.00     0.014 C 
HETATM   16  C15 UNL     1      32.807   4.818  45.398  1.00  0.00     0.001 C 
HETATM   17  C16 UNL     1      33.686   5.575  44.786  1.00  0.00    -0.000 C 
HETATM   18  C17 UNL     1      33.871   6.896  44.251  1.00  0.00    -0.004 C 
HETATM   19  C18 UNL     1      33.268   8.023  44.098  1.00  0.00    -0.025 C 
HETATM   20  C19 UNL     1      32.630   9.343  43.891  1.00  0.00     0.054 C 
HETATM   21  C20 UNL     1      32.231   9.971  45.228  1.00  0.00     0.179 C 
HETATM   22  O1  UNL     1      31.341   9.000  45.818  1.00  0.00    -0.355 OA
HETATM   23  H7  UNL     1      32.503   5.407  48.679  1.00  0.00     0.166 HD
ENDROOT
BRANCH  13  24
HETATM   24  C11 UNL     1      30.113   5.164  47.902  1.00  0.00     0.042 C 
HETATM   25  C12 UNL     1      29.330   6.225  47.893  1.00  0.00     0.087 C 
HETATM   26 CL1  UNL     1      27.622   6.531  48.316  1.00  0.00    -0.097 Cl
ENDBRANCH  13  24
TORSDOF 1
ENDMDL
MODEL 4
REMARK VINA RESULT:      -7.1      3.914      6.850
REMARK  1 active torsions:
REMARK  status: ('A' for Active; 'I' for Inactive)
REMARK    1  A    between atoms: C10_13  and  C11_14 
ROOT
HETATM    1  C1  UNL     1      23.356   7.081  47.164  1.00  0.00     0.076 C 
HETATM    2  C2  UNL     1      24.581   7.871  46.964  1.00  0.00     0.043 C 
HETATM    3  C3  UNL     1      25.417   8.654  47.580  1.00  0.00     0.047 C 
HETATM    4  C4  UNL     1      26.446   9.532  48.070  1.00  0.00     0.012 A 
HETATM    5  C5  UNL     1      26.046  10.843  48.122  1.00  0.00     0.130 A 
HETATM    6  N1  UNL     1      26.957  11.734  48.554  1.00  0.00    -0.271 NA
HETATM    7  C6  UNL     1      28.180  11.345  48.910  1.00  0.00     0.141 A 
HETATM    8  C7  UNL     1      28.593  10.036  48.865  1.00  0.00     0.089 A 
HETATM    9  C8  UNL     1      29.877   9.537  49.244  1.00  0.00     0.103 C 
HETATM   10  N2  UNL     1      30.928   9.149  49.563  1.00  0.00    -0.191 NA
HETATM   11  C9  UNL     1      27.677   9.113  48.426  1.00  0.00     0.067 A 
HETATM   12  N3  UNL     1      28.039   7.756  48.332  1.00  0.00    -0.354 N 
HETATM   13  C10 UNL     1      28.400   6.406  48.412  1.00  0.00     0.044 C 
HETATM   14  C13 UNL     1      29.675   6.035  48.303  1.00  0.00     0.003 C 
HETATM   15  C14 UNL     1      30.295   6.553  47.270  1.00  0.00     0.014 C 
HETATM   16  C15 UNL     1      29.542   7.423  46.388  1.00  0.00     0.001 C 
HETATM   17  C16 UNL     1      29.404   8.494  45.643  1.00  0.00    -0.000 C 
HETATM   18  C17 UNL     1      28.462   9.179  44.801  1.00  0.00    -0.004 C 
HETATM   19  C18 UNL     1      27.262   9.095  44.343  1.00  0.00    -0.025 C 
HETATM   20  C19 UNL     1      25.892   9.057  43.782  1.00  0.00     0.054 C 
HETATM   21  C20 UNL     1      24.847   9.051  44.900  1.00  0.00     0.179 C 
HETATM   22  O1  UNL     1      25.171   7.879  45.677  1.00  0.00    -0.355 OA
HETATM   23  H7  UNL     1      28.091   7.621  49.398  1.00  0.00     0.166 HD
ENDROOT
BRANCH  13  24
HETATM   24  C11 UNL     1      27.484   5.302  48.605  1.00  0.00     0.042 C 
HETATM   25  C12 UNL     1      26.270   5.144  49.095  1.00  0.00     0.087 C 
HETATM   26 CL1  UNL     1      25.171   3.752  49.308  1.00  0.00    -0.097 Cl
ENDBRANCH  13  24
TORSDOF 1
ENDMDL
MODEL 5
REMARK VINA RESULT:      -7.0      9.437     12.302
REMARK  1 active torsions:
REMARK  status: ('A' for Active; 'I' for Inactive)
REMARK    1  A    between atoms: C10_13  and  C11_14 
ROOT
HETATM    1  C1  UNL     1      20.267   7.134  49.710  1.00  0.00     0.076 C 
HETATM    2  C2  UNL     1      21.088   5.921  49.571  1.00  0.00     0.043 C 
HETATM    3  C3  UNL     1      21.993   5.211  50.179  1.00  0.00     0.047 C 
HETATM    4  C4  UNL     1      22.984   4.295  50.677  1.00  0.00     0.012 A 
HETATM    5  C5  UNL     1      24.266   4.743  50.482  1.00  0.00     0.130 A 
HETATM    6  N1  UNL     1      25.257   3.936  50.905  1.00  0.00    -0.271 NA
HETATM    7  C6  UNL     1      24.988   2.766  51.481  1.00  0.00     0.141 A 
HETATM    8  C7  UNL     1      23.709   2.306  51.683  1.00  0.00     0.089 A 
HETATM    9  C8  UNL     1      23.339   1.076  52.307  1.00  0.00     0.103 C 
HETATM   10  N2  UNL     1      23.056   0.070  52.822  1.00  0.00    -0.191 NA
HETATM   11  C9  UNL     1      22.686   3.116  51.258  1.00  0.00     0.067 A 
HETATM   12  N3  UNL     1      21.351   2.698  51.413  1.00  0.00    -0.354 N 
HETATM   13  C10 UNL     1      20.047   2.307  51.736  1.00  0.00     0.044 C 
HETATM   14  C13 UNL     1      19.735   1.017  51.861  1.00  0.00     0.003 C 
HETATM   15  C14 UNL     1      20.138   0.271  50.862  1.00  0.00     0.014 C 
HETATM   16  C15 UNL     1      20.836   0.917  49.766  1.00  0.00     0.001 C 
HETATM   17  C16 UNL     1      21.785   0.980  48.863  1.00  0.00    -0.000 C 
HETATM   18  C17 UNL     1      22.295   1.812  47.808  1.00  0.00    -0.004 C 
HETATM   19  C18 UNL     1      22.084   2.928  47.203  1.00  0.00    -0.025 C 
HETATM   20  C19 UNL     1      21.894   4.199  46.468  1.00  0.00     0.054 C 
HETATM   21  C20 UNL     1      21.985   5.396  47.417  1.00  0.00     0.179 C 
HETATM   22  O1  UNL     1      20.950   5.149  48.392  1.00  0.00    -0.355 OA
HETATM   23  H7  UNL     1      21.367   2.798  52.484  1.00  0.00     0.166 HD
ENDROOT
BRANCH  13  24
HETATM   24  C11 UNL     1      18.932   3.203  51.955  1.00  0.00     0.042 C 
HETATM   25  C12 UNL     1      17.668   3.263  51.583  1.00  0.00     0.087 C 
HETATM   26 CL1  UNL     1      16.320   4.395  51.885  1.00  0.00    -0.097 Cl
ENDBRANCH  13  24
TORSDOF 1
ENDMDL
MODEL 6
REMARK VINA RESULT:      -7.0      7.076     10.533
REMARK  1 active torsions:
REMARK  status: ('A' for Active; 'I' for Inactive)
REMARK    1  A    between atoms: C10_13  and  C11_14 
ROOT
HETATM    1  C1  UNL     1      25.427   7.736  47.000  1.00  0.00     0.076 C 
HETATM    2  C2  UNL     1      24.300   7.069  47.672  1.00  0.00     0.043 C 
HETATM    3  C3  UNL     1      23.490   6.057  47.569  1.00  0.00     0.047 C 
HETATM    4  C4  UNL     1      22.506   5.010  47.642  1.00  0.00     0.012 A 
HETATM    5  C5  UNL     1      21.415   5.248  46.846  1.00  0.00     0.130 A 
HETATM    6  N1  UNL     1      20.438   4.323  46.869  1.00  0.00    -0.271 NA
HETATM    7  C6  UNL     1      20.543   3.236  47.631  1.00  0.00     0.141 A 
HETATM    8  C7  UNL     1      21.630   2.984  48.432  1.00  0.00     0.089 A 
HETATM    9  C8  UNL     1      21.824   1.838  49.262  1.00  0.00     0.103 C 
HETATM   10  N2  UNL     1      21.967   0.894  49.930  1.00  0.00    -0.191 NA
HETATM   11  C9  UNL     1      22.636   3.917  48.421  1.00  0.00     0.067 A 
HETATM   12  N3  UNL     1      23.770   3.734  49.235  1.00  0.00    -0.354 N 
HETATM   13  C10 UNL     1      24.940   3.423  49.936  1.00  0.00     0.044 C 
HETATM   14  C13 UNL     1      24.899   2.647  51.019  1.00  0.00     0.003 C 
HETATM   15  C14 UNL     1      23.991   3.000  51.895  1.00  0.00     0.014 C 
HETATM   16  C15 UNL     1      23.179   4.167  51.604  1.00  0.00     0.001 C 
HETATM   17  C16 UNL     1      22.042   4.819  51.575  1.00  0.00    -0.000 C 
HETATM   18  C17 UNL     1      21.464   6.080  51.198  1.00  0.00    -0.004 C 
HETATM   19  C18 UNL     1      21.767   7.224  50.691  1.00  0.00    -0.025 C 
HETATM   20  C19 UNL     1      22.050   8.558  50.115  1.00  0.00     0.054 C 
HETATM   21  C20 UNL     1      22.624   8.430  48.702  1.00  0.00     0.179 C 
HETATM   22  O1  UNL     1      23.811   7.628  48.877  1.00  0.00    -0.355 OA
HETATM   23  H7  UNL     1      24.142   2.907  48.655  1.00  0.00     0.166 HD
ENDROOT
BRANCH  13  24
HETATM   24  C11 UNL     1      26.269   3.887  49.599  1.00  0.00     0.042 C 
HETATM   25  C12 UNL     1      26.785   4.850  48.860  1.00  0.00     0.087 C 
HETATM   26 CL1  UNL     1      28.444   5.389  48.476  1.00  0.00    -0.097 Cl
ENDBRANCH  13  24
TORSDOF 1
ENDMDL
MODEL 7
REMARK VINA RESULT:      -6.7     10.424     12.554
REMARK  1 active torsions:
REMARK  status: ('A' for Active; 'I' for Inactive)
REMARK    1  A    between atoms: C10_13  and  C11_14 
ROOT
HETATM    1  C1  UNL     1      17.015   2.813  48.946  1.00  0.00     0.076 C 
HETATM    2  C2  UNL     1      18.383   3.355  48.984  1.00  0.00     0.043 C 
HETATM    3  C3  UNL     1      19.148   4.181  49.635  1.00  0.00     0.047 C 
HETATM    4  C4  UNL     1      20.150   5.035  50.214  1.00  0.00     0.012 A 
HETATM    5  C5  UNL     1      20.037   6.340  49.806  1.00  0.00     0.130 A 
HETATM    6  N1  UNL     1      20.948   7.204  50.289  1.00  0.00    -0.271 NA
HETATM    7  C6  UNL     1      21.904   6.796  51.121  1.00  0.00     0.141 A 
HETATM    8  C7  UNL     1      22.029   5.494  51.540  1.00  0.00     0.089 A 
HETATM    9  C8  UNL     1      23.013   4.982  52.440  1.00  0.00     0.103 C 
HETATM   10  N2  UNL     1      23.820   4.584  53.181  1.00  0.00    -0.191 NA
HETATM   11  C9  UNL     1      21.108   4.599  51.057  1.00  0.00     0.067 A 
HETATM   12  N3  UNL     1      21.189   3.242  51.426  1.00  0.00    -0.354 N 
HETATM   13  C10 UNL     1      21.220   1.945  51.950  1.00  0.00     0.044 C 
HETATM   14  C13 UNL     1      22.364   1.409  52.372  1.00  0.00     0.003 C 
HETATM   15  C14 UNL     1      23.352   1.517  51.517  1.00  0.00     0.014 C 
HETATM   16  C15 UNL     1      23.087   2.167  50.248  1.00  0.00     0.001 C 
HETATM   17  C16 UNL     1      23.400   2.974  49.263  1.00  0.00    -0.000 C 
HETATM   18  C17 UNL     1      22.910   3.483  48.012  1.00  0.00    -0.004 C 
HETATM   19  C18 UNL     1      21.905   3.410  47.210  1.00  0.00    -0.025 C 
HETATM   20  C19 UNL     1      20.781   3.371  46.247  1.00  0.00     0.054 C 
HETATM   21  C20 UNL     1      19.479   3.824  46.910  1.00  0.00     0.179 C 
HETATM   22  O1  UNL     1      19.310   2.907  48.012  1.00  0.00    -0.355 OA
HETATM   23  H7  UNL     1      20.899   3.427  52.445  1.00  0.00     0.166 HD
ENDROOT
BRANCH  13  24
HETATM   24  C11 UNL     1      20.077   1.067  52.085  1.00  0.00     0.042 C 
HETATM   25  C12 UNL     1      19.220   0.484  51.269  1.00  0.00     0.087 C 
HETATM   26 CL1  UNL     1      17.819  -0.602  51.485  1.00  0.00    -0.097 Cl
ENDBRANCH  13  24
TORSDOF 1
ENDMDL
MODEL 8
REMARK VINA RESULT:      -6.6      3.314      5.260
REMARK  1 active torsions:
REMARK  status: ('A' for Active; 'I' for Inactive)
REMARK    1  A    between atoms: C10_13  and  C11_14 
ROOT
HETATM    1  C1  UNL     1      30.980   5.159  47.895  1.00  0.00     0.076 C 
HETATM    2  C2  UNL     1      30.180   6.391  47.798  1.00  0.00     0.043 C 
HETATM    3  C3  UNL     1      29.281   6.983  47.068  1.00  0.00     0.047 C 
HETATM    4  C4  UNL     1      28.301   7.801  46.405  1.00  0.00     0.012 A 
HETATM    5  C5  UNL     1      28.816   8.487  45.335  1.00  0.00     0.130 A 
HETATM    6  N1  UNL     1      27.967   9.290  44.668  1.00  0.00    -0.271 NA
HETATM    7  C6  UNL     1      26.694   9.401  45.042  1.00  0.00     0.141 A 
HETATM    8  C7  UNL     1      26.164   8.720  46.111  1.00  0.00     0.089 A 
HETATM    9  C8  UNL     1      24.810   8.772  46.564  1.00  0.00     0.103 C 
HETATM   10  N2  UNL     1      23.701   8.824  46.915  1.00  0.00    -0.191 NA
HETATM   11  C9  UNL     1      27.016   7.896  46.802  1.00  0.00     0.067 A 
HETATM   12  N3  UNL     1      26.547   7.184  47.923  1.00  0.00    -0.354 N 
HETATM   13  C10 UNL     1      25.989   6.381  48.924  1.00  0.00     0.044 C 
HETATM   14  C13 UNL     1      24.917   6.787  49.603  1.00  0.00     0.003 C 
HETATM   15  C14 UNL     1      25.014   8.005  50.078  1.00  0.00     0.014 C 
HETATM   16  C15 UNL     1      26.243   8.736  49.833  1.00  0.00     0.001 C 
HETATM   17  C16 UNL     1      26.914   9.819  49.523  1.00  0.00    -0.000 C 
HETATM   18  C17 UNL     1      28.250  10.312  49.332  1.00  0.00    -0.004 C 
HETATM   19  C18 UNL     1      29.483   9.942  49.366  1.00  0.00    -0.025 C 
HETATM   20  C19 UNL     1      30.919   9.580  49.387  1.00  0.00     0.054 C 
HETATM   21  C20 UNL     1      31.215   8.467  48.380  1.00  0.00     0.179 C 
HETATM   22  O1  UNL     1      30.354   7.384  48.791  1.00  0.00    -0.355 OA
HETATM   23  H7  UNL     1      25.927   6.527  47.337  1.00  0.00     0.166 HD
ENDROOT
BRANCH  13  24
HETATM   24  C11 UNL     1      26.484   5.084  49.332  1.00  0.00     0.042 C 
HETATM   25  C12 UNL     1      26.034   4.072  50.049  1.00  0.00     0.087 C 
HETATM   26 CL1  UNL     1      26.686   2.479  50.525  1.00  0.00    -0.097 Cl
ENDBRANCH  13  24
TORSDOF 1
ENDMDL
MODEL 9
REMARK VINA RESULT:      -6.5      3.642      6.670
REMARK  1 active torsions:
REMARK  status: ('A' for Active; 'I' for Inactive)
REMARK    1  A    between atoms: C10_13  and  C11_14 
ROOT
HETATM    1  C1  UNL     1      29.017  12.288  44.441  1.00  0.00     0.076 C 
HETATM    2  C2  UNL     1      29.048  11.495  45.680  1.00  0.00     0.043 C 
HETATM    3  C3  UNL     1      28.504  10.467  46.262  1.00  0.00     0.047 C 
HETATM    4  C4  UNL     1      28.036   9.374  47.072  1.00  0.00     0.012 A 
HETATM    5  C5  UNL     1      26.857   9.656  47.714  1.00  0.00     0.130 A 
HETATM    6  N1  UNL     1      26.357   8.691  48.508  1.00  0.00    -0.271 NA
HETATM    7  C6  UNL     1      26.988   7.527  48.650  1.00  0.00     0.141 A 
HETATM    8  C7  UNL     1      28.168   7.231  48.013  1.00  0.00     0.089 A 
HETATM    9  C8  UNL     1      28.896   6.005  48.100  1.00  0.00     0.103 C 
HETATM   10  N2  UNL     1      29.472   4.995  48.180  1.00  0.00    -0.191 NA
HETATM   11  C9  UNL     1      28.693   8.204  47.200  1.00  0.00     0.067 A 
HETATM   12  N3  UNL     1      29.912   7.978  46.532  1.00  0.00    -0.354 N 
HETATM   13  C10 UNL     1      31.036   7.639  45.771  1.00  0.00     0.044 C 
HETATM   14  C13 UNL     1      31.912   6.739  46.215  1.00  0.00     0.003 C 
HETATM   15  C14 UNL     1      32.312   6.944  47.447  1.00  0.00     0.014 C 
HETATM   16  C15 UNL     1      31.786   8.098  48.151  1.00  0.00     0.001 C 
HETATM   17  C16 UNL     1      31.303   8.696  49.213  1.00  0.00    -0.000 C 
HETATM   18  C17 UNL     1      30.816   9.966  49.679  1.00  0.00    -0.004 C 
HETATM   19  C18 UNL     1      30.601  11.175  49.292  1.00  0.00    -0.025 C 
HETATM   20  C19 UNL     1      30.330  12.579  48.910  1.00  0.00     0.054 C 
HETATM   21  C20 UNL     1      29.324  12.646  47.759  1.00  0.00     0.179 C 
HETATM   22  O1  UNL     1      29.946  11.884  46.704  1.00  0.00    -0.355 OA
HETATM   23  H7  UNL     1      29.494   7.243  45.866  1.00  0.00     0.166 HD
ENDROOT
BRANCH  13  24
HETATM   24  C11 UNL     1      31.376   8.200  44.481  1.00  0.00     0.042 C 
HETATM   25  C12 UNL     1      31.637   9.400  44.000  1.00  0.00     0.087 C 
HETATM   26 CL1  UNL     1      32.059  10.046  42.389  1.00  0.00    -0.097 Cl
ENDBRANCH  13  24
TORSDOF 1
ENDMDL
