MODEL 1
REMARK VINA RESULT:      -8.2      0.000      0.000
REMARK  6 active torsions:
REMARK  status: ('A' for Active; 'I' for Inactive)
REMARK    1  A    between atoms: C1_2  and  C2_3 
REMARK       I    between atoms: C1_2  and  N1_11 
REMARK    2  A    between atoms: C2_3  and  O2_4 
REMARK    3  A    between atoms: O2_4  and  C3_5 
REMARK    4  A    between atoms: N1_11  and  C8_12 
REMARK    5  A    between atoms: C13_19  and  N4_20 
REMARK    6  A    between atoms: N4_20  and  C14_21 
ROOT
HETATM    1  C8  UNL     1      24.267  -0.275  53.390  1.00  0.00     0.035 A 
HETATM    2  C9  UNL     1      24.721  -0.625  54.645  1.00  0.00     0.032 A 
HETATM    3  C10 UNL     1      25.960  -0.177  55.047  1.00  0.00     0.035 A 
HETATM    4  C11 UNL     1      26.712   0.603  54.199  1.00  0.00     0.072 A 
HETATM    5  N2  UNL     1      27.932   1.023  54.641  1.00  0.00    -0.241 NA
HETATM    6  C12 UNL     1      28.713   1.789  53.851  1.00  0.00     0.236 A 
HETATM    7  N3  UNL     1      28.311   2.150  52.631  1.00  0.00    -0.224 NA
HETATM    8  C13 UNL     1      27.131   1.767  52.154  1.00  0.00     0.142 A 
HETATM    9  C20 UNL     1      26.321   0.987  52.940  1.00  0.00     0.041 A 
HETATM   10  C21 UNL     1      25.080   0.508  52.603  1.00  0.00     0.047 A 
ENDROOT
BRANCH   1  11
HETATM   11  N1  UNL     1      22.990  -0.732  52.965  1.00  0.00    -0.325 N 
HETATM   12  C1  UNL     1      21.932   0.227  53.022  1.00  0.00     0.246 C 
HETATM   13  O1  UNL     1      22.164   1.402  53.433  1.00  0.00    -0.271 OA
HETATM   14  H7  UNL     1      22.636  -1.654  52.604  1.00  0.00     0.169 HD
BRANCH  12  15
HETATM   15  C2  UNL     1      20.505   0.046  52.648  1.00  0.00     0.278 C 
BRANCH  15  16
HETATM   16  O2  UNL     1      20.370  -0.061  51.254  1.00  0.00    -0.346 OA
BRANCH  16  17
HETATM   17  C3  UNL     1      20.872   0.980  50.490  1.00  0.00     0.053 A 
HETATM   18  C4  UNL     1      20.003   2.001  50.472  1.00  0.00     0.035 A 
HETATM   19  C5  UNL     1      20.563   3.089  49.655  1.00  0.00     0.040 A 
HETATM   20  C6  UNL     1      21.762   2.722  49.185  1.00  0.00     0.100 A 
HETATM   21  F1  UNL     1      22.753   3.210  48.422  1.00  0.00    -0.210 F 
HETATM   22  C7  UNL     1      22.064   1.351  49.674  1.00  0.00     0.134 A 
ENDBRANCH  16  17
ENDBRANCH  15  16
ENDBRANCH  12  15
ENDBRANCH   1  11
BRANCH   8  23
HETATM   23  N4  UNL     1      26.657   2.122  50.867  1.00  0.00    -0.340 N 
HETATM   24  H11 UNL     1      26.593   1.437  50.092  1.00  0.00     0.167 HD
BRANCH  23  25
HETATM   25  C14 UNL     1      26.201   3.367  50.370  1.00  0.00     0.035 A 
HETATM   26  C15 UNL     1      26.835   4.140  49.395  1.00  0.00     0.029 A 
HETATM   27  C16 UNL     1      26.347   5.340  48.945  1.00  0.00     0.004 A 
HETATM   28  C17 UNL     1      25.177   5.863  49.439  1.00  0.00     0.019 A 
HETATM   29  C18 UNL     1      24.513   5.138  50.404  1.00  0.00     0.013 A 
HETATM   30 BR1  UNL     1      22.900   5.912  51.052  1.00  0.00    -0.051 Br
HETATM   31  C19 UNL     1      25.037   3.940  50.827  1.00  0.00     0.048 A 
ENDBRANCH  23  25
ENDBRANCH   8  23
TORSDOF 6
ENDMDL
MODEL 2
REMARK VINA RESULT:      -8.2      3.401      7.474
REMARK  6 active torsions:
REMARK  status: ('A' for Active; 'I' for Inactive)
REMARK    1  A    between atoms: C1_2  and  C2_3 
REMARK       I    between atoms: C1_2  and  N1_11 
REMARK    2  A    between atoms: C2_3  and  O2_4 
REMARK    3  A    between atoms: O2_4  and  C3_5 
REMARK    4  A    between atoms: N1_11  and  C8_12 
REMARK    5  A    between atoms: C13_19  and  N4_20 
REMARK    6  A    between atoms: N4_20  and  C14_21 
ROOT
HETATM    1  C8  UNL     1      25.112   3.235  50.652  1.00  0.00     0.035 A 
HETATM    2  C9  UNL     1      25.330   4.477  50.092  1.00  0.00     0.032 A 
HETATM    3  C10 UNL     1      24.425   4.952  49.167  1.00  0.00     0.035 A 
HETATM    4  C11 UNL     1      23.334   4.187  48.825  1.00  0.00     0.072 A 
HETATM    5  N2  UNL     1      22.465   4.698  47.906  1.00  0.00    -0.241 NA
HETATM    6  C12 UNL     1      21.379   3.992  47.533  1.00  0.00     0.236 A 
HETATM    7  N3  UNL     1      21.132   2.788  48.050  1.00  0.00    -0.224 NA
HETATM    8  C13 UNL     1      21.946   2.244  48.950  1.00  0.00     0.142 A 
HETATM    9  C20 UNL     1      23.058   2.946  49.343  1.00  0.00     0.041 A 
HETATM   10  C21 UNL     1      23.997   2.533  50.256  1.00  0.00     0.047 A 
ENDROOT
BRANCH   1  11
HETATM   11  N1  UNL     1      26.039   2.736  51.607  1.00  0.00    -0.325 N 
HETATM   12  C1  UNL     1      25.526   2.519  52.922  1.00  0.00     0.246 C 
HETATM   13  O1  UNL     1      24.311   2.770  53.177  1.00  0.00    -0.271 OA
HETATM   14  H7  UNL     1      27.058   2.480  51.559  1.00  0.00     0.169 HD
BRANCH  12  15
HETATM   15  C2  UNL     1      26.246   2.009  54.119  1.00  0.00     0.278 C 
BRANCH  15  16
HETATM   16  O2  UNL     1      27.622   1.907  53.859  1.00  0.00    -0.346 OA
BRANCH  16  17
HETATM   17  C3  UNL     1      28.131   0.636  53.645  1.00  0.00     0.053 A 
HETATM   18  C4  UNL     1      29.457   0.630  53.843  1.00  0.00     0.035 A 
HETATM   19  C5  UNL     1      29.968  -0.729  53.611  1.00  0.00     0.040 A 
HETATM   20  C6  UNL     1      28.953  -1.536  53.274  1.00  0.00     0.100 A 
HETATM   21  F1  UNL     1      28.732  -2.819  52.948  1.00  0.00    -0.210 F 
HETATM   22  C7  UNL     1      27.698  -0.739  53.267  1.00  0.00     0.134 A 
ENDBRANCH  16  17
ENDBRANCH  15  16
ENDBRANCH  12  15
ENDBRANCH   1  11
BRANCH   8  23
HETATM   23  N4  UNL     1      21.730   0.970  49.529  1.00  0.00    -0.340 N 
HETATM   24  H11 UNL     1      22.164   0.108  49.151  1.00  0.00     0.167 HD
BRANCH  23  25
HETATM   25  C14 UNL     1      20.953   0.594  50.651  1.00  0.00     0.035 A 
HETATM   26  C15 UNL     1      19.559   0.620  50.725  1.00  0.00     0.029 A 
HETATM   27  C16 UNL     1      18.852   0.241  51.838  1.00  0.00     0.004 A 
HETATM   28  C17 UNL     1      19.491  -0.198  52.971  1.00  0.00     0.019 A 
HETATM   29  C18 UNL     1      20.868  -0.243  52.949  1.00  0.00     0.013 A 
HETATM   30 BR1  UNL     1      21.699  -0.858  54.547  1.00  0.00    -0.051 Br
HETATM   31  C19 UNL     1      21.537   0.147  51.814  1.00  0.00     0.048 A 
ENDBRANCH  23  25
ENDBRANCH   8  23
TORSDOF 6
ENDMDL
MODEL 3
REMARK VINA RESULT:      -8.2      2.874      5.871
REMARK  6 active torsions:
REMARK  status: ('A' for Active; 'I' for Inactive)
REMARK    1  A    between atoms: C1_2  and  C2_3 
REMARK       I    between atoms: C1_2  and  N1_11 
REMARK    2  A    between atoms: C2_3  and  O2_4 
REMARK    3  A    between atoms: O2_4  and  C3_5 
REMARK    4  A    between atoms: N1_11  and  C8_12 
REMARK    5  A    between atoms: C13_19  and  N4_20 
REMARK    6  A    between atoms: N4_20  and  C14_21 
ROOT
HETATM    1  C8  UNL     1      22.714   0.955  52.071  1.00  0.00     0.035 A 
HETATM    2  C9  UNL     1      21.723   0.183  51.502  1.00  0.00     0.032 A 
HETATM    3  C10 UNL     1      21.283   0.503  50.236  1.00  0.00     0.035 A 
HETATM    4  C11 UNL     1      21.835   1.575  49.572  1.00  0.00     0.072 A 
HETATM    5  N2  UNL     1      21.368   1.853  48.320  1.00  0.00    -0.241 NA
HETATM    6  C12 UNL     1      21.872   2.891  47.623  1.00  0.00     0.236 A 
HETATM    7  N3  UNL     1      22.832   3.662  48.138  1.00  0.00    -0.224 NA
HETATM    8  C13 UNL     1      23.322   3.434  49.353  1.00  0.00     0.142 A 
HETATM    9  C20 UNL     1      22.822   2.382  50.079  1.00  0.00     0.041 A 
HETATM   10  C21 UNL     1      23.214   2.009  51.341  1.00  0.00     0.047 A 
ENDROOT
BRANCH   1  11
HETATM   11  N1  UNL     1      23.175   0.634  53.377  1.00  0.00    -0.325 N 
HETATM   12  C1  UNL     1      24.365  -0.153  53.443  1.00  0.00     0.246 C 
HETATM   13  O1  UNL     1      24.941  -0.521  52.377  1.00  0.00    -0.271 OA
HETATM   14  H7  UNL     1      22.823   0.856  54.343  1.00  0.00     0.169 HD
BRANCH  12  15
HETATM   15  C2  UNL     1      25.080  -0.641  54.652  1.00  0.00     0.278 C 
BRANCH  15  16
HETATM   16  O2  UNL     1      26.386  -1.041  54.323  1.00  0.00    -0.346 OA
BRANCH  16  17
HETATM   17  C3  UNL     1      27.315  -0.038  54.101  1.00  0.00     0.053 A 
HETATM   18  C4  UNL     1      28.527  -0.570  53.882  1.00  0.00     0.035 A 
HETATM   19  C5  UNL     1      29.490   0.517  53.648  1.00  0.00     0.040 A 
HETATM   20  C6  UNL     1      28.860   1.696  53.728  1.00  0.00     0.100 A 
HETATM   21  F1  UNL     1      29.129   3.007  53.624  1.00  0.00    -0.210 F 
HETATM   22  C7  UNL     1      27.424   1.447  54.022  1.00  0.00     0.134 A 
ENDBRANCH  16  17
ENDBRANCH  15  16
ENDBRANCH  12  15
ENDBRANCH   1  11
BRANCH   8  23
HETATM   23  N4  UNL     1      24.339   4.221  49.945  1.00  0.00    -0.340 N 
HETATM   24  H11 UNL     1      24.339   4.460  50.954  1.00  0.00     0.167 HD
BRANCH  23  25
HETATM   25  C14 UNL     1      25.489   4.815  49.371  1.00  0.00     0.035 A 
HETATM   26  C15 UNL     1      26.738   4.208  49.227  1.00  0.00     0.029 A 
HETATM   27  C16 UNL     1      27.820   4.829  48.658  1.00  0.00     0.004 A 
HETATM   28  C17 UNL     1      27.735   6.115  48.183  1.00  0.00     0.019 A 
HETATM   29  C18 UNL     1      26.523   6.758  48.300  1.00  0.00     0.013 A 
HETATM   30 BR1  UNL     1      26.464   8.536  47.626  1.00  0.00    -0.051 Br
HETATM   31  C19 UNL     1      25.464   6.100  48.878  1.00  0.00     0.048 A 
ENDBRANCH  23  25
ENDBRANCH   8  23
TORSDOF 6
ENDMDL
MODEL 4
REMARK VINA RESULT:      -8.1      2.950      5.472
REMARK  6 active torsions:
REMARK  status: ('A' for Active; 'I' for Inactive)
REMARK    1  A    between atoms: C1_2  and  C2_3 
REMARK       I    between atoms: C1_2  and  N1_11 
REMARK    2  A    between atoms: C2_3  and  O2_4 
REMARK    3  A    between atoms: O2_4  and  C3_5 
REMARK    4  A    between atoms: N1_11  and  C8_12 
REMARK    5  A    between atoms: C13_19  and  N4_20 
REMARK    6  A    between atoms: N4_20  and  C14_21 
ROOT
HETATM    1  C8  UNL     1      21.396   1.925  51.737  1.00  0.00     0.035 A 
HETATM    2  C9  UNL     1      20.277   1.767  52.527  1.00  0.00     0.032 A 
HETATM    3  C10 UNL     1      20.354   0.932  53.620  1.00  0.00     0.035 A 
HETATM    4  C11 UNL     1      21.533   0.280  53.899  1.00  0.00     0.072 A 
HETATM    5  N2  UNL     1      21.562  -0.536  54.992  1.00  0.00    -0.241 NA
HETATM    6  C12 UNL     1      22.690  -1.201  55.313  1.00  0.00     0.236 A 
HETATM    7  N3  UNL     1      23.794  -1.075  54.575  1.00  0.00    -0.224 NA
HETATM    8  C13 UNL     1      23.819  -0.292  53.500  1.00  0.00     0.142 A 
HETATM    9  C20 UNL     1      22.681   0.393  53.156  1.00  0.00     0.041 A 
HETATM   10  C21 UNL     1      22.536   1.238  52.083  1.00  0.00     0.047 A 
ENDROOT
BRANCH   1  11
HETATM   11  N1  UNL     1      21.327   2.784  50.606  1.00  0.00    -0.325 N 
HETATM   12  C1  UNL     1      21.664   4.153  50.840  1.00  0.00     0.246 C 
HETATM   13  O1  UNL     1      21.998   4.533  52.001  1.00  0.00    -0.271 OA
HETATM   14  H7  UNL     1      21.075   2.631  49.597  1.00  0.00     0.169 HD
BRANCH  12  15
HETATM   15  C2  UNL     1      21.685   5.276  49.865  1.00  0.00     0.278 C 
BRANCH  15  16
HETATM   16  O2  UNL     1      22.491   4.954  48.761  1.00  0.00    -0.346 OA
BRANCH  16  17
HETATM   17  C3  UNL     1      23.838   4.744  49.003  1.00  0.00     0.053 A 
HETATM   18  C4  UNL     1      24.525   5.880  48.813  1.00  0.00     0.035 A 
HETATM   19  C5  UNL     1      25.950   5.626  49.078  1.00  0.00     0.040 A 
HETATM   20  C6  UNL     1      26.117   4.343  49.425  1.00  0.00     0.100 A 
HETATM   21  F1  UNL     1      27.100   3.500  49.777  1.00  0.00    -0.210 F 
HETATM   22  C7  UNL     1      24.791   3.671  49.408  1.00  0.00     0.134 A 
ENDBRANCH  16  17
ENDBRANCH  15  16
ENDBRANCH  12  15
ENDBRANCH   1  11
BRANCH   8  23
HETATM   23  N4  UNL     1      24.964  -0.124  52.683  1.00  0.00    -0.340 N 
HETATM   24  H11 UNL     1      24.982  -0.414  51.688  1.00  0.00     0.167 HD
BRANCH  23  25
HETATM   25  C14 UNL     1      26.234   0.424  52.987  1.00  0.00     0.035 A 
HETATM   26  C15 UNL     1      26.522   1.781  53.142  1.00  0.00     0.029 A 
HETATM   27  C16 UNL     1      27.772   2.259  53.442  1.00  0.00     0.004 A 
HETATM   28  C17 UNL     1      28.838   1.409  53.612  1.00  0.00     0.019 A 
HETATM   29  C18 UNL     1      28.604   0.060  53.470  1.00  0.00     0.013 A 
HETATM   30 BR1  UNL     1      30.117  -1.069  53.717  1.00  0.00    -0.051 Br
HETATM   31  C19 UNL     1      27.337  -0.378  53.169  1.00  0.00     0.048 A 
ENDBRANCH  23  25
ENDBRANCH   8  23
TORSDOF 6
ENDMDL
MODEL 5
REMARK VINA RESULT:      -8.1      2.377      2.897
REMARK  6 active torsions:
REMARK  status: ('A' for Active; 'I' for Inactive)
REMARK    1  A    between atoms: C1_2  and  C2_3 
REMARK       I    between atoms: C1_2  and  N1_11 
REMARK    2  A    between atoms: C2_3  and  O2_4 
REMARK    3  A    between atoms: O2_4  and  C3_5 
REMARK    4  A    between atoms: N1_11  and  C8_12 
REMARK    5  A    between atoms: C13_19  and  N4_20 
REMARK    6  A    between atoms: N4_20  and  C14_21 
ROOT
HETATM    1  C8  UNL     1      24.435  -0.332  53.528  1.00  0.00     0.035 A 
HETATM    2  C9  UNL     1      25.015  -0.575  54.756  1.00  0.00     0.032 A 
HETATM    3  C10 UNL     1      26.219   0.028  55.047  1.00  0.00     0.035 A 
HETATM    4  C11 UNL     1      26.812   0.853  54.119  1.00  0.00     0.072 A 
HETATM    5  N2  UNL     1      28.003   1.429  54.453  1.00  0.00    -0.241 NA
HETATM    6  C12 UNL     1      28.629   2.245  53.581  1.00  0.00     0.236 A 
HETATM    7  N3  UNL     1      28.101   2.506  52.384  1.00  0.00    -0.224 NA
HETATM    8  C13 UNL     1      26.943   1.971  52.010  1.00  0.00     0.142 A 
HETATM    9  C20 UNL     1      26.289   1.137  52.882  1.00  0.00     0.041 A 
HETATM   10  C21 UNL     1      25.092   0.505  52.656  1.00  0.00     0.047 A 
ENDROOT
BRANCH   1  11
HETATM   11  N1  UNL     1      23.193  -0.950  53.217  1.00  0.00    -0.325 N 
HETATM   12  C1  UNL     1      22.041  -0.108  53.290  1.00  0.00     0.246 C 
HETATM   13  O1  UNL     1      22.166   1.109  53.616  1.00  0.00    -0.271 OA
HETATM   14  H7  UNL     1      22.922  -1.926  52.934  1.00  0.00     0.169 HD
BRANCH  12  15
HETATM   15  C2  UNL     1      20.622  -0.464  53.024  1.00  0.00     0.278 C 
BRANCH  15  16
HETATM   16  O2  UNL     1      20.146   0.221  51.894  1.00  0.00    -0.346 OA
BRANCH  16  17
HETATM   17  C3  UNL     1      18.832  -0.011  51.522  1.00  0.00     0.053 A 
HETATM   18  C4  UNL     1      18.196  -0.700  52.480  1.00  0.00     0.035 A 
HETATM   19  C5  UNL     1      16.805  -0.930  52.059  1.00  0.00     0.040 A 
HETATM   20  C6  UNL     1      16.608  -0.381  50.853  1.00  0.00     0.100 A 
HETATM   21  F1  UNL     1      15.630  -0.233  49.946  1.00  0.00    -0.210 F 
HETATM   22  C7  UNL     1      17.878   0.250  50.407  1.00  0.00     0.134 A 
ENDBRANCH  16  17
ENDBRANCH  15  16
ENDBRANCH  12  15
ENDBRANCH   1  11
BRANCH   8  23
HETATM   23  N4  UNL     1      26.340   2.215  50.752  1.00  0.00    -0.340 N 
HETATM   24  H11 UNL     1      26.013   1.449  50.137  1.00  0.00     0.167 HD
BRANCH  23  25
HETATM   25  C14 UNL     1      26.063   3.436  50.091  1.00  0.00     0.035 A 
HETATM   26  C15 UNL     1      24.803   4.019  49.945  1.00  0.00     0.029 A 
HETATM   27  C16 UNL     1      24.589   5.209  49.297  1.00  0.00     0.004 A 
HETATM   28  C17 UNL     1      25.629   5.914  48.743  1.00  0.00     0.019 A 
HETATM   29  C18 UNL     1      26.894   5.381  48.861  1.00  0.00     0.013 A 
HETATM   30 BR1  UNL     1      28.295   6.400  48.073  1.00  0.00    -0.051 Br
HETATM   31  C19 UNL     1      27.064   4.186  49.517  1.00  0.00     0.048 A 
ENDBRANCH  23  25
ENDBRANCH   8  23
TORSDOF 6
ENDMDL
MODEL 6
REMARK VINA RESULT:      -7.9      1.488      2.050
REMARK  6 active torsions:
REMARK  status: ('A' for Active; 'I' for Inactive)
REMARK    1  A    between atoms: C1_2  and  C2_3 
REMARK       I    between atoms: C1_2  and  N1_11 
REMARK    2  A    between atoms: C2_3  and  O2_4 
REMARK    3  A    between atoms: O2_4  and  C3_5 
REMARK    4  A    between atoms: N1_11  and  C8_12 
REMARK    5  A    between atoms: C13_19  and  N4_20 
REMARK    6  A    between atoms: N4_20  and  C14_21 
ROOT
HETATM    1  C8  UNL     1      22.827  -0.870  53.714  1.00  0.00     0.035 A 
HETATM    2  C9  UNL     1      23.029  -1.325  55.000  1.00  0.00     0.032 A 
HETATM    3  C10 UNL     1      24.273  -1.164  55.569  1.00  0.00     0.035 A 
HETATM    4  C11 UNL     1      25.279  -0.557  54.851  1.00  0.00     0.072 A 
HETATM    5  N2  UNL     1      26.493  -0.418  55.457  1.00  0.00    -0.241 NA
HETATM    6  C12 UNL     1      27.515   0.168  54.800  1.00  0.00     0.236 A 
HETATM    7  N3  UNL     1      27.361   0.622  53.555  1.00  0.00    -0.224 NA
HETATM    8  C13 UNL     1      26.198   0.511  52.921  1.00  0.00     0.142 A 
HETATM    9  C20 UNL     1      25.145  -0.082  53.570  1.00  0.00     0.041 A 
HETATM   10  C21 UNL     1      23.884  -0.275  53.063  1.00  0.00     0.047 A 
ENDROOT
BRANCH   1  11
HETATM   11  N1  UNL     1      21.547  -1.033  53.116  1.00  0.00    -0.325 N 
HETATM   12  C1  UNL     1      20.741   0.145  53.035  1.00  0.00     0.246 C 
HETATM   13  O1  UNL     1      21.182   1.245  53.481  1.00  0.00    -0.271 OA
HETATM   14  H7  UNL     1      21.042  -1.857  52.704  1.00  0.00     0.169 HD
BRANCH  12  15
HETATM   15  C2  UNL     1      19.374   0.287  52.470  1.00  0.00     0.278 C 
BRANCH  15  16
HETATM   16  O2  UNL     1      19.408   0.198  51.069  1.00  0.00    -0.346 OA
BRANCH  16  17
HETATM   17  C3  UNL     1      20.139   1.161  50.393  1.00  0.00     0.053 A 
HETATM   18  C4  UNL     1      21.149   0.589  49.722  1.00  0.00     0.035 A 
HETATM   19  C5  UNL     1      21.905   1.635  49.015  1.00  0.00     0.040 A 
HETATM   20  C6  UNL     1      21.351   2.829  49.262  1.00  0.00     0.100 A 
HETATM   21  F1  UNL     1      21.530   4.122  48.950  1.00  0.00    -0.210 F 
HETATM   22  C7  UNL     1      20.181   2.633  50.158  1.00  0.00     0.134 A 
ENDBRANCH  16  17
ENDBRANCH  15  16
ENDBRANCH  12  15
ENDBRANCH   1  11
BRANCH   8  23
HETATM   23  N4  UNL     1      25.982   0.976  51.600  1.00  0.00    -0.340 N 
HETATM   24  H11 UNL     1      26.030   0.348  50.777  1.00  0.00     0.167 HD
BRANCH  23  25
HETATM   25  C14 UNL     1      25.679   2.274  51.124  1.00  0.00     0.035 A 
HETATM   26  C15 UNL     1      24.526   3.005  51.420  1.00  0.00     0.029 A 
HETATM   27  C16 UNL     1      24.283   4.264  50.935  1.00  0.00     0.004 A 
HETATM   28  C17 UNL     1      25.182   4.896  50.111  1.00  0.00     0.019 A 
HETATM   29  C18 UNL     1      26.336   4.216  49.789  1.00  0.00     0.013 A 
HETATM   30 BR1  UNL     1      27.544   5.139  48.644  1.00  0.00    -0.051 Br
HETATM   31  C19 UNL     1      26.541   2.956  50.296  1.00  0.00     0.048 A 
ENDBRANCH  23  25
ENDBRANCH   8  23
TORSDOF 6
ENDMDL
MODEL 7
REMARK VINA RESULT:      -7.9      3.070      6.542
REMARK  6 active torsions:
REMARK  status: ('A' for Active; 'I' for Inactive)
REMARK    1  A    between atoms: C1_2  and  C2_3 
REMARK       I    between atoms: C1_2  and  N1_11 
REMARK    2  A    between atoms: C2_3  and  O2_4 
REMARK    3  A    between atoms: O2_4  and  C3_5 
REMARK    4  A    between atoms: N1_11  and  C8_12 
REMARK    5  A    between atoms: C13_19  and  N4_20 
REMARK    6  A    between atoms: N4_20  and  C14_21 
ROOT
HETATM    1  C8  UNL     1      23.063   0.449  52.763  1.00  0.00     0.035 A 
HETATM    2  C9  UNL     1      22.226   0.096  53.801  1.00  0.00     0.032 A 
HETATM    3  C10 UNL     1      20.869   0.045  53.565  1.00  0.00     0.035 A 
HETATM    4  C11 UNL     1      20.382   0.342  52.312  1.00  0.00     0.072 A 
HETATM    5  N2  UNL     1      19.033   0.276  52.126  1.00  0.00    -0.241 NA
HETATM    6  C12 UNL     1      18.500   0.558  50.919  1.00  0.00     0.236 A 
HETATM    7  N3  UNL     1      19.275   0.903  49.890  1.00  0.00    -0.224 NA
HETATM    8  C13 UNL     1      20.596   0.981  50.019  1.00  0.00     0.142 A 
HETATM    9  C20 UNL     1      21.159   0.699  51.238  1.00  0.00     0.041 A 
HETATM   10  C21 UNL     1      22.498   0.731  51.541  1.00  0.00     0.047 A 
ENDROOT
BRANCH   1  11
HETATM   11  N1  UNL     1      24.465   0.505  52.996  1.00  0.00    -0.325 N 
HETATM   12  C1  UNL     1      25.003   1.803  53.257  1.00  0.00     0.246 C 
HETATM   13  O1  UNL     1      24.240   2.813  53.271  1.00  0.00    -0.271 OA
HETATM   14  H7  UNL     1      25.223  -0.223  53.020  1.00  0.00     0.169 HD
BRANCH  12  15
HETATM   15  C2  UNL     1      26.415   2.175  53.534  1.00  0.00     0.278 C 
BRANCH  15  16
HETATM   16  O2  UNL     1      26.962   1.335  54.519  1.00  0.00    -0.346 OA
BRANCH  16  17
HETATM   17  C3  UNL     1      27.782   0.306  54.085  1.00  0.00     0.053 A 
HETATM   18  C4  UNL     1      29.067   0.613  54.310  1.00  0.00     0.035 A 
HETATM   19  C5  UNL     1      29.912  -0.496  53.841  1.00  0.00     0.040 A 
HETATM   20  C6  UNL     1      29.136  -1.465  53.337  1.00  0.00     0.100 A 
HETATM   21  F1  UNL     1      29.253  -2.678  52.774  1.00  0.00    -0.210 F 
HETATM   22  C7  UNL     1      27.716  -1.040  53.448  1.00  0.00     0.134 A 
ENDBRANCH  16  17
ENDBRANCH  15  16
ENDBRANCH  12  15
ENDBRANCH   1  11
BRANCH   8  23
HETATM   23  N4  UNL     1      21.464   1.342  48.959  1.00  0.00    -0.340 N 
HETATM   24  H11 UNL     1      21.955   0.637  48.380  1.00  0.00     0.167 HD
BRANCH  23  25
HETATM   25  C14 UNL     1      21.838   2.620  48.477  1.00  0.00     0.035 A 
HETATM   26  C15 UNL     1      21.131   3.380  47.543  1.00  0.00     0.029 A 
HETATM   27  C16 UNL     1      21.535   4.618  47.112  1.00  0.00     0.004 A 
HETATM   28  C17 UNL     1      22.688   5.195  47.587  1.00  0.00     0.019 A 
HETATM   29  C18 UNL     1      23.421   4.485  48.511  1.00  0.00     0.013 A 
HETATM   30 BR1  UNL     1      25.007   5.334  49.132  1.00  0.00    -0.051 Br
HETATM   31  C19 UNL     1      22.980   3.249  48.916  1.00  0.00     0.048 A 
ENDBRANCH  23  25
ENDBRANCH   8  23
TORSDOF 6
ENDMDL
MODEL 8
REMARK VINA RESULT:      -7.9      3.151      6.843
REMARK  6 active torsions:
REMARK  status: ('A' for Active; 'I' for Inactive)
REMARK    1  A    between atoms: C1_2  and  C2_3 
REMARK       I    between atoms: C1_2  and  N1_11 
REMARK    2  A    between atoms: C2_3  and  O2_4 
REMARK    3  A    between atoms: O2_4  and  C3_5 
REMARK    4  A    between atoms: N1_11  and  C8_12 
REMARK    5  A    between atoms: C13_19  and  N4_20 
REMARK    6  A    between atoms: N4_20  and  C14_21 
ROOT
HETATM    1  C8  UNL     1      24.131   1.497  51.685  1.00  0.00     0.035 A 
HETATM    2  C9  UNL     1      25.351   1.015  52.111  1.00  0.00     0.032 A 
HETATM    3  C10 UNL     1      25.378   0.143  53.178  1.00  0.00     0.035 A 
HETATM    4  C11 UNL     1      24.202  -0.225  53.789  1.00  0.00     0.072 A 
HETATM    5  N2  UNL     1      24.279  -1.092  54.840  1.00  0.00    -0.241 NA
HETATM    6  C12 UNL     1      23.159  -1.487  55.478  1.00  0.00     0.236 A 
HETATM    7  N3  UNL     1      21.960  -1.043  55.097  1.00  0.00    -0.224 NA
HETATM    8  C13 UNL     1      21.829  -0.198  54.078  1.00  0.00     0.142 A 
HETATM    9  C20 UNL     1      22.957   0.217  53.416  1.00  0.00     0.041 A 
HETATM   10  C21 UNL     1      23.001   1.081  52.350  1.00  0.00     0.047 A 
ENDROOT
BRANCH   1  11
HETATM   11  N1  UNL     1      24.090   2.398  50.586  1.00  0.00    -0.325 N 
HETATM   12  C1  UNL     1      23.723   3.744  50.893  1.00  0.00     0.246 C 
HETATM   13  O1  UNL     1      23.457   4.070  52.088  1.00  0.00    -0.271 OA
HETATM   14  H7  UNL     1      24.279   2.291  49.556  1.00  0.00     0.169 HD
BRANCH  12  15
HETATM   15  C2  UNL     1      23.595   4.898  49.965  1.00  0.00     0.278 C 
BRANCH  15  16
HETATM   16  O2  UNL     1      24.600   5.847  50.219  1.00  0.00    -0.346 OA
BRANCH  16  17
HETATM   17  C3  UNL     1      25.805   5.682  49.555  1.00  0.00     0.053 A 
HETATM   18  C4  UNL     1      26.184   6.838  48.992  1.00  0.00     0.035 A 
HETATM   19  C5  UNL     1      27.464   6.633  48.296  1.00  0.00     0.040 A 
HETATM   20  C6  UNL     1      27.851   5.358  48.441  1.00  0.00     0.100 A 
HETATM   21  F1  UNL     1      28.860   4.550  48.083  1.00  0.00    -0.210 F 
HETATM   22  C7  UNL     1      26.831   4.644  49.254  1.00  0.00     0.134 A 
ENDBRANCH  16  17
ENDBRANCH  15  16
ENDBRANCH  12  15
ENDBRANCH   1  11
BRANCH   8  23
HETATM   23  N4  UNL     1      20.581   0.302  53.634  1.00  0.00    -0.340 N 
HETATM   24  H11 UNL     1      20.383   1.317  53.566  1.00  0.00     0.167 HD
BRANCH  23  25
HETATM   25  C14 UNL     1      19.416  -0.384  53.215  1.00  0.00     0.035 A 
HETATM   26  C15 UNL     1      18.847  -1.491  53.848  1.00  0.00     0.029 A 
HETATM   27  C16 UNL     1      17.712  -2.118  53.401  1.00  0.00     0.004 A 
HETATM   28  C17 UNL     1      17.052  -1.681  52.279  1.00  0.00     0.019 A 
HETATM   29  C18 UNL     1      17.574  -0.591  51.618  1.00  0.00     0.013 A 
HETATM   30 BR1  UNL     1      16.619  -0.031  50.070  1.00  0.00    -0.051 Br
HETATM   31  C19 UNL     1      18.713   0.007  52.098  1.00  0.00     0.048 A 
ENDBRANCH  23  25
ENDBRANCH   8  23
TORSDOF 6
ENDMDL
MODEL 9
REMARK VINA RESULT:      -7.8      4.462      7.885
REMARK  6 active torsions:
REMARK  status: ('A' for Active; 'I' for Inactive)
REMARK    1  A    between atoms: C1_2  and  C2_3 
REMARK       I    between atoms: C1_2  and  N1_11 
REMARK    2  A    between atoms: C2_3  and  O2_4 
REMARK    3  A    between atoms: O2_4  and  C3_5 
REMARK    4  A    between atoms: N1_11  and  C8_12 
REMARK    5  A    between atoms: C13_19  and  N4_20 
REMARK    6  A    between atoms: N4_20  and  C14_21 
ROOT
HETATM    1  C8  UNL     1      24.900   4.163  49.987  1.00  0.00     0.035 A 
HETATM    2  C9  UNL     1      23.813   3.799  49.220  1.00  0.00     0.032 A 
HETATM    3  C10 UNL     1      23.019   2.760  49.654  1.00  0.00     0.035 A 
HETATM    4  C11 UNL     1      23.321   2.114  50.831  1.00  0.00     0.072 A 
HETATM    5  N2  UNL     1      22.505   1.093  51.220  1.00  0.00    -0.241 NA
HETATM    6  C12 UNL     1      22.755   0.424  52.365  1.00  0.00     0.236 A 
HETATM    7  N3  UNL     1      23.796   0.745  53.134  1.00  0.00    -0.224 NA
HETATM    8  C13 UNL     1      24.621   1.732  52.800  1.00  0.00     0.142 A 
HETATM    9  C20 UNL     1      24.386   2.426  51.640  1.00  0.00     0.041 A 
HETATM   10  C21 UNL     1      25.135   3.467  51.150  1.00  0.00     0.047 A 
ENDROOT
BRANCH   1  11
HETATM   11  N1  UNL     1      25.728   5.233  49.549  1.00  0.00    -0.325 N 
HETATM   12  C1  UNL     1      26.976   4.859  48.963  1.00  0.00     0.246 C 
HETATM   13  O1  UNL     1      27.285   3.635  48.861  1.00  0.00    -0.271 OA
HETATM   14  H7  UNL     1      25.621   6.279  49.559  1.00  0.00     0.169 HD
BRANCH  12  15
HETATM   15  C2  UNL     1      28.039   5.743  48.418  1.00  0.00     0.278 C 
BRANCH  15  16
HETATM   16  O2  UNL     1      29.300   5.139  48.554  1.00  0.00    -0.346 OA
BRANCH  16  17
HETATM   17  C3  UNL     1      30.397   5.980  48.638  1.00  0.00     0.053 A 
HETATM   18  C4  UNL     1      30.052   7.226  48.283  1.00  0.00     0.035 A 
HETATM   19  C5  UNL     1      31.234   8.096  48.381  1.00  0.00     0.040 A 
HETATM   20  C6  UNL     1      32.285   7.373  48.793  1.00  0.00     0.100 A 
HETATM   21  F1  UNL     1      33.588   7.534  49.074  1.00  0.00    -0.210 F 
HETATM   22  C7  UNL     1      31.845   5.967  48.992  1.00  0.00     0.134 A 
ENDBRANCH  16  17
ENDBRANCH  15  16
ENDBRANCH  12  15
ENDBRANCH   1  11
BRANCH   8  23
HETATM   23  N4  UNL     1      25.740   2.113  53.581  1.00  0.00    -0.340 N 
HETATM   24  H11 UNL     1      25.703   2.897  54.257  1.00  0.00     0.167 HD
BRANCH  23  25
HETATM   25  C14 UNL     1      27.048   1.574  53.630  1.00  0.00     0.035 A 
HETATM   26  C15 UNL     1      28.218   2.290  53.894  1.00  0.00     0.029 A 
HETATM   27  C16 UNL     1      29.463   1.717  53.933  1.00  0.00     0.004 A 
HETATM   28  C17 UNL     1      29.636   0.373  53.710  1.00  0.00     0.019 A 
HETATM   29  C18 UNL     1      28.512  -0.378  53.445  1.00  0.00     0.013 A 
HETATM   30 BR1  UNL     1      28.812  -2.233  53.144  1.00  0.00    -0.051 Br
HETATM   31  C19 UNL     1      27.283   0.235  53.415  1.00  0.00     0.048 A 
ENDBRANCH  23  25
ENDBRANCH   8  23
TORSDOF 6
ENDMDL
