MODEL 1
REMARK VINA RESULT:      -7.4      0.000      0.000
REMARK  7 active torsions:
REMARK  status: ('A' for Active; 'I' for Inactive)
REMARK    1  A    between atoms: C2_2  and  C3_3 
REMARK    2  A    between atoms: C5_5  and  O1_6 
REMARK    3  A    between atoms: C8_9  and  C9_10 
REMARK    4  A    between atoms: C11_12  and  C12_13 
REMARK       I    between atoms: C12_13  and  N1_14 
REMARK    5  A    between atoms: C14_17  and  O3_18 
REMARK    6  A    between atoms: O3_18  and  C15_19 
REMARK    7  A    between atoms: C17_21  and  O4_22 
ROOT
HETATM    1  C9  UNL     1      23.822   0.799  52.203  1.00  0.00    -0.012 A 
HETATM    2  C10 UNL     1      23.640  -0.014  53.330  1.00  0.00     0.027 A 
HETATM    3  C11 UNL     1      22.446  -0.615  53.666  1.00  0.00     0.035 A 
HETATM    4  C13 UNL     1      21.363  -0.402  52.838  1.00  0.00     0.056 A 
HETATM    5  C14 UNL     1      21.515   0.395  51.720  1.00  0.00     0.103 A 
HETATM    6  C17 UNL     1      22.707   0.987  51.398  1.00  0.00     0.106 A 
ENDROOT
BRANCH   1   7
HETATM    7  C8  UNL     1      25.169   1.367  51.987  1.00  0.00     0.058 A 
HETATM    8  C3  UNL     1      25.447   2.268  53.111  1.00  0.00    -0.050 A 
HETATM    9  C4  UNL     1      26.441   2.376  53.976  1.00  0.00     0.043 A 
HETATM   10  C5  UNL     1      27.496   1.394  53.773  1.00  0.00     0.062 A 
HETATM   11  C6  UNL     1      27.380   0.518  52.794  1.00  0.00     0.011 A 
HETATM   12  C7  UNL     1      26.254   0.391  51.811  1.00  0.00     0.044 A 
BRANCH   8  13
HETATM   13  C2  UNL     1      24.368   3.232  53.276  1.00  0.00    -0.019 C 
HETATM   14  C1  UNL     1      23.841   4.283  52.672  1.00  0.00     0.031 C 
ENDBRANCH   8  13
BRANCH  10  15
HETATM   15  O1  UNL     1      28.597   1.394  54.609  1.00  0.00    -0.361 OA
HETATM   16  H5  UNL     1      29.524   1.304  54.165  1.00  0.00     0.217 HD
ENDBRANCH  10  15
ENDBRANCH   1   7
BRANCH   6  17
HETATM   17  O4  UNL     1      22.948   1.800  50.298  1.00  0.00    -0.357 OA
HETATM   18  H19 UNL     1      22.302   1.676  49.515  1.00  0.00     0.217 HD
ENDBRANCH   6  17
BRANCH   3  19
HETATM   19  C12 UNL     1      22.330  -1.449  54.856  1.00  0.00     0.249 C 
HETATM   20  N1  UNL     1      23.431  -1.519  55.755  1.00  0.00    -0.366 N 
HETATM   21  H11 UNL     1      24.130  -2.225  56.024  1.00  0.00     0.159 HD
HETATM   22  H12 UNL     1      23.910  -0.888  56.448  1.00  0.00     0.159 HD
HETATM   23  O2  UNL     1      21.280  -2.089  55.077  1.00  0.00    -0.268 OA
ENDBRANCH   3  19
BRANCH   5  24
HETATM   24  O3  UNL     1      20.444   0.626  50.871  1.00  0.00    -0.349 OA
BRANCH  24  25
HETATM   25  C15 UNL     1      19.197   1.120  51.331  1.00  0.00     0.171 C 
HETATM   26  C16 UNL     1      18.174   0.032  51.047  1.00  0.00     0.034 C 
ENDBRANCH  24  25
ENDBRANCH   5  24
TORSDOF 7
ENDMDL
MODEL 2
REMARK VINA RESULT:      -7.1      2.632      4.252
REMARK  7 active torsions:
REMARK  status: ('A' for Active; 'I' for Inactive)
REMARK    1  A    between atoms: C2_2  and  C3_3 
REMARK    2  A    between atoms: C5_5  and  O1_6 
REMARK    3  A    between atoms: C8_9  and  C9_10 
REMARK    4  A    between atoms: C11_12  and  C12_13 
REMARK       I    between atoms: C12_13  and  N1_14 
REMARK    5  A    between atoms: C14_17  and  O3_18 
REMARK    6  A    between atoms: O3_18  and  C15_19 
REMARK    7  A    between atoms: C17_21  and  O4_22 
ROOT
HETATM    1  C9  UNL     1      24.192   2.109  51.542  1.00  0.00    -0.012 A 
HETATM    2  C10 UNL     1      25.325   2.195  52.362  1.00  0.00     0.027 A 
HETATM    3  C11 UNL     1      25.599   1.328  53.398  1.00  0.00     0.035 A 
HETATM    4  C13 UNL     1      24.698   0.311  53.641  1.00  0.00     0.056 A 
HETATM    5  C14 UNL     1      23.573   0.203  52.847  1.00  0.00     0.103 A 
HETATM    6  C17 UNL     1      23.312   1.071  51.821  1.00  0.00     0.106 A 
ENDROOT
BRANCH   1   7
HETATM    7  C8  UNL     1      24.049   3.119  50.474  1.00  0.00     0.058 A 
HETATM    8  C3  UNL     1      23.797   4.409  51.126  1.00  0.00    -0.050 A 
HETATM    9  C4  UNL     1      24.359   5.604  51.045  1.00  0.00     0.043 A 
HETATM   10  C5  UNL     1      25.467   5.661  50.103  1.00  0.00     0.062 A 
HETATM   11  C6  UNL     1      25.805   4.571  49.441  1.00  0.00     0.011 A 
HETATM   12  C7  UNL     1      25.172   3.215  49.530  1.00  0.00     0.044 A 
BRANCH   8  13
HETATM   13  C2  UNL     1      22.683   4.306  52.057  1.00  0.00    -0.019 C 
HETATM   14  C1  UNL     1      21.360   4.316  52.068  1.00  0.00     0.031 C 
ENDBRANCH   8  13
BRANCH  10  15
HETATM   15  O1  UNL     1      26.145   6.851  49.919  1.00  0.00    -0.361 OA
HETATM   16  H5  UNL     1      26.396   7.385  50.766  1.00  0.00     0.217 HD
ENDBRANCH  10  15
ENDBRANCH   1   7
BRANCH   6  17
HETATM   17  O4  UNL     1      22.211   1.037  50.977  1.00  0.00    -0.357 OA
HETATM   18  H19 UNL     1      21.705   0.147  50.955  1.00  0.00     0.217 HD
ENDBRANCH   6  17
BRANCH   3  19
HETATM   19  C12 UNL     1      26.800   1.478  54.211  1.00  0.00     0.249 C 
HETATM   20  N1  UNL     1      27.663   2.582  53.962  1.00  0.00    -0.366 N 
HETATM   21  H11 UNL     1      28.602   2.719  53.567  1.00  0.00     0.159 HD
HETATM   22  H12 UNL     1      27.645   3.627  54.092  1.00  0.00     0.159 HD
HETATM   23  O2  UNL     1      27.061   0.649  55.108  1.00  0.00    -0.268 OA
ENDBRANCH   3  19
BRANCH   5  24
HETATM   24  O3  UNL     1      22.652  -0.810  53.069  1.00  0.00    -0.349 OA
BRANCH  24  25
HETATM   25  C15 UNL     1      22.056  -1.037  54.335  1.00  0.00     0.171 C 
HETATM   26  C16 UNL     1      21.035   0.070  54.533  1.00  0.00     0.034 C 
ENDBRANCH  24  25
ENDBRANCH   5  24
TORSDOF 7
ENDMDL
MODEL 3
REMARK VINA RESULT:      -7.1      2.345      6.467
REMARK  7 active torsions:
REMARK  status: ('A' for Active; 'I' for Inactive)
REMARK    1  A    between atoms: C2_2  and  C3_3 
REMARK    2  A    between atoms: C5_5  and  O1_6 
REMARK    3  A    between atoms: C8_9  and  C9_10 
REMARK    4  A    between atoms: C11_12  and  C12_13 
REMARK       I    between atoms: C12_13  and  N1_14 
REMARK    5  A    between atoms: C14_17  and  O3_18 
REMARK    6  A    between atoms: O3_18  and  C15_19 
REMARK    7  A    between atoms: C17_21  and  O4_22 
ROOT
HETATM    1  C9  UNL     1      23.135   0.897  52.495  1.00  0.00    -0.012 A 
HETATM    2  C10 UNL     1      22.822   2.262  52.477  1.00  0.00     0.027 A 
HETATM    3  C11 UNL     1      23.699   3.263  52.836  1.00  0.00     0.035 A 
HETATM    4  C13 UNL     1      24.967   2.893  53.237  1.00  0.00     0.056 A 
HETATM    5  C14 UNL     1      25.303   1.554  53.263  1.00  0.00     0.103 A 
HETATM    6  C17 UNL     1      24.421   0.570  52.905  1.00  0.00     0.106 A 
ENDROOT
BRANCH   1   7
HETATM    7  C8  UNL     1      22.078  -0.048  52.080  1.00  0.00     0.058 A 
HETATM    8  C3  UNL     1      21.110  -0.129  53.179  1.00  0.00    -0.050 A 
HETATM    9  C4  UNL     1      19.799   0.019  53.261  1.00  0.00     0.043 A 
HETATM   10  C5  UNL     1      19.170   0.326  51.984  1.00  0.00     0.062 A 
HETATM   11  C6  UNL     1      19.920   0.428  50.905  1.00  0.00     0.011 A 
HETATM   12  C7  UNL     1      21.408   0.262  50.808  1.00  0.00     0.044 A 
BRANCH   8  13
HETATM   13  C2  UNL     1      21.782  -0.438  54.434  1.00  0.00    -0.019 C 
HETATM   14  C1  UNL     1      22.217  -1.477  55.127  1.00  0.00     0.031 C 
ENDBRANCH   8  13
BRANCH  10  15
HETATM   15  O1  UNL     1      17.800   0.506  51.925  1.00  0.00    -0.361 OA
HETATM   16  H5  UNL     1      17.357   0.442  50.996  1.00  0.00     0.217 HD
ENDBRANCH  10  15
ENDBRANCH   1   7
BRANCH   6  17
HETATM   17  O4  UNL     1      24.673  -0.796  52.902  1.00  0.00    -0.357 OA
HETATM   18  H19 UNL     1      24.853  -1.204  51.981  1.00  0.00     0.217 HD
ENDBRANCH   6  17
BRANCH   3  19
HETATM   19  C12 UNL     1      23.303   4.665  52.793  1.00  0.00     0.249 C 
HETATM   20  N1  UNL     1      24.041   5.610  53.558  1.00  0.00    -0.366 N 
HETATM   21  H11 UNL     1      23.876   6.180  54.399  1.00  0.00     0.159 HD
HETATM   22  H12 UNL     1      24.997   6.052  53.537  1.00  0.00     0.159 HD
HETATM   23  O2  UNL     1      22.333   5.024  52.093  1.00  0.00    -0.268 OA
ENDBRANCH   3  19
BRANCH   5  24
HETATM   24  O3  UNL     1      26.569   1.155  53.662  1.00  0.00    -0.349 OA
BRANCH  24  25
HETATM   25  C15 UNL     1      27.728   1.397  52.881  1.00  0.00     0.171 C 
HETATM   26  C16 UNL     1      28.549   2.426  53.640  1.00  0.00     0.034 C 
ENDBRANCH  24  25
ENDBRANCH   5  24
TORSDOF 7
ENDMDL
MODEL 4
REMARK VINA RESULT:      -6.8      2.392      5.505
REMARK  7 active torsions:
REMARK  status: ('A' for Active; 'I' for Inactive)
REMARK    1  A    between atoms: C2_2  and  C3_3 
REMARK    2  A    between atoms: C5_5  and  O1_6 
REMARK    3  A    between atoms: C8_9  and  C9_10 
REMARK    4  A    between atoms: C11_12  and  C12_13 
REMARK       I    between atoms: C12_13  and  N1_14 
REMARK    5  A    between atoms: C14_17  and  O3_18 
REMARK    6  A    between atoms: O3_18  and  C15_19 
REMARK    7  A    between atoms: C17_21  and  O4_22 
ROOT
HETATM    1  C9  UNL     1      24.618   2.440  52.934  1.00  0.00    -0.012 A 
HETATM    2  C10 UNL     1      23.532   1.574  52.752  1.00  0.00     0.027 A 
HETATM    3  C11 UNL     1      23.521   0.253  53.145  1.00  0.00     0.035 A 
HETATM    4  C13 UNL     1      24.653  -0.246  53.757  1.00  0.00     0.056 A 
HETATM    5  C14 UNL     1      25.738   0.587  53.949  1.00  0.00     0.103 A 
HETATM    6  C17 UNL     1      25.736   1.897  53.554  1.00  0.00     0.106 A 
ENDROOT
BRANCH   1   7
HETATM    7  C8  UNL     1      24.466   3.829  52.454  1.00  0.00     0.058 A 
HETATM    8  C3  UNL     1      24.377   3.778  50.991  1.00  0.00    -0.050 A 
HETATM    9  C4  UNL     1      23.517   4.251  50.106  1.00  0.00     0.043 A 
HETATM   10  C5  UNL     1      22.416   4.990  50.707  1.00  0.00     0.062 A 
HETATM   11  C6  UNL     1      22.367   5.119  52.018  1.00  0.00     0.011 A 
HETATM   12  C7  UNL     1      23.340   4.583  53.026  1.00  0.00     0.044 A 
BRANCH   8  13
HETATM   13  C2  UNL     1      25.497   3.031  50.434  1.00  0.00    -0.019 C 
HETATM   14  C1  UNL     1      26.540   3.202  49.639  1.00  0.00     0.031 C 
ENDBRANCH   8  13
BRANCH  10  15
HETATM   15  O1  UNL     1      21.442   5.541  49.895  1.00  0.00    -0.361 OA
HETATM   16  H5  UNL     1      20.548   5.799  50.341  1.00  0.00     0.217 HD
ENDBRANCH  10  15
ENDBRANCH   1   7
BRANCH   6  17
HETATM   17  O4  UNL     1      26.778   2.802  53.707  1.00  0.00    -0.357 OA
HETATM   18  H19 UNL     1      26.498   3.783  53.776  1.00  0.00     0.217 HD
ENDBRANCH   6  17
BRANCH   3  19
HETATM   19  C12 UNL     1      22.352  -0.591  52.923  1.00  0.00     0.249 C 
HETATM   20  N1  UNL     1      21.412  -0.211  51.925  1.00  0.00    -0.366 N 
HETATM   21  H11 UNL     1      20.448   0.147  51.907  1.00  0.00     0.159 HD
HETATM   22  H12 UNL     1      21.371  -0.165  50.874  1.00  0.00     0.159 HD
HETATM   23  O2  UNL     1      22.186  -1.627  53.601  1.00  0.00    -0.268 OA
ENDBRANCH   3  19
BRANCH   5  24
HETATM   24  O3  UNL     1      26.887   0.112  54.562  1.00  0.00    -0.349 OA
BRANCH  24  25
HETATM   25  C15 UNL     1      27.920  -0.545  53.845  1.00  0.00     0.171 C 
HETATM   26  C16 UNL     1      29.186   0.260  54.086  1.00  0.00     0.034 C 
ENDBRANCH  24  25
ENDBRANCH   5  24
TORSDOF 7
ENDMDL
MODEL 5
REMARK VINA RESULT:      -6.7      2.598      5.194
REMARK  7 active torsions:
REMARK  status: ('A' for Active; 'I' for Inactive)
REMARK    1  A    between atoms: C2_2  and  C3_3 
REMARK    2  A    between atoms: C5_5  and  O1_6 
REMARK    3  A    between atoms: C8_9  and  C9_10 
REMARK    4  A    between atoms: C11_12  and  C12_13 
REMARK       I    between atoms: C12_13  and  N1_14 
REMARK    5  A    between atoms: C14_17  and  O3_18 
REMARK    6  A    between atoms: O3_18  and  C15_19 
REMARK    7  A    between atoms: C17_21  and  O4_22 
ROOT
HETATM    1  C9  UNL     1      25.402   2.100  51.592  1.00  0.00    -0.012 A 
HETATM    2  C10 UNL     1      24.347   1.262  51.976  1.00  0.00     0.027 A 
HETATM    3  C11 UNL     1      24.363   0.462  53.098  1.00  0.00     0.035 A 
HETATM    4  C13 UNL     1      25.491   0.490  53.893  1.00  0.00     0.056 A 
HETATM    5  C14 UNL     1      26.545   1.309  53.538  1.00  0.00     0.103 A 
HETATM    6  C17 UNL     1      26.517   2.099  52.420  1.00  0.00     0.106 A 
ENDROOT
BRANCH   1   7
HETATM    7  C8  UNL     1      25.224   2.894  50.359  1.00  0.00     0.058 A 
HETATM    8  C3  UNL     1      24.801   4.239  50.764  1.00  0.00    -0.050 A 
HETATM    9  C4  UNL     1      25.240   5.458  50.501  1.00  0.00     0.043 A 
HETATM   10  C5  UNL     1      26.394   5.479  49.614  1.00  0.00     0.062 A 
HETATM   11  C6  UNL     1      26.884   4.339  49.168  1.00  0.00     0.011 A 
HETATM   12  C7  UNL     1      26.389   2.954  49.464  1.00  0.00     0.044 A 
BRANCH   8  13
HETATM   13  C2  UNL     1      23.645   4.170  51.648  1.00  0.00    -0.019 C 
HETATM   14  C1  UNL     1      22.357   4.467  51.665  1.00  0.00     0.031 C 
ENDBRANCH   8  13
BRANCH  10  15
HETATM   15  O1  UNL     1      26.957   6.690  49.257  1.00  0.00    -0.361 OA
HETATM   16  H5  UNL     1      26.386   7.320  48.672  1.00  0.00     0.217 HD
ENDBRANCH  10  15
ENDBRANCH   1   7
BRANCH   6  17
HETATM   17  O4  UNL     1      27.528   2.947  51.989  1.00  0.00    -0.357 OA
HETATM   18  H19 UNL     1      27.690   2.955  50.979  1.00  0.00     0.217 HD
ENDBRANCH   6  17
BRANCH   3  19
HETATM   19  C12 UNL     1      23.226  -0.387  53.436  1.00  0.00     0.249 C 
HETATM   20  N1  UNL     1      23.199  -1.022  54.709  1.00  0.00    -0.366 N 
HETATM   21  H11 UNL     1      23.294  -1.982  55.065  1.00  0.00     0.159 HD
HETATM   22  H12 UNL     1      23.075  -0.739  55.716  1.00  0.00     0.159 HD
HETATM   23  O2  UNL     1      22.296  -0.549  52.618  1.00  0.00    -0.268 OA
ENDBRANCH   3  19
BRANCH   5  24
HETATM   24  O3  UNL     1      27.690   1.357  54.318  1.00  0.00    -0.349 OA
BRANCH  24  25
HETATM   25  C15 UNL     1      28.352   0.190  54.778  1.00  0.00     0.171 C 
HETATM   26  C16 UNL     1      29.410  -0.140  53.739  1.00  0.00     0.034 C 
ENDBRANCH  24  25
ENDBRANCH   5  24
TORSDOF 7
ENDMDL
MODEL 6
REMARK VINA RESULT:      -6.6      3.239      5.373
REMARK  7 active torsions:
REMARK  status: ('A' for Active; 'I' for Inactive)
REMARK    1  A    between atoms: C2_2  and  C3_3 
REMARK    2  A    between atoms: C5_5  and  O1_6 
REMARK    3  A    between atoms: C8_9  and  C9_10 
REMARK    4  A    between atoms: C11_12  and  C12_13 
REMARK       I    between atoms: C12_13  and  N1_14 
REMARK    5  A    between atoms: C14_17  and  O3_18 
REMARK    6  A    between atoms: O3_18  and  C15_19 
REMARK    7  A    between atoms: C17_21  and  O4_22 
ROOT
HETATM    1  C9  UNL     1      25.178   2.587  52.481  1.00  0.00    -0.012 A 
HETATM    2  C10 UNL     1      23.951   3.241  52.654  1.00  0.00     0.027 A 
HETATM    3  C11 UNL     1      23.411   4.127  51.747  1.00  0.00     0.035 A 
HETATM    4  C13 UNL     1      24.127   4.385  50.596  1.00  0.00     0.056 A 
HETATM    5  C14 UNL     1      25.339   3.754  50.400  1.00  0.00     0.103 A 
HETATM    6  C17 UNL     1      25.865   2.876  51.309  1.00  0.00     0.106 A 
ENDROOT
BRANCH   1   7
HETATM    7  C8  UNL     1      25.613   1.666  53.551  1.00  0.00     0.058 A 
HETATM    8  C3  UNL     1      25.302   0.304  53.107  1.00  0.00    -0.050 A 
HETATM    9  C4  UNL     1      26.007  -0.809  52.996  1.00  0.00     0.043 A 
HETATM   10  C5  UNL     1      27.396  -0.659  53.406  1.00  0.00     0.062 A 
HETATM   11  C6  UNL     1      27.817   0.515  53.832  1.00  0.00     0.011 A 
HETATM   12  C7  UNL     1      27.022   1.781  53.959  1.00  0.00     0.044 A 
BRANCH   8  13
HETATM   13  C2  UNL     1      23.905   0.200  52.707  1.00  0.00    -0.019 C 
HETATM   14  C1  UNL     1      22.780  -0.386  53.082  1.00  0.00     0.031 C 
ENDBRANCH   8  13
BRANCH  10  15
HETATM   15  O1  UNL     1      28.247  -1.747  53.341  1.00  0.00    -0.361 OA
HETATM   16  H5  UNL     1      28.097  -2.503  54.026  1.00  0.00     0.217 HD
ENDBRANCH  10  15
ENDBRANCH   1   7
BRANCH   6  17
HETATM   17  O4  UNL     1      27.072   2.199  51.194  1.00  0.00    -0.357 OA
HETATM   18  H19 UNL     1      27.880   2.785  50.968  1.00  0.00     0.217 HD
ENDBRANCH   6  17
BRANCH   3  19
HETATM   19  C12 UNL     1      22.126   4.771  51.994  1.00  0.00     0.249 C 
HETATM   20  N1  UNL     1      21.999   6.166  51.744  1.00  0.00    -0.366 N 
HETATM   21  H11 UNL     1      21.890   7.017  52.311  1.00  0.00     0.159 HD
HETATM   22  H12 UNL     1      21.972   6.807  50.909  1.00  0.00     0.159 HD
HETATM   23  O2  UNL     1      21.158   4.104  52.417  1.00  0.00    -0.268 OA
ENDBRANCH   3  19
BRANCH   5  24
HETATM   24  O3  UNL     1      26.079   3.994  49.252  1.00  0.00    -0.349 OA
BRANCH  24  25
HETATM   25  C15 UNL     1      26.566   5.282  48.912  1.00  0.00     0.171 C 
HETATM   26  C16 UNL     1      28.022   5.099  48.519  1.00  0.00     0.034 C 
ENDBRANCH  24  25
ENDBRANCH   5  24
TORSDOF 7
ENDMDL
MODEL 7
REMARK VINA RESULT:      -6.5      3.012      4.935
REMARK  7 active torsions:
REMARK  status: ('A' for Active; 'I' for Inactive)
REMARK    1  A    between atoms: C2_2  and  C3_3 
REMARK    2  A    between atoms: C5_5  and  O1_6 
REMARK    3  A    between atoms: C8_9  and  C9_10 
REMARK    4  A    between atoms: C11_12  and  C12_13 
REMARK       I    between atoms: C12_13  and  N1_14 
REMARK    5  A    between atoms: C14_17  and  O3_18 
REMARK    6  A    between atoms: O3_18  and  C15_19 
REMARK    7  A    between atoms: C17_21  and  O4_22 
ROOT
HETATM    1  C9  UNL     1      23.984   2.779  51.993  1.00  0.00    -0.012 A 
HETATM    2  C10 UNL     1      23.550   2.114  50.839  1.00  0.00     0.027 A 
HETATM    3  C11 UNL     1      22.685   2.654  49.912  1.00  0.00     0.035 A 
HETATM    4  C13 UNL     1      22.219   3.934  50.137  1.00  0.00     0.056 A 
HETATM    5  C14 UNL     1      22.632   4.613  51.267  1.00  0.00     0.103 A 
HETATM    6  C17 UNL     1      23.491   4.064  52.181  1.00  0.00     0.106 A 
ENDROOT
BRANCH   1   7
HETATM    7  C8  UNL     1      24.914   2.055  52.884  1.00  0.00     0.058 A 
HETATM    8  C3  UNL     1      24.336   0.731  53.134  1.00  0.00    -0.050 A 
HETATM    9  C4  UNL     1      24.790  -0.506  53.018  1.00  0.00     0.043 A 
HETATM   10  C5  UNL     1      26.164  -0.577  52.543  1.00  0.00     0.062 A 
HETATM   11  C6  UNL     1      26.812   0.541  52.279  1.00  0.00     0.011 A 
HETATM   12  C7  UNL     1      26.301   1.946  52.408  1.00  0.00     0.044 A 
BRANCH   8  13
HETATM   13  C2  UNL     1      22.963   0.850  53.607  1.00  0.00    -0.019 C 
HETATM   14  C1  UNL     1      21.858   0.132  53.717  1.00  0.00     0.031 C 
ENDBRANCH   8  13
BRANCH  10  15
HETATM   15  O1  UNL     1      26.764  -1.811  52.377  1.00  0.00    -0.361 OA
HETATM   16  H5  UNL     1      26.940  -2.121  51.409  1.00  0.00     0.217 HD
ENDBRANCH  10  15
ENDBRANCH   1   7
BRANCH   6  17
HETATM   17  O4  UNL     1      23.956   4.672  53.339  1.00  0.00    -0.357 OA
HETATM   18  H19 UNL     1      24.150   5.673  53.258  1.00  0.00     0.217 HD
ENDBRANCH   6  17
BRANCH   3  19
HETATM   19  C12 UNL     1      22.276   1.902  48.732  1.00  0.00     0.249 C 
HETATM   20  N1  UNL     1      21.339   0.843  48.885  1.00  0.00    -0.366 N 
HETATM   21  H11 UNL     1      21.360  -0.185  48.831  1.00  0.00     0.159 HD
HETATM   22  H12 UNL     1      20.314   0.737  49.103  1.00  0.00     0.159 HD
HETATM   23  O2  UNL     1      22.744   2.188  47.610  1.00  0.00    -0.268 OA
ENDBRANCH   3  19
BRANCH   5  24
HETATM   24  O3  UNL     1      22.179   5.899  51.518  1.00  0.00    -0.349 OA
BRANCH  24  25
HETATM   25  C15 UNL     1      22.327   6.957  50.585  1.00  0.00     0.171 C 
HETATM   26  C16 UNL     1      23.701   7.557  50.833  1.00  0.00     0.034 C 
ENDBRANCH  24  25
ENDBRANCH   5  24
TORSDOF 7
ENDMDL
MODEL 8
REMARK VINA RESULT:      -6.4      2.008      5.938
REMARK  7 active torsions:
REMARK  status: ('A' for Active; 'I' for Inactive)
REMARK    1  A    between atoms: C2_2  and  C3_3 
REMARK    2  A    between atoms: C5_5  and  O1_6 
REMARK    3  A    between atoms: C8_9  and  C9_10 
REMARK    4  A    between atoms: C11_12  and  C12_13 
REMARK       I    between atoms: C12_13  and  N1_14 
REMARK    5  A    between atoms: C14_17  and  O3_18 
REMARK    6  A    between atoms: O3_18  and  C15_19 
REMARK    7  A    between atoms: C17_21  and  O4_22 
ROOT
HETATM    1  C9  UNL     1      22.144   1.665  51.971  1.00  0.00    -0.012 A 
HETATM    2  C10 UNL     1      21.599   0.726  52.857  1.00  0.00     0.027 A 
HETATM    3  C11 UNL     1      22.343  -0.191  53.566  1.00  0.00     0.035 A 
HETATM    4  C13 UNL     1      23.712  -0.182  53.393  1.00  0.00     0.056 A 
HETATM    5  C14 UNL     1      24.276   0.734  52.527  1.00  0.00     0.103 A 
HETATM    6  C17 UNL     1      23.526   1.640  51.826  1.00  0.00     0.106 A 
ENDROOT
BRANCH   1   7
HETATM    7  C8  UNL     1      21.206   2.579  51.288  1.00  0.00     0.058 A 
HETATM    8  C3  UNL     1      20.441   1.779  50.326  1.00  0.00    -0.050 A 
HETATM    9  C4  UNL     1      19.151   1.607  50.094  1.00  0.00     0.043 A 
HETATM   10  C5  UNL     1      18.295   2.382  50.981  1.00  0.00     0.062 A 
HETATM   11  C6  UNL     1      18.847   3.151  51.898  1.00  0.00     0.011 A 
HETATM   12  C7  UNL     1      20.310   3.348  52.165  1.00  0.00     0.044 A 
BRANCH   8  13
HETATM   13  C2  UNL     1      21.336   1.022  49.460  1.00  0.00    -0.019 C 
HETATM   14  C1  UNL     1      21.959   1.128  48.299  1.00  0.00     0.031 C 
ENDBRANCH   8  13
BRANCH  10  15
HETATM   15  O1  UNL     1      16.921   2.297  50.848  1.00  0.00    -0.361 OA
HETATM   16  H5  UNL     1      16.530   2.450  49.906  1.00  0.00     0.217 HD
ENDBRANCH  10  15
ENDBRANCH   1   7
BRANCH   6  17
HETATM   17  O4  UNL     1      24.007   2.592  50.938  1.00  0.00    -0.357 OA
HETATM   18  H19 UNL     1      23.801   3.563  51.185  1.00  0.00     0.217 HD
ENDBRANCH   6  17
BRANCH   3  19
HETATM   19  C12 UNL     1      21.706  -1.140  54.472  1.00  0.00     0.249 C 
HETATM   20  N1  UNL     1      20.328  -1.443  54.291  1.00  0.00    -0.366 N 
HETATM   21  H11 UNL     1      19.450  -1.249  54.791  1.00  0.00     0.159 HD
HETATM   22  H12 UNL     1      19.731  -1.961  53.595  1.00  0.00     0.159 HD
HETATM   23  O2  UNL     1      22.366  -1.675  55.389  1.00  0.00    -0.268 OA
ENDBRANCH   3  19
BRANCH   5  24
HETATM   24  O3  UNL     1      25.649   0.766  52.333  1.00  0.00    -0.349 OA
BRANCH  24  25
HETATM   25  C15 UNL     1      26.521   1.508  53.169  1.00  0.00     0.171 C 
HETATM   26  C16 UNL     1      27.864   0.798  53.124  1.00  0.00     0.034 C 
ENDBRANCH  24  25
ENDBRANCH   5  24
TORSDOF 7
ENDMDL
MODEL 9
REMARK VINA RESULT:      -6.3      2.170      4.919
REMARK  7 active torsions:
REMARK  status: ('A' for Active; 'I' for Inactive)
REMARK    1  A    between atoms: C2_2  and  C3_3 
REMARK    2  A    between atoms: C5_5  and  O1_6 
REMARK    3  A    between atoms: C8_9  and  C9_10 
REMARK    4  A    between atoms: C11_12  and  C12_13 
REMARK       I    between atoms: C12_13  and  N1_14 
REMARK    5  A    between atoms: C14_17  and  O3_18 
REMARK    6  A    between atoms: O3_18  and  C15_19 
REMARK    7  A    between atoms: C17_21  and  O4_22 
ROOT
HETATM    1  C9  UNL     1      24.462   2.375  52.745  1.00  0.00    -0.012 A 
HETATM    2  C10 UNL     1      25.743   2.129  53.256  1.00  0.00     0.027 A 
HETATM    3  C11 UNL     1      26.148   0.923  53.785  1.00  0.00     0.035 A 
HETATM    4  C13 UNL     1      25.231  -0.108  53.811  1.00  0.00     0.056 A 
HETATM    5  C14 UNL     1      23.961   0.106  53.313  1.00  0.00     0.103 A 
HETATM    6  C17 UNL     1      23.571   1.310  52.791  1.00  0.00     0.106 A 
ENDROOT
BRANCH   1   7
HETATM    7  C8  UNL     1      24.190   3.726  52.214  1.00  0.00     0.058 A 
HETATM    8  C3  UNL     1      24.095   3.610  50.755  1.00  0.00    -0.050 A 
HETATM    9  C4  UNL     1      23.191   3.975  49.862  1.00  0.00     0.043 A 
HETATM   10  C5  UNL     1      22.036   4.641  50.445  1.00  0.00     0.062 A 
HETATM   11  C6  UNL     1      21.985   4.817  51.751  1.00  0.00     0.011 A 
HETATM   12  C7  UNL     1      23.008   4.404  52.768  1.00  0.00     0.044 A 
BRANCH   8  13
HETATM   13  C2  UNL     1      25.270   2.939  50.216  1.00  0.00    -0.019 C 
HETATM   14  C1  UNL     1      26.443   3.220  49.673  1.00  0.00     0.031 C 
ENDBRANCH   8  13
BRANCH  10  15
HETATM   15  O1  UNL     1      21.013   5.076  49.623  1.00  0.00    -0.361 OA
HETATM   16  H5  UNL     1      20.286   4.388  49.373  1.00  0.00     0.217 HD
ENDBRANCH  10  15
ENDBRANCH   1   7
BRANCH   6  17
HETATM   17  O4  UNL     1      22.320   1.612  52.271  1.00  0.00    -0.357 OA
HETATM   18  H19 UNL     1      21.595   0.911  52.444  1.00  0.00     0.217 HD
ENDBRANCH   6  17
BRANCH   3  19
HETATM   19  C12 UNL     1      27.500   0.740  54.299  1.00  0.00     0.249 C 
HETATM   20  N1  UNL     1      28.013  -0.581  54.425  1.00  0.00    -0.366 N 
HETATM   21  H11 UNL     1      28.245  -1.220  55.198  1.00  0.00     0.159 HD
HETATM   22  H12 UNL     1      28.330  -1.356  53.787  1.00  0.00     0.159 HD
HETATM   23  O2  UNL     1      28.191   1.730  54.621  1.00  0.00    -0.268 OA
ENDBRANCH   3  19
BRANCH   5  24
HETATM   24  O3  UNL     1      23.020  -0.912  53.326  1.00  0.00    -0.349 OA
BRANCH  24  25
HETATM   25  C15 UNL     1      22.274  -1.248  54.485  1.00  0.00     0.171 C 
HETATM   26  C16 UNL     1      20.809  -1.105  54.106  1.00  0.00     0.034 C 
ENDBRANCH  24  25
ENDBRANCH   5  24
TORSDOF 7
ENDMDL
