MODEL 1
REMARK VINA RESULT:      -6.6      0.000      0.000
REMARK  9 active torsions:
REMARK  status: ('A' for Active; 'I' for Inactive)
REMARK    1  A    between atoms: C2_2  and  O1_3 
REMARK    2  A    between atoms: O1_3  and  C3_4 
REMARK    3  A    between atoms: C8_9  and  C9_10 
REMARK    4  A    between atoms: C9_10  and  O2_11 
REMARK    5  A    between atoms: C11_14  and  N2_15 
REMARK    6  A    between atoms: N2_15  and  C12_16 
REMARK    7  A    between atoms: C12_16  and  C13_17 
REMARK    8  A    between atoms: C14_18  and  C15_20 
REMARK    9  A    between atoms: C15_20  and  C16_21 
ROOT
HETATM    1  C3  UNL     1      26.736   1.383  52.512  1.00  0.00     0.078 A 
HETATM    2  C4  UNL     1      25.474   0.827  52.575  1.00  0.00     0.053 A 
HETATM    3  C5  UNL     1      25.185   0.064  53.689  1.00  0.00     0.019 A 
HETATM    4  C6  UNL     1      26.079  -0.150  54.698  1.00  0.00     0.064 A 
HETATM    5  C7  UNL     1      27.320   0.428  54.582  1.00  0.00     0.044 A 
HETATM    6  C8  UNL     1      27.684   1.203  53.499  1.00  0.00     0.001 A 
HETATM    7  N1  UNL     1      25.612  -0.891  55.647  1.00  0.00    -0.283 NA
HETATM    8  C10 UNL     1      24.257  -1.261  55.320  1.00  0.00     0.207 A 
HETATM    9  C11 UNL     1      24.079  -0.583  54.015  1.00  0.00     0.038 A 
ENDROOT
BRANCH   9  10
HETATM   10  N2  UNL     1      22.840  -0.708  53.335  1.00  0.00    -0.388 N 
HETATM   11  H11 UNL     1      22.634  -1.698  53.086  1.00  0.00     0.159 HD
BRANCH  10  12
HETATM   12  C12 UNL     1      21.938   0.356  53.001  1.00  0.00     0.148 C 
BRANCH  12  13
HETATM   13  C13 UNL     1      21.450   0.273  51.594  1.00  0.00     0.012 C 
HETATM   14  C14 UNL     1      21.814   1.077  50.575  1.00  0.00     0.012 C 
HETATM   15 CL1  UNL     1      21.229   0.966  48.917  1.00  0.00    -0.089 Cl
BRANCH  14  16
HETATM   16  C15 UNL     1      22.758   2.223  50.570  1.00  0.00     0.082 C 
BRANCH  16  17
HETATM   17  C16 UNL     1      22.309   3.252  49.552  1.00  0.00     0.227 C 
HETATM   18  F1  UNL     1      23.429   3.622  48.829  1.00  0.00    -0.255 F 
ENDBRANCH  16  17
ENDBRANCH  14  16
ENDBRANCH  12  13
ENDBRANCH  10  12
ENDBRANCH   9  10
BRANCH   1  19
HETATM   19  O1  UNL     1      27.108   2.168  51.419  1.00  0.00    -0.343 OA
BRANCH  19  20
HETATM   20  C2  UNL     1      26.231   3.136  50.994  1.00  0.00     0.158 C 
HETATM   21  C1  UNL     1      26.524   2.865  49.727  1.00  0.00     0.038 C 
ENDBRANCH  19  20
ENDBRANCH   1  19
BRANCH   6  22
HETATM   22  C9  UNL     1      29.054   1.800  53.446  1.00  0.00     0.205 C 
BRANCH  22  23
HETATM   23  O2  UNL     1      28.976   3.154  53.101  1.00  0.00    -0.396 OA
HETATM   24  H8  UNL     1      28.717   3.714  53.883  1.00  0.00     0.209 HD
ENDBRANCH  22  23
ENDBRANCH   6  22
TORSDOF 9
ENDMDL
MODEL 2
REMARK VINA RESULT:      -6.5      3.705      6.129
REMARK  9 active torsions:
REMARK  status: ('A' for Active; 'I' for Inactive)
REMARK    1  A    between atoms: C2_2  and  O1_3 
REMARK    2  A    between atoms: O1_3  and  C3_4 
REMARK    3  A    between atoms: C8_9  and  C9_10 
REMARK    4  A    between atoms: C9_10  and  O2_11 
REMARK    5  A    between atoms: C11_14  and  N2_15 
REMARK    6  A    between atoms: N2_15  and  C12_16 
REMARK    7  A    between atoms: C12_16  and  C13_17 
REMARK    8  A    between atoms: C14_18  and  C15_20 
REMARK    9  A    between atoms: C15_20  and  C16_21 
ROOT
HETATM    1  C3  UNL     1      21.912   1.713  52.241  1.00  0.00     0.078 A 
HETATM    2  C4  UNL     1      23.016   1.090  52.787  1.00  0.00     0.053 A 
HETATM    3  C5  UNL     1      22.774   0.089  53.706  1.00  0.00     0.019 A 
HETATM    4  C6  UNL     1      21.519  -0.293  54.080  1.00  0.00     0.064 A 
HETATM    5  C7  UNL     1      20.457   0.361  53.505  1.00  0.00     0.044 A 
HETATM    6  C8  UNL     1      20.617   1.373  52.579  1.00  0.00     0.001 A 
HETATM    7  N1  UNL     1      21.511  -1.247  54.951  1.00  0.00    -0.283 NA
HETATM    8  C10 UNL     1      22.874  -1.607  55.252  1.00  0.00     0.207 A 
HETATM    9  C11 UNL     1      23.621  -0.668  54.383  1.00  0.00     0.038 A 
ENDROOT
BRANCH   9  10
HETATM   10  N2  UNL     1      25.040  -0.700  54.390  1.00  0.00    -0.388 N 
HETATM   11  H11 UNL     1      25.420  -0.746  55.359  1.00  0.00     0.159 HD
BRANCH  10  12
HETATM   12  C12 UNL     1      25.900  -0.674  53.243  1.00  0.00     0.148 C 
BRANCH  12  13
HETATM   13  C13 UNL     1      26.639   0.615  53.111  1.00  0.00     0.012 C 
HETATM   14  C14 UNL     1      27.797   0.936  53.720  1.00  0.00     0.012 C 
HETATM   15 CL1  UNL     1      28.658   2.464  53.554  1.00  0.00    -0.089 Cl
BRANCH  14  16
HETATM   16  C15 UNL     1      28.624   0.133  54.656  1.00  0.00     0.082 C 
BRANCH  16  17
HETATM   17  C16 UNL     1      29.523  -0.802  53.872  1.00  0.00     0.227 C 
HETATM   18  F1  UNL     1      30.601  -0.054  53.433  1.00  0.00    -0.255 F 
ENDBRANCH  16  17
ENDBRANCH  14  16
ENDBRANCH  12  13
ENDBRANCH  10  12
ENDBRANCH   9  10
BRANCH   1  19
HETATM   19  O1  UNL     1      22.068   2.736  51.304  1.00  0.00    -0.343 OA
BRANCH  19  20
HETATM   20  C2  UNL     1      23.235   3.461  51.334  1.00  0.00     0.158 C 
HETATM   21  C1  UNL     1      22.571   4.540  51.736  1.00  0.00     0.038 C 
ENDBRANCH  19  20
ENDBRANCH   1  19
BRANCH   6  22
HETATM   22  C9  UNL     1      19.411   2.038  51.995  1.00  0.00     0.205 C 
BRANCH  22  23
HETATM   23  O2  UNL     1      19.369   3.382  52.382  1.00  0.00    -0.396 OA
HETATM   24  H8  UNL     1      19.082   3.969  51.629  1.00  0.00     0.209 HD
ENDBRANCH  22  23
ENDBRANCH   6  22
TORSDOF 9
ENDMDL
MODEL 3
REMARK VINA RESULT:      -6.5      3.352      4.983
REMARK  9 active torsions:
REMARK  status: ('A' for Active; 'I' for Inactive)
REMARK    1  A    between atoms: C2_2  and  O1_3 
REMARK    2  A    between atoms: O1_3  and  C3_4 
REMARK    3  A    between atoms: C8_9  and  C9_10 
REMARK    4  A    between atoms: C9_10  and  O2_11 
REMARK    5  A    between atoms: C11_14  and  N2_15 
REMARK    6  A    between atoms: N2_15  and  C12_16 
REMARK    7  A    between atoms: C12_16  and  C13_17 
REMARK    8  A    between atoms: C14_18  and  C15_20 
REMARK    9  A    between atoms: C15_20  and  C16_21 
ROOT
HETATM    1  C3  UNL     1      25.827   1.685  53.817  1.00  0.00     0.078 A 
HETATM    2  C4  UNL     1      25.422   2.952  53.448  1.00  0.00     0.053 A 
HETATM    3  C5  UNL     1      24.164   3.065  52.889  1.00  0.00     0.019 A 
HETATM    4  C6  UNL     1      23.335   1.998  52.698  1.00  0.00     0.064 A 
HETATM    5  C7  UNL     1      23.790   0.761  53.084  1.00  0.00     0.044 A 
HETATM    6  C8  UNL     1      25.035   0.566  53.648  1.00  0.00     0.001 A 
HETATM    7  N1  UNL     1      22.203   2.318  52.162  1.00  0.00    -0.283 NA
HETATM    8  C10 UNL     1      22.187   3.742  51.936  1.00  0.00     0.207 A 
HETATM    9  C11 UNL     1      23.522   4.132  52.447  1.00  0.00     0.038 A 
ENDROOT
BRANCH   9  10
HETATM   10  N2  UNL     1      23.909   5.497  52.396  1.00  0.00    -0.388 N 
HETATM   11  H11 UNL     1      24.415   5.786  53.259  1.00  0.00     0.159 HD
BRANCH  10  12
HETATM   12  C12 UNL     1      23.664   6.415  51.322  1.00  0.00     0.148 C 
BRANCH  12  13
HETATM   13  C13 UNL     1      24.910   6.789  50.594  1.00  0.00     0.012 C 
HETATM   14  C14 UNL     1      25.593   6.010  49.731  1.00  0.00     0.012 C 
HETATM   15 CL1  UNL     1      27.065   6.466  48.877  1.00  0.00    -0.089 Cl
BRANCH  14  16
HETATM   16  C15 UNL     1      25.310   4.622  49.287  1.00  0.00     0.082 C 
BRANCH  16  17
HETATM   17  C16 UNL     1      26.287   3.666  49.941  1.00  0.00     0.227 C 
HETATM   18  F1  UNL     1      26.995   3.051  48.923  1.00  0.00    -0.255 F 
ENDBRANCH  16  17
ENDBRANCH  14  16
ENDBRANCH  12  13
ENDBRANCH  10  12
ENDBRANCH   9  10
BRANCH   1  19
HETATM   19  O1  UNL     1      27.085   1.483  54.388  1.00  0.00    -0.343 OA
BRANCH  19  20
HETATM   20  C2  UNL     1      28.190   1.749  53.617  1.00  0.00     0.158 C 
HETATM   21  C1  UNL     1      28.894   0.844  54.288  1.00  0.00     0.038 C 
ENDBRANCH  19  20
ENDBRANCH   1  19
BRANCH   6  22
HETATM   22  C9  UNL     1      25.459  -0.812  54.044  1.00  0.00     0.205 C 
BRANCH  22  23
HETATM   23  O2  UNL     1      25.767  -0.848  55.408  1.00  0.00    -0.396 OA
HETATM   24  H8  UNL     1      25.901   0.069  55.775  1.00  0.00     0.209 HD
ENDBRANCH  22  23
ENDBRANCH   6  22
TORSDOF 9
ENDMDL
MODEL 4
REMARK VINA RESULT:      -6.4      2.981      4.852
REMARK  9 active torsions:
REMARK  status: ('A' for Active; 'I' for Inactive)
REMARK    1  A    between atoms: C2_2  and  O1_3 
REMARK    2  A    between atoms: O1_3  and  C3_4 
REMARK    3  A    between atoms: C8_9  and  C9_10 
REMARK    4  A    between atoms: C9_10  and  O2_11 
REMARK    5  A    between atoms: C11_14  and  N2_15 
REMARK    6  A    between atoms: N2_15  and  C12_16 
REMARK    7  A    between atoms: C12_16  and  C13_17 
REMARK    8  A    between atoms: C14_18  and  C15_20 
REMARK    9  A    between atoms: C15_20  and  C16_21 
ROOT
HETATM    1  C3  UNL     1      22.828  -0.028  53.068  1.00  0.00     0.078 A 
HETATM    2  C4  UNL     1      23.839   0.821  52.665  1.00  0.00     0.053 A 
HETATM    3  C5  UNL     1      25.041   0.720  53.338  1.00  0.00     0.019 A 
HETATM    4  C6  UNL     1      25.254  -0.166  54.354  1.00  0.00     0.064 A 
HETATM    5  C7  UNL     1      24.213  -0.987  54.712  1.00  0.00     0.044 A 
HETATM    6  C8  UNL     1      22.981  -0.945  54.088  1.00  0.00     0.001 A 
HETATM    7  N1  UNL     1      26.446  -0.101  54.849  1.00  0.00    -0.283 NA
HETATM    8  C10 UNL     1      27.183   0.918  54.143  1.00  0.00     0.207 A 
HETATM    9  C11 UNL     1      26.167   1.393  53.175  1.00  0.00     0.038 A 
ENDROOT
BRANCH   9  10
HETATM   10  N2  UNL     1      26.507   2.432  52.270  1.00  0.00    -0.388 N 
HETATM   11  H11 UNL     1      26.617   3.346  52.756  1.00  0.00     0.159 HD
BRANCH  10  12
HETATM   12  C12 UNL     1      26.691   2.304  50.854  1.00  0.00     0.148 C 
BRANCH  12  13
HETATM   13  C13 UNL     1      26.406   3.572  50.122  1.00  0.00     0.012 C 
HETATM   14  C14 UNL     1      25.199   3.989  49.692  1.00  0.00     0.012 C 
HETATM   15 CL1  UNL     1      24.877   5.491  48.829  1.00  0.00    -0.089 Cl
BRANCH  14  16
HETATM   16  C15 UNL     1      23.874   3.331  49.816  1.00  0.00     0.082 C 
BRANCH  16  17
HETATM   17  C16 UNL     1      23.018   4.085  50.813  1.00  0.00     0.227 C 
HETATM   18  F1  UNL     1      23.712   4.104  52.010  1.00  0.00    -0.255 F 
ENDBRANCH  16  17
ENDBRANCH  14  16
ENDBRANCH  12  13
ENDBRANCH  10  12
ENDBRANCH   9  10
BRANCH   1  19
HETATM   19  O1  UNL     1      21.581   0.010  52.440  1.00  0.00    -0.343 OA
BRANCH  19  20
HETATM   20  C2  UNL     1      21.488   0.664  51.236  1.00  0.00     0.158 C 
HETATM   21  C1  UNL     1      20.177   0.450  51.205  1.00  0.00     0.038 C 
ENDBRANCH  19  20
ENDBRANCH   1  19
BRANCH   6  22
HETATM   22  C9  UNL     1      21.896  -1.872  54.535  1.00  0.00     0.205 C 
BRANCH  22  23
HETATM   23  O2  UNL     1      20.778  -1.140  54.951  1.00  0.00    -0.396 OA
HETATM   24  H8  UNL     1      19.934  -1.528  54.590  1.00  0.00     0.209 HD
ENDBRANCH  22  23
ENDBRANCH   6  22
TORSDOF 9
ENDMDL
MODEL 5
REMARK VINA RESULT:      -6.3      3.366      5.467
REMARK  9 active torsions:
REMARK  status: ('A' for Active; 'I' for Inactive)
REMARK    1  A    between atoms: C2_2  and  O1_3 
REMARK    2  A    between atoms: O1_3  and  C3_4 
REMARK    3  A    between atoms: C8_9  and  C9_10 
REMARK    4  A    between atoms: C9_10  and  O2_11 
REMARK    5  A    between atoms: C11_14  and  N2_15 
REMARK    6  A    between atoms: N2_15  and  C12_16 
REMARK    7  A    between atoms: C12_16  and  C13_17 
REMARK    8  A    between atoms: C14_18  and  C15_20 
REMARK    9  A    between atoms: C15_20  and  C16_21 
ROOT
HETATM    1  C3  UNL     1      23.430   0.085  53.357  1.00  0.00     0.078 A 
HETATM    2  C4  UNL     1      23.473   1.266  52.644  1.00  0.00     0.053 A 
HETATM    3  C5  UNL     1      22.289   1.967  52.530  1.00  0.00     0.019 A 
HETATM    4  C6  UNL     1      21.116   1.543  53.082  1.00  0.00     0.064 A 
HETATM    5  C7  UNL     1      21.131   0.361  53.780  1.00  0.00     0.044 A 
HETATM    6  C8  UNL     1      22.274  -0.398  53.937  1.00  0.00     0.001 A 
HETATM    7  N1  UNL     1      20.126   2.344  52.859  1.00  0.00    -0.283 NA
HETATM    8  C10 UNL     1      20.601   3.458  52.076  1.00  0.00     0.207 A 
HETATM    9  C11 UNL     1      22.032   3.109  51.915  1.00  0.00     0.038 A 
ENDROOT
BRANCH   9  10
HETATM   10  N2  UNL     1      22.876   3.979  51.177  1.00  0.00    -0.388 N 
HETATM   11  H11 UNL     1      23.241   4.755  51.767  1.00  0.00     0.159 HD
BRANCH  10  12
HETATM   12  C12 UNL     1      23.222   3.859  49.790  1.00  0.00     0.148 C 
BRANCH  12  13
HETATM   13  C13 UNL     1      24.689   3.694  49.578  1.00  0.00     0.012 C 
HETATM   14  C14 UNL     1      25.548   4.651  49.177  1.00  0.00     0.012 C 
HETATM   15 CL1  UNL     1      27.280   4.441  48.931  1.00  0.00    -0.089 Cl
BRANCH  14  16
HETATM   16  C15 UNL     1      25.287   6.075  48.844  1.00  0.00     0.082 C 
BRANCH  16  17
HETATM   17  C16 UNL     1      25.772   6.962  49.973  1.00  0.00     0.227 C 
HETATM   18  F1  UNL     1      24.989   6.676  51.078  1.00  0.00    -0.255 F 
ENDBRANCH  16  17
ENDBRANCH  14  16
ENDBRANCH  12  13
ENDBRANCH  10  12
ENDBRANCH   9  10
BRANCH   1  19
HETATM   19  O1  UNL     1      24.583  -0.685  53.519  1.00  0.00    -0.343 OA
BRANCH  19  20
HETATM   20  C2  UNL     1      25.792  -0.099  53.235  1.00  0.00     0.158 C 
HETATM   21  C1  UNL     1      26.302  -1.279  52.900  1.00  0.00     0.038 C 
ENDBRANCH  19  20
ENDBRANCH   1  19
BRANCH   6  22
HETATM   22  C9  UNL     1      22.211  -1.675  54.713  1.00  0.00     0.205 C 
BRANCH  22  23
HETATM   23  O2  UNL     1      23.060  -1.606  55.823  1.00  0.00    -0.396 OA
HETATM   24  H8  UNL     1      23.795  -0.949  55.678  1.00  0.00     0.209 HD
ENDBRANCH  22  23
ENDBRANCH   6  22
TORSDOF 9
ENDMDL
MODEL 6
REMARK VINA RESULT:      -6.3      2.937      3.986
REMARK  9 active torsions:
REMARK  status: ('A' for Active; 'I' for Inactive)
REMARK    1  A    between atoms: C2_2  and  O1_3 
REMARK    2  A    between atoms: O1_3  and  C3_4 
REMARK    3  A    between atoms: C8_9  and  C9_10 
REMARK    4  A    between atoms: C9_10  and  O2_11 
REMARK    5  A    between atoms: C11_14  and  N2_15 
REMARK    6  A    between atoms: N2_15  and  C12_16 
REMARK    7  A    between atoms: C12_16  and  C13_17 
REMARK    8  A    between atoms: C14_18  and  C15_20 
REMARK    9  A    between atoms: C15_20  and  C16_21 
ROOT
HETATM    1  C3  UNL     1      26.679  -0.026  53.382  1.00  0.00     0.078 A 
HETATM    2  C4  UNL     1      25.435  -0.001  52.786  1.00  0.00     0.053 A 
HETATM    3  C5  UNL     1      24.786   1.217  52.752  1.00  0.00     0.019 A 
HETATM    4  C6  UNL     1      25.320   2.361  53.272  1.00  0.00     0.064 A 
HETATM    5  C7  UNL     1      26.561   2.277  53.853  1.00  0.00     0.044 A 
HETATM    6  C8  UNL     1      27.272   1.095  53.926  1.00  0.00     0.001 A 
HETATM    7  N1  UNL     1      24.552   3.391  53.137  1.00  0.00    -0.283 NA
HETATM    8  C10 UNL     1      23.346   2.983  52.460  1.00  0.00     0.207 A 
HETATM    9  C11 UNL     1      23.603   1.538  52.256  1.00  0.00     0.038 A 
ENDROOT
BRANCH   9  10
HETATM   10  N2  UNL     1      22.621   0.747  51.606  1.00  0.00    -0.388 N 
HETATM   11  H11 UNL     1      22.978  -0.206  51.384  1.00  0.00     0.159 HD
BRANCH  10  12
HETATM   12  C12 UNL     1      21.286   1.150  51.269  1.00  0.00     0.148 C 
BRANCH  12  13
HETATM   13  C13 UNL     1      20.260   0.170  51.728  1.00  0.00     0.012 C 
HETATM   14  C14 UNL     1      20.024  -0.199  53.002  1.00  0.00     0.012 C 
HETATM   15 CL1  UNL     1      18.807  -1.358  53.529  1.00  0.00    -0.089 Cl
BRANCH  14  16
HETATM   16  C15 UNL     1      20.692   0.245  54.252  1.00  0.00     0.082 C 
BRANCH  16  17
HETATM   17  C16 UNL     1      21.548  -0.878  54.801  1.00  0.00     0.227 C 
HETATM   18  F1  UNL     1      22.169  -1.480  53.721  1.00  0.00    -0.255 F 
ENDBRANCH  16  17
ENDBRANCH  14  16
ENDBRANCH  12  13
ENDBRANCH  10  12
ENDBRANCH   9  10
BRANCH   1  19
HETATM   19  O1  UNL     1      27.403  -1.218  53.459  1.00  0.00    -0.343 OA
BRANCH  19  20
HETATM   20  C2  UNL     1      27.110  -2.206  52.550  1.00  0.00     0.158 C 
HETATM   21  C1  UNL     1      28.254  -2.822  52.831  1.00  0.00     0.038 C 
ENDBRANCH  19  20
ENDBRANCH   1  19
BRANCH   6  22
HETATM   22  C9  UNL     1      28.620   1.084  54.575  1.00  0.00     0.205 C 
BRANCH  22  23
HETATM   23  O2  UNL     1      29.226   2.339  54.445  1.00  0.00    -0.396 OA
HETATM   24  H8  UNL     1      28.549   3.059  54.321  1.00  0.00     0.209 HD
ENDBRANCH  22  23
ENDBRANCH   6  22
TORSDOF 9
ENDMDL
MODEL 7
REMARK VINA RESULT:      -6.3      4.351      7.062
REMARK  9 active torsions:
REMARK  status: ('A' for Active; 'I' for Inactive)
REMARK    1  A    between atoms: C2_2  and  O1_3 
REMARK    2  A    between atoms: O1_3  and  C3_4 
REMARK    3  A    between atoms: C8_9  and  C9_10 
REMARK    4  A    between atoms: C9_10  and  O2_11 
REMARK    5  A    between atoms: C11_14  and  N2_15 
REMARK    6  A    between atoms: N2_15  and  C12_16 
REMARK    7  A    between atoms: C12_16  and  C13_17 
REMARK    8  A    between atoms: C14_18  and  C15_20 
REMARK    9  A    between atoms: C15_20  and  C16_21 
ROOT
HETATM    1  C3  UNL     1      20.097  -0.004  51.898  1.00  0.00     0.078 A 
HETATM    2  C4  UNL     1      21.464   0.134  52.031  1.00  0.00     0.053 A 
HETATM    3  C5  UNL     1      22.034  -0.397  53.171  1.00  0.00     0.019 A 
HETATM    4  C6  UNL     1      21.313  -1.035  54.138  1.00  0.00     0.064 A 
HETATM    5  C7  UNL     1      19.956  -1.143  53.952  1.00  0.00     0.044 A 
HETATM    6  C8  UNL     1      19.313  -0.637  52.840  1.00  0.00     0.001 A 
HETATM    7  N1  UNL     1      22.036  -1.458  55.121  1.00  0.00    -0.283 NA
HETATM    8  C10 UNL     1      23.411  -1.107  54.867  1.00  0.00     0.207 A 
HETATM    9  C11 UNL     1      23.297  -0.413  53.563  1.00  0.00     0.038 A 
ENDROOT
BRANCH   9  10
HETATM   10  N2  UNL     1      24.468   0.106  52.952  1.00  0.00    -0.388 N 
HETATM   11  H11 UNL     1      24.320   0.302  51.940  1.00  0.00     0.159 HD
BRANCH  10  12
HETATM   12  C12 UNL     1      25.727   0.354  53.592  1.00  0.00     0.148 C 
BRANCH  12  13
HETATM   13  C13 UNL     1      26.765  -0.652  53.222  1.00  0.00     0.012 C 
HETATM   14  C14 UNL     1      28.027  -0.704  53.691  1.00  0.00     0.012 C 
HETATM   15 CL1  UNL     1      29.242  -1.898  53.244  1.00  0.00    -0.089 Cl
BRANCH  14  16
HETATM   16  C15 UNL     1      28.709   0.188  54.662  1.00  0.00     0.082 C 
BRANCH  16  17
HETATM   17  C16 UNL     1      29.457   1.277  53.921  1.00  0.00     0.227 C 
HETATM   18  F1  UNL     1      29.604   2.337  54.798  1.00  0.00    -0.255 F 
ENDBRANCH  16  17
ENDBRANCH  14  16
ENDBRANCH  12  13
ENDBRANCH  10  12
ENDBRANCH   9  10
BRANCH   1  19
HETATM   19  O1  UNL     1      19.442   0.506  50.775  1.00  0.00    -0.343 OA
BRANCH  19  20
HETATM   20  C2  UNL     1      19.924   1.667  50.222  1.00  0.00     0.158 C 
HETATM   21  C1  UNL     1      18.778   2.286  50.486  1.00  0.00     0.038 C 
ENDBRANCH  19  20
ENDBRANCH   1  19
BRANCH   6  22
HETATM   22  C9  UNL     1      17.831  -0.795  52.710  1.00  0.00     0.205 C 
BRANCH  22  23
HETATM   23  O2  UNL     1      17.283  -1.217  53.926  1.00  0.00    -0.396 OA
HETATM   24  H8  UNL     1      17.240  -0.470  54.584  1.00  0.00     0.209 HD
ENDBRANCH  22  23
ENDBRANCH   6  22
TORSDOF 9
ENDMDL
MODEL 8
REMARK VINA RESULT:      -6.2      2.037      2.656
REMARK  9 active torsions:
REMARK  status: ('A' for Active; 'I' for Inactive)
REMARK    1  A    between atoms: C2_2  and  O1_3 
REMARK    2  A    between atoms: O1_3  and  C3_4 
REMARK    3  A    between atoms: C8_9  and  C9_10 
REMARK    4  A    between atoms: C9_10  and  O2_11 
REMARK    5  A    between atoms: C11_14  and  N2_15 
REMARK    6  A    between atoms: N2_15  and  C12_16 
REMARK    7  A    between atoms: C12_16  and  C13_17 
REMARK    8  A    between atoms: C14_18  and  C15_20 
REMARK    9  A    between atoms: C15_20  and  C16_21 
ROOT
HETATM    1  C3  UNL     1      24.954   0.547  52.978  1.00  0.00     0.078 A 
HETATM    2  C4  UNL     1      23.625   0.479  52.611  1.00  0.00     0.053 A 
HETATM    3  C5  UNL     1      22.797  -0.279  53.413  1.00  0.00     0.019 A 
HETATM    4  C6  UNL     1      23.235  -0.941  54.523  1.00  0.00     0.064 A 
HETATM    5  C7  UNL     1      24.567  -0.838  54.841  1.00  0.00     0.044 A 
HETATM    6  C8  UNL     1      25.459  -0.100  54.088  1.00  0.00     0.001 A 
HETATM    7  N1  UNL     1      22.301  -1.591  55.135  1.00  0.00    -0.283 NA
HETATM    8  C10 UNL     1      21.062  -1.398  54.421  1.00  0.00     0.207 A 
HETATM    9  C11 UNL     1      21.501  -0.524  53.309  1.00  0.00     0.038 A 
ENDROOT
BRANCH   9  10
HETATM   10  N2  UNL     1      20.548  -0.097  52.348  1.00  0.00    -0.388 N 
HETATM   11  H11 UNL     1      20.523  -0.730  51.522  1.00  0.00     0.159 HD
BRANCH  10  12
HETATM   12  C12 UNL     1      19.696   1.053  52.444  1.00  0.00     0.148 C 
BRANCH  12  13
HETATM   13  C13 UNL     1      20.462   2.319  52.630  1.00  0.00     0.012 C 
HETATM   14  C14 UNL     1      20.980   3.088  51.652  1.00  0.00     0.012 C 
HETATM   15 CL1  UNL     1      21.883   4.582  51.887  1.00  0.00    -0.089 Cl
BRANCH  14  16
HETATM   16  C15 UNL     1      20.937   2.898  50.180  1.00  0.00     0.082 C 
BRANCH  16  17
HETATM   17  C16 UNL     1      22.217   2.237  49.711  1.00  0.00     0.227 C 
HETATM   18  F1  UNL     1      21.990   0.872  49.704  1.00  0.00    -0.255 F 
ENDBRANCH  16  17
ENDBRANCH  14  16
ENDBRANCH  12  13
ENDBRANCH  10  12
ENDBRANCH   9  10
BRANCH   1  19
HETATM   19  O1  UNL     1      25.860   1.292  52.220  1.00  0.00    -0.343 OA
BRANCH  19  20
HETATM   20  C2  UNL     1      25.420   2.472  51.670  1.00  0.00     0.158 C 
HETATM   21  C1  UNL     1      26.601   2.659  51.090  1.00  0.00     0.038 C 
ENDBRANCH  19  20
ENDBRANCH   1  19
BRANCH   6  22
HETATM   22  C9  UNL     1      26.896  -0.035  54.499  1.00  0.00     0.205 C 
BRANCH  22  23
HETATM   23  O2  UNL     1      27.273   1.294  54.721  1.00  0.00    -0.396 OA
HETATM   24  H8  UNL     1      28.249   1.425  54.570  1.00  0.00     0.209 HD
ENDBRANCH  22  23
ENDBRANCH   6  22
TORSDOF 9
ENDMDL
MODEL 9
REMARK VINA RESULT:      -6.0      3.204      4.679
REMARK  9 active torsions:
REMARK  status: ('A' for Active; 'I' for Inactive)
REMARK    1  A    between atoms: C2_2  and  O1_3 
REMARK    2  A    between atoms: O1_3  and  C3_4 
REMARK    3  A    between atoms: C8_9  and  C9_10 
REMARK    4  A    between atoms: C9_10  and  O2_11 
REMARK    5  A    between atoms: C11_14  and  N2_15 
REMARK    6  A    between atoms: N2_15  and  C12_16 
REMARK    7  A    between atoms: C12_16  and  C13_17 
REMARK    8  A    between atoms: C14_18  and  C15_20 
REMARK    9  A    between atoms: C15_20  and  C16_21 
ROOT
HETATM    1  C3  UNL     1      24.784   0.596  52.929  1.00  0.00     0.078 A 
HETATM    2  C4  UNL     1      24.141   1.662  52.333  1.00  0.00     0.053 A 
HETATM    3  C5  UNL     1      24.909   2.479  51.526  1.00  0.00     0.019 A 
HETATM    4  C6  UNL     1      26.239   2.271  51.305  1.00  0.00     0.064 A 
HETATM    5  C7  UNL     1      26.827   1.194  51.924  1.00  0.00     0.044 A 
HETATM    6  C8  UNL     1      26.127   0.333  52.746  1.00  0.00     0.001 A 
HETATM    7  N1  UNL     1      26.772   3.147  50.520  1.00  0.00    -0.283 NA
HETATM    8  C10 UNL     1      25.754   4.087  50.121  1.00  0.00     0.207 A 
HETATM    9  C11 UNL     1      24.572   3.557  50.839  1.00  0.00     0.038 A 
ENDROOT
BRANCH   9  10
HETATM   10  N2  UNL     1      23.326   4.225  50.708  1.00  0.00    -0.388 N 
HETATM   11  H11 UNL     1      23.041   4.317  49.711  1.00  0.00     0.159 HD
BRANCH  10  12
HETATM   12  C12 UNL     1      22.514   4.734  51.775  1.00  0.00     0.148 C 
BRANCH  12  13
HETATM   13  C13 UNL     1      21.055   4.642  51.477  1.00  0.00     0.012 C 
HETATM   14  C14 UNL     1      20.229   3.642  51.841  1.00  0.00     0.012 C 
HETATM   15 CL1  UNL     1      18.507   3.547  51.482  1.00  0.00    -0.089 Cl
BRANCH  14  16
HETATM   16  C15 UNL     1      20.527   2.403  52.604  1.00  0.00     0.082 C 
BRANCH  16  17
HETATM   17  C16 UNL     1      20.177   1.189  51.767  1.00  0.00     0.227 C 
HETATM   18  F1  UNL     1      19.667   0.235  52.630  1.00  0.00    -0.255 F 
ENDBRANCH  16  17
ENDBRANCH  14  16
ENDBRANCH  12  13
ENDBRANCH  10  12
ENDBRANCH   9  10
BRANCH   1  19
HETATM   19  O1  UNL     1      24.081  -0.278  53.760  1.00  0.00    -0.343 OA
BRANCH  19  20
HETATM   20  C2  UNL     1      22.901  -0.801  53.291  1.00  0.00     0.158 C 
HETATM   21  C1  UNL     1      22.418  -0.860  54.527  1.00  0.00     0.038 C 
ENDBRANCH  19  20
ENDBRANCH   1  19
BRANCH   6  22
HETATM   22  C9  UNL     1      26.837  -0.818  53.384  1.00  0.00     0.205 C 
BRANCH  22  23
HETATM   23  O2  UNL     1      26.895  -0.638  54.771  1.00  0.00    -0.396 OA
HETATM   24  H8  UNL     1      27.075  -1.498  55.242  1.00  0.00     0.209 HD
ENDBRANCH  22  23
ENDBRANCH   6  22
TORSDOF 9
ENDMDL
