MODEL 1
REMARK VINA RESULT:      -8.4      0.000      0.000
REMARK  2 active torsions:
REMARK  status: ('A' for Active; 'I' for Inactive)
REMARK    1  A    between atoms: C9_11  and  N2_12 
REMARK    2  A    between atoms: N2_12  and  C10_13 
ROOT
HETATM    1 BR1  UNL     1      17.248   0.249  49.811  1.00  0.00    -0.051 Br
HETATM    2  C1  UNL     1      18.420  -0.014  51.308  1.00  0.00     0.011 A 
HETATM    3  C2  UNL     1      18.047  -0.761  52.407  1.00  0.00     0.022 A 
HETATM    4  C3  UNL     1      18.897  -0.941  53.471  1.00  0.00     0.039 A 
HETATM    5  C4  UNL     1      20.171  -0.361  53.456  1.00  0.00     0.086 A 
HETATM    6  C5  UNL     1      20.582   0.391  52.379  1.00  0.00    -0.005 A 
HETATM    7  C6  UNL     1      19.672   0.539  51.325  1.00  0.00     0.030 A 
HETATM    8  C7  UNL     1      21.816   1.132  52.024  1.00  0.00     0.161 C 
HETATM    9  N1  UNL     1      22.975   0.339  52.392  1.00  0.00    -0.380 N 
HETATM   10  C8  UNL     1      23.275  -0.353  53.598  1.00  0.00     0.106 A 
HETATM   11  C9  UNL     1      24.451  -0.746  54.059  1.00  0.00     0.060 A 
HETATM   12  C16 UNL     1      24.315  -1.441  55.365  1.00  0.00     0.211 A 
HETATM   13  N3  UNL     1      22.891  -1.400  55.606  1.00  0.00    -0.259 NA
HETATM   14  C17 UNL     1      22.344  -0.801  54.629  1.00  0.00     0.194 A 
HETATM   15  O1  UNL     1      20.947  -0.618  54.603  1.00  0.00    -0.290 OA
HETATM   16  H6  UNL     1      23.752   0.232  51.675  1.00  0.00     0.160 HD
ENDROOT
BRANCH  11  17
HETATM   17  N2  UNL     1      25.680  -0.511  53.354  1.00  0.00    -0.359 N 
HETATM   18  H7  UNL     1      26.119  -0.917  52.478  1.00  0.00     0.165 HD
BRANCH  17  19
HETATM   19  C10 UNL     1      26.507   0.492  53.949  1.00  0.00     0.024 C 
HETATM   20  C11 UNL     1      26.522   1.807  53.868  1.00  0.00    -0.001 C 
HETATM   21  C12 UNL     1      27.610   2.436  53.486  1.00  0.00     0.014 C 
HETATM   22  C13 UNL     1      28.864   1.664  53.558  1.00  0.00    -0.003 C 
HETATM   23  C14 UNL     1      28.866   0.503  54.221  1.00  0.00    -0.021 C 
HETATM   24  C15 UNL     1      27.594   0.049  54.858  1.00  0.00     0.085 C 
ENDBRANCH  17  19
ENDBRANCH  11  17
TORSDOF 2
ENDMDL
MODEL 2
REMARK VINA RESULT:      -8.2      2.656      3.464
REMARK  2 active torsions:
REMARK  status: ('A' for Active; 'I' for Inactive)
REMARK    1  A    between atoms: C9_11  and  N2_12 
REMARK    2  A    between atoms: N2_12  and  C10_13 
ROOT
HETATM    1 BR1  UNL     1      22.019   3.648  46.593  1.00  0.00    -0.051 Br
HETATM    2  C1  UNL     1      22.010   2.694  48.259  1.00  0.00     0.011 A 
HETATM    3  C2  UNL     1      21.182   1.612  48.478  1.00  0.00     0.022 A 
HETATM    4  C3  UNL     1      21.187   0.939  49.676  1.00  0.00     0.039 A 
HETATM    5  C4  UNL     1      22.044   1.348  50.705  1.00  0.00     0.086 A 
HETATM    6  C5  UNL     1      22.886   2.422  50.527  1.00  0.00    -0.005 A 
HETATM    7  C6  UNL     1      22.835   3.067  49.286  1.00  0.00     0.030 A 
HETATM    8  C7  UNL     1      23.895   3.117  51.362  1.00  0.00     0.161 C 
HETATM    9  N1  UNL     1      24.689   2.132  52.074  1.00  0.00    -0.380 N 
HETATM   10  C8  UNL     1      24.290   0.990  52.823  1.00  0.00     0.106 A 
HETATM   11  C9  UNL     1      24.961   0.331  53.753  1.00  0.00     0.060 A 
HETATM   12  C16 UNL     1      24.172  -0.809  54.284  1.00  0.00     0.211 A 
HETATM   13  N3  UNL     1      22.940  -0.726  53.533  1.00  0.00    -0.259 NA
HETATM   14  C17 UNL     1      23.027   0.263  52.742  1.00  0.00     0.194 A 
HETATM   15  O1  UNL     1      21.956   0.579  51.882  1.00  0.00    -0.290 OA
HETATM   16  H6  UNL     1      25.746   2.243  52.062  1.00  0.00     0.160 HD
ENDROOT
BRANCH  11  17
HETATM   17  N2  UNL     1      26.285   0.705  54.167  1.00  0.00    -0.359 N 
HETATM   18  H7  UNL     1      26.671   1.327  54.935  1.00  0.00     0.165 HD
BRANCH  17  19
HETATM   19  C10 UNL     1      27.326   0.115  53.385  1.00  0.00     0.024 C 
HETATM   20  C11 UNL     1      27.475  -1.074  52.839  1.00  0.00    -0.001 C 
HETATM   21  C12 UNL     1      28.525  -1.809  53.124  1.00  0.00     0.014 C 
HETATM   22  C13 UNL     1      29.670  -1.097  53.722  1.00  0.00    -0.003 C 
HETATM   23  C14 UNL     1      29.676   0.240  53.704  1.00  0.00    -0.021 C 
HETATM   24  C15 UNL     1      28.519   0.944  53.076  1.00  0.00     0.085 C 
ENDBRANCH  17  19
ENDBRANCH  11  17
TORSDOF 2
ENDMDL
MODEL 3
REMARK VINA RESULT:      -8.1      4.870      7.442
REMARK  2 active torsions:
REMARK  status: ('A' for Active; 'I' for Inactive)
REMARK    1  A    between atoms: C9_11  and  N2_12 
REMARK    2  A    between atoms: N2_12  and  C10_13 
ROOT
HETATM    1 BR1  UNL     1      25.386   8.688  47.359  1.00  0.00    -0.051 Br
HETATM    2  C1  UNL     1      25.880   7.004  48.135  1.00  0.00     0.011 A 
HETATM    3  C2  UNL     1      27.193   6.588  48.207  1.00  0.00     0.022 A 
HETATM    4  C3  UNL     1      27.532   5.380  48.767  1.00  0.00     0.039 A 
HETATM    5  C4  UNL     1      26.534   4.541  49.278  1.00  0.00     0.086 A 
HETATM    6  C5  UNL     1      25.211   4.918  49.226  1.00  0.00    -0.005 A 
HETATM    7  C6  UNL     1      24.929   6.160  48.645  1.00  0.00     0.030 A 
HETATM    8  C7  UNL     1      23.928   4.310  49.652  1.00  0.00     0.161 C 
HETATM    9  N1  UNL     1      24.094   3.706  50.961  1.00  0.00    -0.380 N 
HETATM   10  C8  UNL     1      25.111   2.843  51.457  1.00  0.00     0.106 A 
HETATM   11  C9  UNL     1      25.069   2.018  52.490  1.00  0.00     0.060 A 
HETATM   12  C16 UNL     1      26.358   1.300  52.662  1.00  0.00     0.211 A 
HETATM   13  N3  UNL     1      27.164   1.822  51.583  1.00  0.00    -0.259 NA
HETATM   14  C17 UNL     1      26.463   2.662  50.939  1.00  0.00     0.194 A 
HETATM   15  O1  UNL     1      27.007   3.331  49.823  1.00  0.00    -0.290 OA
HETATM   16  H6  UNL     1      23.359   3.912  51.701  1.00  0.00     0.160 HD
ENDROOT
BRANCH  11  17
HETATM   17  N2  UNL     1      23.903   1.864  53.314  1.00  0.00    -0.359 N 
HETATM   18  H7  UNL     1      23.452   2.452  54.073  1.00  0.00     0.165 HD
BRANCH  17  19
HETATM   19  C10 UNL     1      23.175   0.659  53.071  1.00  0.00     0.024 C 
HETATM   20  C11 UNL     1      22.189   0.354  52.252  1.00  0.00    -0.001 C 
HETATM   21  C12 UNL     1      21.067  -0.143  52.718  1.00  0.00     0.014 C 
HETATM   22  C13 UNL     1      21.125  -0.705  54.080  1.00  0.00    -0.003 C 
HETATM   23  C14 UNL     1      22.321  -0.905  54.643  1.00  0.00    -0.021 C 
HETATM   24  C15 UNL     1      23.540  -0.546  53.859  1.00  0.00     0.085 C 
ENDBRANCH  17  19
ENDBRANCH  11  17
TORSDOF 2
ENDMDL
MODEL 4
REMARK VINA RESULT:      -8.1      5.615      7.365
REMARK  2 active torsions:
REMARK  status: ('A' for Active; 'I' for Inactive)
REMARK    1  A    between atoms: C9_11  and  N2_12 
REMARK    2  A    between atoms: N2_12  and  C10_13 
ROOT
HETATM    1 BR1  UNL     1      24.939  -0.784  54.778  1.00  0.00    -0.051 Br
HETATM    2  C1  UNL     1      24.525   0.355  53.289  1.00  0.00     0.011 A 
HETATM    3  C2  UNL     1      23.232   0.534  52.841  1.00  0.00     0.022 A 
HETATM    4  C3  UNL     1      22.952   1.352  51.774  1.00  0.00     0.039 A 
HETATM    5  C4  UNL     1      23.988   2.025  51.116  1.00  0.00     0.086 A 
HETATM    6  C5  UNL     1      25.292   1.874  51.531  1.00  0.00    -0.005 A 
HETATM    7  C6  UNL     1      25.515   1.028  52.623  1.00  0.00     0.030 A 
HETATM    8  C7  UNL     1      26.603   2.410  51.093  1.00  0.00     0.161 C 
HETATM    9  N1  UNL     1      26.468   3.822  50.788  1.00  0.00    -0.380 N 
HETATM   10  C8  UNL     1      25.493   4.511  50.014  1.00  0.00     0.106 A 
HETATM   11  C9  UNL     1      25.575   5.701  49.442  1.00  0.00     0.060 A 
HETATM   12  C16 UNL     1      24.322   6.044  48.724  1.00  0.00     0.211 A 
HETATM   13  N3  UNL     1      23.490   4.886  48.955  1.00  0.00    -0.259 NA
HETATM   14  C17 UNL     1      24.150   4.062  49.661  1.00  0.00     0.194 A 
HETATM   15  O1  UNL     1      23.573   2.833  50.039  1.00  0.00    -0.290 OA
HETATM   16  H6  UNL     1      27.193   4.489  51.187  1.00  0.00     0.160 HD
ENDROOT
BRANCH  11  17
HETATM   17  N2  UNL     1      26.749   6.525  49.530  1.00  0.00    -0.359 N 
HETATM   18  H7  UNL     1      27.076   7.275  50.203  1.00  0.00     0.165 HD
BRANCH  17  19
HETATM   19  C10 UNL     1      27.699   6.294  48.487  1.00  0.00     0.024 C 
HETATM   20  C11 UNL     1      28.569   5.331  48.262  1.00  0.00    -0.001 C 
HETATM   21  C12 UNL     1      29.843   5.609  48.112  1.00  0.00     0.014 C 
HETATM   22  C13 UNL     1      30.167   7.014  47.803  1.00  0.00    -0.003 C 
HETATM   23  C14 UNL     1      29.176   7.840  47.452  1.00  0.00    -0.021 C 
HETATM   24  C15 UNL     1      27.788   7.293  47.392  1.00  0.00     0.085 C 
ENDBRANCH  17  19
ENDBRANCH  11  17
TORSDOF 2
ENDMDL
MODEL 5
REMARK VINA RESULT:      -8.1      4.751      6.920
REMARK  2 active torsions:
REMARK  status: ('A' for Active; 'I' for Inactive)
REMARK    1  A    between atoms: C9_11  and  N2_12 
REMARK    2  A    between atoms: N2_12  and  C10_13 
ROOT
HETATM    1 BR1  UNL     1      29.289  -0.904  53.464  1.00  0.00    -0.051 Br
HETATM    2  C1  UNL     1      27.513  -0.300  53.055  1.00  0.00     0.011 A 
HETATM    3  C2  UNL     1      26.394  -1.029  53.404  1.00  0.00     0.022 A 
HETATM    4  C3  UNL     1      25.129  -0.584  53.104  1.00  0.00     0.039 A 
HETATM    5  C4  UNL     1      24.955   0.631  52.431  1.00  0.00     0.086 A 
HETATM    6  C5  UNL     1      26.045   1.388  52.065  1.00  0.00    -0.005 A 
HETATM    7  C6  UNL     1      27.308   0.883  52.398  1.00  0.00     0.030 A 
HETATM    8  C7  UNL     1      26.240   2.681  51.366  1.00  0.00     0.161 C 
HETATM    9  N1  UNL     1      25.262   3.639  51.847  1.00  0.00    -0.380 N 
HETATM   10  C8  UNL     1      23.858   3.511  52.034  1.00  0.00     0.106 A 
HETATM   11  C9  UNL     1      22.939   4.461  52.109  1.00  0.00     0.060 A 
HETATM   12  C16 UNL     1      21.584   3.888  52.311  1.00  0.00     0.211 A 
HETATM   13  N3  UNL     1      21.836   2.466  52.343  1.00  0.00    -0.259 NA
HETATM   14  C17 UNL     1      23.084   2.284  52.190  1.00  0.00     0.194 A 
HETATM   15  O1  UNL     1      23.613   0.977  52.182  1.00  0.00    -0.290 OA
HETATM   16  H6  UNL     1      25.606   4.609  52.114  1.00  0.00     0.160 HD
ENDROOT
BRANCH  11  17
HETATM   17  N2  UNL     1      23.257   5.858  52.004  1.00  0.00    -0.359 N 
HETATM   18  H7  UNL     1      23.277   6.665  52.691  1.00  0.00     0.165 HD
BRANCH  17  19
HETATM   19  C10 UNL     1      23.632   6.269  50.687  1.00  0.00     0.024 C 
HETATM   20  C11 UNL     1      23.241   5.900  49.485  1.00  0.00    -0.001 C 
HETATM   21  C12 UNL     1      24.115   5.463  48.608  1.00  0.00     0.014 C 
HETATM   22  C13 UNL     1      25.527   5.790  48.881  1.00  0.00    -0.003 C 
HETATM   23  C14 UNL     1      25.805   6.694  49.826  1.00  0.00    -0.021 C 
HETATM   24  C15 UNL     1      24.667   7.327  50.557  1.00  0.00     0.085 C 
ENDBRANCH  17  19
ENDBRANCH  11  17
TORSDOF 2
ENDMDL
MODEL 6
REMARK VINA RESULT:      -8.0      3.028      6.992
REMARK  2 active torsions:
REMARK  status: ('A' for Active; 'I' for Inactive)
REMARK    1  A    between atoms: C9_11  and  N2_12 
REMARK    2  A    between atoms: N2_12  and  C10_13 
ROOT
HETATM    1 BR1  UNL     1      26.236   4.954  49.279  1.00  0.00    -0.051 Br
HETATM    2  C1  UNL     1      25.777   3.434  50.358  1.00  0.00     0.011 A 
HETATM    3  C2  UNL     1      26.705   2.794  51.153  1.00  0.00     0.022 A 
HETATM    4  C3  UNL     1      26.361   1.707  51.920  1.00  0.00     0.039 A 
HETATM    5  C4  UNL     1      25.046   1.226  51.904  1.00  0.00     0.086 A 
HETATM    6  C5  UNL     1      24.090   1.837  51.125  1.00  0.00    -0.005 A 
HETATM    7  C6  UNL     1      24.500   2.939  50.366  1.00  0.00     0.030 A 
HETATM    8  C7  UNL     1      22.647   1.614  50.865  1.00  0.00     0.161 C 
HETATM    9  N1  UNL     1      21.975   1.311  52.115  1.00  0.00    -0.380 N 
HETATM   10  C8  UNL     1      22.322   0.404  53.154  1.00  0.00     0.106 A 
HETATM   11  C9  UNL     1      21.547  -0.132  54.082  1.00  0.00     0.060 A 
HETATM   12  C16 UNL     1      22.318  -1.032  54.978  1.00  0.00     0.211 A 
HETATM   13  N3  UNL     1      23.658  -0.948  54.443  1.00  0.00    -0.259 NA
HETATM   14  C17 UNL     1      23.636  -0.159  53.449  1.00  0.00     0.194 A 
HETATM   15  O1  UNL     1      24.820   0.109  52.731  1.00  0.00    -0.290 OA
HETATM   16  H6  UNL     1      21.070   1.826  52.331  1.00  0.00     0.160 HD
ENDROOT
BRANCH  11  17
HETATM   17  N2  UNL     1      20.141   0.147  54.176  1.00  0.00    -0.359 N 
HETATM   18  H7  UNL     1      19.550   0.757  54.810  1.00  0.00     0.165 HD
BRANCH  17  19
HETATM   19  C10 UNL     1      19.347  -0.540  53.206  1.00  0.00     0.024 C 
HETATM   20  C11 UNL     1      18.833  -0.179  52.048  1.00  0.00    -0.001 C 
HETATM   21  C12 UNL     1      17.541  -0.281  51.834  1.00  0.00     0.014 C 
HETATM   22  C13 UNL     1      16.801  -1.167  52.752  1.00  0.00    -0.003 C 
HETATM   23  C14 UNL     1      17.493  -1.982  53.554  1.00  0.00    -0.021 C 
HETATM   24  C15 UNL     1      18.984  -1.954  53.478  1.00  0.00     0.085 C 
ENDBRANCH  17  19
ENDBRANCH  11  17
TORSDOF 2
ENDMDL
MODEL 7
REMARK VINA RESULT:      -7.9      3.386      7.768
REMARK  2 active torsions:
REMARK  status: ('A' for Active; 'I' for Inactive)
REMARK    1  A    between atoms: C9_11  and  N2_12 
REMARK    2  A    between atoms: N2_12  and  C10_13 
ROOT
HETATM    1 BR1  UNL     1      30.134  -1.266  53.832  1.00  0.00    -0.051 Br
HETATM    2  C1  UNL     1      28.658  -0.042  53.759  1.00  0.00     0.011 A 
HETATM    3  C2  UNL     1      28.842   1.323  53.694  1.00  0.00     0.022 A 
HETATM    4  C3  UNL     1      27.775   2.187  53.642  1.00  0.00     0.039 A 
HETATM    5  C4  UNL     1      26.467   1.687  53.656  1.00  0.00     0.086 A 
HETATM    6  C5  UNL     1      26.240   0.331  53.720  1.00  0.00    -0.005 A 
HETATM    7  C6  UNL     1      27.367  -0.498  53.771  1.00  0.00     0.030 A 
HETATM    8  C7  UNL     1      25.035  -0.532  53.753  1.00  0.00     0.161 C 
HETATM    9  N1  UNL     1      24.061  -0.034  52.799  1.00  0.00    -0.380 N 
HETATM   10  C8  UNL     1      23.582   1.286  52.573  1.00  0.00     0.106 A 
HETATM   11  C9  UNL     1      22.462   1.674  51.986  1.00  0.00     0.060 A 
HETATM   12  C16 UNL     1      22.350   3.155  51.957  1.00  0.00     0.211 A 
HETATM   13  N3  UNL     1      23.566   3.582  52.611  1.00  0.00    -0.259 NA
HETATM   14  C17 UNL     1      24.222   2.546  52.938  1.00  0.00     0.194 A 
HETATM   15  O1  UNL     1      25.461   2.672  53.599  1.00  0.00    -0.290 OA
HETATM   16  H6  UNL     1      23.605  -0.735  52.143  1.00  0.00     0.160 HD
ENDROOT
BRANCH  11  17
HETATM   17  N2  UNL     1      21.501   0.746  51.457  1.00  0.00    -0.359 N 
HETATM   18  H7  UNL     1      21.461   0.138  50.590  1.00  0.00     0.165 HD
BRANCH  17  19
HETATM   19  C10 UNL     1      20.333   0.596  52.268  1.00  0.00     0.024 C 
HETATM   20  C11 UNL     1      20.097  -0.047  53.393  1.00  0.00    -0.001 C 
HETATM   21  C12 UNL     1      19.142  -0.945  53.457  1.00  0.00     0.014 C 
HETATM   22  C13 UNL     1      18.130  -0.892  52.386  1.00  0.00    -0.003 C 
HETATM   23  C14 UNL     1      18.096   0.180  51.588  1.00  0.00    -0.021 C 
HETATM   24  C15 UNL     1      19.086   1.271  51.825  1.00  0.00     0.085 C 
ENDBRANCH  17  19
ENDBRANCH  11  17
TORSDOF 2
ENDMDL
MODEL 8
REMARK VINA RESULT:      -7.6      9.883     11.334
REMARK  2 active torsions:
REMARK  status: ('A' for Active; 'I' for Inactive)
REMARK    1  A    between atoms: C9_11  and  N2_12 
REMARK    2  A    between atoms: N2_12  and  C10_13 
ROOT
HETATM    1 BR1  UNL     1      23.695   7.976  50.162  1.00  0.00    -0.051 Br
HETATM    2  C1  UNL     1      25.508   8.319  49.632  1.00  0.00     0.011 A 
HETATM    3  C2  UNL     1      26.061   9.581  49.687  1.00  0.00     0.022 A 
HETATM    4  C3  UNL     1      27.361   9.811  49.304  1.00  0.00     0.039 A 
HETATM    5  C4  UNL     1      28.153   8.752  48.845  1.00  0.00     0.086 A 
HETATM    6  C5  UNL     1      27.639   7.476  48.774  1.00  0.00    -0.005 A 
HETATM    7  C6  UNL     1      26.310   7.305  49.178  1.00  0.00     0.030 A 
HETATM    8  C7  UNL     1      28.163   6.154  48.354  1.00  0.00     0.161 C 
HETATM    9  N1  UNL     1      29.511   5.988  48.864  1.00  0.00    -0.380 N 
HETATM   10  C8  UNL     1      30.626   6.871  48.831  1.00  0.00     0.106 A 
HETATM   11  C9  UNL     1      31.913   6.589  48.952  1.00  0.00     0.060 A 
HETATM   12  C16 UNL     1      32.747   7.815  48.860  1.00  0.00     0.211 A 
HETATM   13  N3  UNL     1      31.766   8.858  48.668  1.00  0.00    -0.259 NA
HETATM   14  C17 UNL     1      30.616   8.320  48.656  1.00  0.00     0.194 A 
HETATM   15  O1  UNL     1      29.465   9.114  48.482  1.00  0.00    -0.290 OA
HETATM   16  H6  UNL     1      29.751   5.072  49.347  1.00  0.00     0.160 HD
ENDROOT
BRANCH  11  17
HETATM   17  N2  UNL     1      32.400   5.251  49.146  1.00  0.00    -0.359 N 
HETATM   18  H7  UNL     1      32.573   4.644  49.998  1.00  0.00     0.165 HD
BRANCH  17  19
HETATM   19  C10 UNL     1      32.727   4.571  47.932  1.00  0.00     0.024 C 
HETATM   20  C11 UNL     1      32.002   4.142  46.920  1.00  0.00    -0.001 C 
HETATM   21  C12 UNL     1      32.039   2.878  46.565  1.00  0.00     0.014 C 
HETATM   22  C13 UNL     1      33.191   2.101  47.059  1.00  0.00    -0.003 C 
HETATM   23  C14 UNL     1      34.222   2.756  47.602  1.00  0.00    -0.021 C 
HETATM   24  C15 UNL     1      34.154   4.245  47.679  1.00  0.00     0.085 C 
ENDBRANCH  17  19
ENDBRANCH  11  17
TORSDOF 2
ENDMDL
MODEL 9
REMARK VINA RESULT:      -7.6      5.476      6.942
REMARK  2 active torsions:
REMARK  status: ('A' for Active; 'I' for Inactive)
REMARK    1  A    between atoms: C9_11  and  N2_12 
REMARK    2  A    between atoms: N2_12  and  C10_13 
ROOT
HETATM    1 BR1  UNL     1      22.558  -0.830  53.696  1.00  0.00    -0.051 Br
HETATM    2  C1  UNL     1      22.363   0.890  52.867  1.00  0.00     0.011 A 
HETATM    3  C2  UNL     1      21.233   1.662  53.039  1.00  0.00     0.022 A 
HETATM    4  C3  UNL     1      21.108   2.892  52.439  1.00  0.00     0.039 A 
HETATM    5  C4  UNL     1      22.141   3.385  51.632  1.00  0.00     0.086 A 
HETATM    6  C5  UNL     1      23.285   2.646  51.435  1.00  0.00    -0.005 A 
HETATM    7  C6  UNL     1      23.354   1.402  52.072  1.00  0.00     0.030 A 
HETATM    8  C7  UNL     1      24.542   2.840  50.673  1.00  0.00     0.161 C 
HETATM    9  N1  UNL     1      25.003   4.206  50.844  1.00  0.00    -0.380 N 
HETATM   10  C8  UNL     1      24.298   5.437  50.742  1.00  0.00     0.106 A 
HETATM   11  C9  UNL     1      24.776   6.653  50.532  1.00  0.00     0.060 A 
HETATM   12  C16 UNL     1      23.688   7.664  50.497  1.00  0.00     0.211 A 
HETATM   13  N3  UNL     1      22.502   6.868  50.716  1.00  0.00    -0.259 NA
HETATM   14  C17 UNL     1      22.859   5.657  50.847  1.00  0.00     0.194 A 
HETATM   15  O1  UNL     1      21.894   4.655  51.074  1.00  0.00    -0.290 OA
HETATM   16  H6  UNL     1      26.027   4.359  51.085  1.00  0.00     0.160 HD
ENDROOT
BRANCH  11  17
HETATM   17  N2  UNL     1      26.178   6.918  50.364  1.00  0.00    -0.359 N 
HETATM   18  H7  UNL     1      26.921   7.375  50.967  1.00  0.00     0.165 HD
BRANCH  17  19
HETATM   19  C10 UNL     1      26.707   6.471  49.114  1.00  0.00     0.024 C 
HETATM   20  C11 UNL     1      27.447   5.438  48.769  1.00  0.00    -0.001 C 
HETATM   21  C12 UNL     1      28.589   5.616  48.147  1.00  0.00     0.014 C 
HETATM   22  C13 UNL     1      28.782   6.934  47.514  1.00  0.00    -0.003 C 
HETATM   23  C14 UNL     1      27.729   7.749  47.392  1.00  0.00    -0.021 C 
HETATM   24  C15 UNL     1      26.407   7.278  47.903  1.00  0.00     0.085 C 
ENDBRANCH  17  19
ENDBRANCH  11  17
TORSDOF 2
ENDMDL
