MODEL 1
REMARK VINA RESULT:      -8.3      0.000      0.000
REMARK  7 active torsions:
REMARK  status: ('A' for Active; 'I' for Inactive)
REMARK    1  A    between atoms: C7_8  and  N1_9 
REMARK    2  A    between atoms: N1_9  and  S1_10 
REMARK    3  A    between atoms: S1_10  and  C8_13 
REMARK    4  A    between atoms: C14_21  and  C15_22 
REMARK    5  A    between atoms: C15_22  and  N4_23 
REMARK    6  A    between atoms: C15_22  and  C16_24 
REMARK    7  A    between atoms: C16_24  and  N5_25 
ROOT
HETATM    1  C8  UNL     1      25.555   4.931  50.021  1.00  0.00     0.097 C 
HETATM    2  C9  UNL     1      26.365   5.269  48.965  1.00  0.00     0.004 C 
HETATM    3  C10 UNL     1      26.723   6.432  48.059  1.00  0.00     0.076 C 
HETATM    4  C11 UNL     1      25.965   7.630  48.572  1.00  0.00     0.114 A 
HETATM    5  N2  UNL     1      24.906   7.035  48.179  1.00  0.00    -0.255 NA
HETATM    6  C12 UNL     1      23.679   7.138  48.543  1.00  0.00     0.122 A 
HETATM    7  C13 UNL     1      24.594   7.973  49.221  1.00  0.00     0.101 A 
HETATM    8  N3  UNL     1      25.705   8.597  49.633  1.00  0.00    -0.233 NA
HETATM    9  C14 UNL     1      26.920   8.388  49.155  1.00  0.00     0.042 A 
HETATM   10  C17 UNL     1      23.648   8.140  50.388  1.00  0.00     0.073 C 
HETATM   11  C18 UNL     1      23.779   6.736  51.015  1.00  0.00     0.002 C 
HETATM   12  C19 UNL     1      24.508   5.610  50.816  1.00  0.00     0.053 C 
HETATM   13 CL1  UNL     1      23.834   4.575  52.103  1.00  0.00    -0.083 Cl
ENDROOT
BRANCH   1  14
HETATM   14  S1  UNL     1      25.845   3.224  50.449  1.00  0.00     0.264 S 
HETATM   15  O1  UNL     1      26.843   2.712  49.450  1.00  0.00    -0.200 OA
HETATM   16  O2  UNL     1      24.576   2.473  50.126  1.00  0.00    -0.200 OA
BRANCH  14  17
HETATM   17  N1  UNL     1      26.373   3.010  52.029  1.00  0.00    -0.280 N 
HETATM   18  H7  UNL     1      26.379   3.915  52.596  1.00  0.00     0.179 HD
BRANCH  17  19
HETATM   19  C7  UNL     1      26.844   2.082  52.974  1.00  0.00     0.051 A 
HETATM   20  C2  UNL     1      26.105   1.114  53.663  1.00  0.00     0.004 A 
HETATM   21  C1  UNL     1      24.655   1.067  53.334  1.00  0.00     0.054 C 
HETATM   22  C3  UNL     1      26.740   0.301  54.558  1.00  0.00     0.124 A 
HETATM   23  F1  UNL     1      25.882  -0.580  55.138  1.00  0.00    -0.205 F 
HETATM   24  C4  UNL     1      28.071   0.396  54.809  1.00  0.00     0.043 A 
HETATM   25  C5  UNL     1      28.820   1.339  54.146  1.00  0.00     0.005 A 
HETATM   26  C6  UNL     1      28.198   2.188  53.222  1.00  0.00     0.031 A 
ENDBRANCH  17  19
ENDBRANCH  14  17
ENDBRANCH   1  14
BRANCH   9  27
HETATM   27  C15 UNL     1      28.023   9.150  49.706  1.00  0.00     0.288 C 
BRANCH  27  28
HETATM   28  N4  UNL     1      27.744   9.457  51.118  1.00  0.00     0.089 N 
HETATM   29  H13 UNL     1      28.487   9.092  51.751  1.00  0.00     0.313 HD
HETATM   30  H14 UNL     1      27.744  10.500  51.237  1.00  0.00     0.313 HD
ENDBRANCH  27  28
BRANCH  27  31
HETATM   31  C16 UNL     1      28.211  10.491  49.013  1.00  0.00     0.307 C 
BRANCH  31  32
HETATM   32  N5  UNL     1      29.448  11.127  49.360  1.00  0.00     0.080 N 
HETATM   33  H17 UNL     1      29.791  11.816  48.656  1.00  0.00     0.312 HD
HETATM   34  H18 UNL     1      29.429  11.627  50.282  1.00  0.00     0.312 HD
ENDBRANCH  31  32
ENDBRANCH  27  31
ENDBRANCH   9  27
TORSDOF 7
ENDMDL
MODEL 2
REMARK VINA RESULT:      -8.2      3.654      7.016
REMARK  7 active torsions:
REMARK  status: ('A' for Active; 'I' for Inactive)
REMARK    1  A    between atoms: C7_8  and  N1_9 
REMARK    2  A    between atoms: N1_9  and  S1_10 
REMARK    3  A    between atoms: S1_10  and  C8_13 
REMARK    4  A    between atoms: C14_21  and  C15_22 
REMARK    5  A    between atoms: C15_22  and  N4_23 
REMARK    6  A    between atoms: C15_22  and  C16_24 
REMARK    7  A    between atoms: C16_24  and  N5_25 
ROOT
HETATM    1  C8  UNL     1      23.444   5.257  50.484  1.00  0.00     0.097 C 
HETATM    2  C9  UNL     1      23.625   5.260  51.846  1.00  0.00     0.004 C 
HETATM    3  C10 UNL     1      23.599   4.347  53.057  1.00  0.00     0.076 C 
HETATM    4  C11 UNL     1      23.363   2.950  52.539  1.00  0.00     0.114 A 
HETATM    5  N2  UNL     1      22.192   3.345  52.221  1.00  0.00    -0.255 NA
HETATM    6  C12 UNL     1      21.352   2.921  51.347  1.00  0.00     0.122 A 
HETATM    7  C13 UNL     1      22.577   2.223  51.411  1.00  0.00     0.101 A 
HETATM    8  N3  UNL     1      23.806   1.809  51.745  1.00  0.00    -0.233 NA
HETATM    9  C14 UNL     1      24.565   2.348  52.685  1.00  0.00     0.042 A 
HETATM   10  C17 UNL     1      22.398   1.687  50.010  1.00  0.00     0.073 C 
HETATM   11  C18 UNL     1      22.666   2.982  49.214  1.00  0.00     0.002 C 
HETATM   12  C19 UNL     1      23.048   4.257  49.468  1.00  0.00     0.053 C 
HETATM   13 CL1  UNL     1      23.018   4.924  47.814  1.00  0.00    -0.083 Cl
ENDROOT
BRANCH   1  14
HETATM   14  S1  UNL     1      23.708   6.907  49.862  1.00  0.00     0.264 S 
HETATM   15  O1  UNL     1      23.949   7.770  51.068  1.00  0.00    -0.200 OA
HETATM   16  O2  UNL     1      22.383   7.385  49.321  1.00  0.00    -0.200 OA
BRANCH  14  17
HETATM   17  N1  UNL     1      24.967   7.013  48.755  1.00  0.00    -0.280 N 
HETATM   18  H7  UNL     1      24.648   7.326  47.785  1.00  0.00     0.179 HD
BRANCH  17  19
HETATM   19  C7  UNL     1      26.349   6.847  48.557  1.00  0.00     0.051 A 
HETATM   20  C2  UNL     1      27.299   7.840  48.292  1.00  0.00     0.004 A 
HETATM   21  C1  UNL     1      26.768   9.228  48.228  1.00  0.00     0.054 C 
HETATM   22  C3  UNL     1      28.607   7.483  48.118  1.00  0.00     0.124 A 
HETATM   23  F1  UNL     1      29.396   8.562  47.869  1.00  0.00    -0.205 F 
HETATM   24  C4  UNL     1      29.024   6.194  48.193  1.00  0.00     0.043 A 
HETATM   25  C5  UNL     1      28.110   5.200  48.452  1.00  0.00     0.005 A 
HETATM   26  C6  UNL     1      26.763   5.533  48.634  1.00  0.00     0.031 A 
ENDBRANCH  17  19
ENDBRANCH  14  17
ENDBRANCH   1  14
BRANCH   9  27
HETATM   27  C15 UNL     1      25.875   1.779  52.930  1.00  0.00     0.288 C 
BRANCH  27  28
HETATM   28  N4  UNL     1      26.499   2.466  54.072  1.00  0.00     0.089 N 
HETATM   29  H13 UNL     1      26.440   1.901  54.946  1.00  0.00     0.313 HD
HETATM   30  H14 UNL     1      27.521   2.586  53.869  1.00  0.00     0.313 HD
ENDBRANCH  27  28
BRANCH  27  31
HETATM   31  C16 UNL     1      26.823   1.970  51.755  1.00  0.00     0.307 C 
BRANCH  31  32
HETATM   32  N5  UNL     1      26.697   3.262  51.145  1.00  0.00     0.080 N 
HETATM   33  H17 UNL     1      26.237   3.978  51.747  1.00  0.00     0.312 HD
HETATM   34  H18 UNL     1      27.607   3.676  50.828  1.00  0.00     0.312 HD
ENDBRANCH  31  32
ENDBRANCH  27  31
ENDBRANCH   9  27
TORSDOF 7
ENDMDL
MODEL 3
REMARK VINA RESULT:      -8.1      2.734      3.703
REMARK  7 active torsions:
REMARK  status: ('A' for Active; 'I' for Inactive)
REMARK    1  A    between atoms: C7_8  and  N1_9 
REMARK    2  A    between atoms: N1_9  and  S1_10 
REMARK    3  A    between atoms: S1_10  and  C8_13 
REMARK    4  A    between atoms: C14_21  and  C15_22 
REMARK    5  A    between atoms: C15_22  and  N4_23 
REMARK    6  A    between atoms: C15_22  and  C16_24 
REMARK    7  A    between atoms: C16_24  and  N5_25 
ROOT
HETATM    1  C8  UNL     1      23.591   2.579  51.160  1.00  0.00     0.097 C 
HETATM    2  C9  UNL     1      24.705   2.861  50.409  1.00  0.00     0.004 C 
HETATM    3  C10 UNL     1      25.185   3.731  49.263  1.00  0.00     0.076 C 
HETATM    4  C11 UNL     1      24.035   4.638  48.899  1.00  0.00     0.114 A 
HETATM    5  N2  UNL     1      23.439   3.591  48.478  1.00  0.00    -0.255 NA
HETATM    6  C12 UNL     1      22.194   3.319  48.318  1.00  0.00     0.122 A 
HETATM    7  C13 UNL     1      22.483   4.607  48.820  1.00  0.00     0.101 A 
HETATM    8  N3  UNL     1      23.109   5.705  49.261  1.00  0.00    -0.233 NA
HETATM    9  C14 UNL     1      24.420   5.846  49.370  1.00  0.00     0.042 A 
HETATM   10  C17 UNL     1      21.091   4.746  49.393  1.00  0.00     0.073 C 
HETATM   11  C18 UNL     1      21.215   3.768  50.581  1.00  0.00     0.002 C 
HETATM   12  C19 UNL     1      22.176   3.010  51.163  1.00  0.00     0.053 C 
HETATM   13 CL1  UNL     1      21.220   2.245  52.462  1.00  0.00    -0.083 Cl
ENDROOT
BRANCH   1  14
HETATM   14  S1  UNL     1      24.008   1.339  52.371  1.00  0.00     0.264 S 
HETATM   15  O1  UNL     1      22.922   0.304  52.296  1.00  0.00    -0.200 OA
HETATM   16  O2  UNL     1      23.823   1.975  53.728  1.00  0.00    -0.200 OA
BRANCH  14  17
HETATM   17  N1  UNL     1      25.530   0.665  52.144  1.00  0.00    -0.280 N 
HETATM   18  H7  UNL     1      25.597   0.067  51.261  1.00  0.00     0.179 HD
BRANCH  17  19
HETATM   19  C7  UNL     1      26.831   0.547  52.663  1.00  0.00     0.051 A 
HETATM   20  C2  UNL     1      27.564  -0.626  52.875  1.00  0.00     0.004 A 
HETATM   21  C1  UNL     1      26.874  -1.886  52.488  1.00  0.00     0.054 C 
HETATM   22  C3  UNL     1      28.822  -0.542  53.402  1.00  0.00     0.124 A 
HETATM   23  F1  UNL     1      29.393  -1.767  53.543  1.00  0.00    -0.205 F 
HETATM   24  C4  UNL     1      29.394   0.644  53.731  1.00  0.00     0.043 A 
HETATM   25  C5  UNL     1      28.695   1.812  53.533  1.00  0.00     0.005 A 
HETATM   26  C6  UNL     1      27.403   1.759  52.996  1.00  0.00     0.031 A 
ENDBRANCH  17  19
ENDBRANCH  14  17
ENDBRANCH   1  14
BRANCH   9  27
HETATM   27  C15 UNL     1      24.944   7.104  49.863  1.00  0.00     0.288 C 
BRANCH  27  28
HETATM   28  N4  UNL     1      26.369   6.941  50.193  1.00  0.00     0.089 N 
HETATM   29  H13 UNL     1      26.827   6.220  49.596  1.00  0.00     0.313 HD
HETATM   30  H14 UNL     1      26.862   7.846  49.990  1.00  0.00     0.313 HD
ENDBRANCH  27  28
BRANCH  27  31
HETATM   31  C16 UNL     1      24.264   7.557  51.146  1.00  0.00     0.307 C 
BRANCH  31  32
HETATM   32  N5  UNL     1      24.147   6.505  52.113  1.00  0.00     0.080 N 
HETATM   33  H17 UNL     1      23.166   6.220  52.322  1.00  0.00     0.312 HD
HETATM   34  H18 UNL     1      24.666   5.630  51.859  1.00  0.00     0.312 HD
ENDBRANCH  31  32
ENDBRANCH  27  31
ENDBRANCH   9  27
TORSDOF 7
ENDMDL
MODEL 4
REMARK VINA RESULT:      -7.9      4.546      6.369
REMARK  7 active torsions:
REMARK  status: ('A' for Active; 'I' for Inactive)
REMARK    1  A    between atoms: C7_8  and  N1_9 
REMARK    2  A    between atoms: N1_9  and  S1_10 
REMARK    3  A    between atoms: S1_10  and  C8_13 
REMARK    4  A    between atoms: C14_21  and  C15_22 
REMARK    5  A    between atoms: C15_22  and  N4_23 
REMARK    6  A    between atoms: C15_22  and  C16_24 
REMARK    7  A    between atoms: C16_24  and  N5_25 
ROOT
HETATM    1  C8  UNL     1      21.174   3.393  50.850  1.00  0.00     0.097 C 
HETATM    2  C9  UNL     1      21.436   4.115  51.989  1.00  0.00     0.004 C 
HETATM    3  C10 UNL     1      22.552   4.850  52.707  1.00  0.00     0.076 C 
HETATM    4  C11 UNL     1      23.750   4.817  51.791  1.00  0.00     0.114 A 
HETATM    5  N2  UNL     1      23.793   3.561  52.013  1.00  0.00    -0.255 NA
HETATM    6  C12 UNL     1      24.287   2.587  51.336  1.00  0.00     0.122 A 
HETATM    7  C13 UNL     1      24.427   3.869  50.761  1.00  0.00     0.101 A 
HETATM    8  N3  UNL     1      24.382   5.187  50.529  1.00  0.00    -0.233 NA
HETATM    9  C14 UNL     1      23.836   6.086  51.331  1.00  0.00     0.042 A 
HETATM   10  C17 UNL     1      24.624   3.280  49.384  1.00  0.00     0.073 C 
HETATM   11  C18 UNL     1      23.177   2.822  49.102  1.00  0.00     0.002 C 
HETATM   12  C19 UNL     1      21.962   2.905  49.698  1.00  0.00     0.053 C 
HETATM   13 CL1  UNL     1      20.976   2.007  48.513  1.00  0.00    -0.083 Cl
ENDROOT
BRANCH   1  14
HETATM   14  S1  UNL     1      19.458   2.906  50.857  1.00  0.00     0.264 S 
HETATM   15  O1  UNL     1      18.877   3.421  49.571  1.00  0.00    -0.200 OA
HETATM   16  O2  UNL     1      18.778   3.725  51.927  1.00  0.00    -0.200 OA
BRANCH  14  17
HETATM   17  N1  UNL     1      19.232   1.251  51.028  1.00  0.00    -0.280 N 
HETATM   18  H7  UNL     1      19.245   0.727  50.096  1.00  0.00     0.179 HD
BRANCH  17  19
HETATM   19  C7  UNL     1      19.015   0.201  51.938  1.00  0.00     0.051 A 
HETATM   20  C2  UNL     1      19.929  -0.347  52.844  1.00  0.00     0.004 A 
HETATM   21  C1  UNL     1      21.281   0.275  52.838  1.00  0.00     0.054 C 
HETATM   22  C3  UNL     1      19.536  -1.378  53.649  1.00  0.00     0.124 A 
HETATM   23  F1  UNL     1      20.540  -1.793  54.467  1.00  0.00    -0.205 F 
HETATM   24  C4  UNL     1      18.283  -1.897  53.604  1.00  0.00     0.043 A 
HETATM   25  C5  UNL     1      17.365  -1.377  52.721  1.00  0.00     0.005 A 
HETATM   26  C6  UNL     1      17.738  -0.320  51.882  1.00  0.00     0.031 A 
ENDBRANCH  17  19
ENDBRANCH  14  17
ENDBRANCH   1  14
BRANCH   9  27
HETATM   27  C15 UNL     1      23.872   7.480  50.938  1.00  0.00     0.288 C 
BRANCH  27  28
HETATM   28  N4  UNL     1      22.667   7.796  50.153  1.00  0.00     0.089 N 
HETATM   29  H13 UNL     1      22.675   7.328  49.222  1.00  0.00     0.313 HD
HETATM   30  H14 UNL     1      21.831   7.420  50.664  1.00  0.00     0.313 HD
ENDBRANCH  27  28
BRANCH  27  31
HETATM   31  C16 UNL     1      25.057   7.803  50.039  1.00  0.00     0.307 C 
BRANCH  31  32
HETATM   32  N5  UNL     1      26.315   7.687  50.717  1.00  0.00     0.080 N 
HETATM   33  H17 UNL     1      26.585   8.529  51.270  1.00  0.00     0.312 HD
HETATM   34  H18 UNL     1      26.376   6.868  51.368  1.00  0.00     0.312 HD
ENDBRANCH  31  32
ENDBRANCH  27  31
ENDBRANCH   9  27
TORSDOF 7
ENDMDL
MODEL 5
REMARK VINA RESULT:      -7.9      2.826      3.851
REMARK  7 active torsions:
REMARK  status: ('A' for Active; 'I' for Inactive)
REMARK    1  A    between atoms: C7_8  and  N1_9 
REMARK    2  A    between atoms: N1_9  and  S1_10 
REMARK    3  A    between atoms: S1_10  and  C8_13 
REMARK    4  A    between atoms: C14_21  and  C15_22 
REMARK    5  A    between atoms: C15_22  and  N4_23 
REMARK    6  A    between atoms: C15_22  and  C16_24 
REMARK    7  A    between atoms: C16_24  and  N5_25 
ROOT
HETATM    1  C8  UNL     1      21.715   3.224  50.037  1.00  0.00     0.097 C 
HETATM    2  C9  UNL     1      22.302   3.256  48.796  1.00  0.00     0.004 C 
HETATM    3  C10 UNL     1      22.963   4.202  47.812  1.00  0.00     0.076 C 
HETATM    4  C11 UNL     1      23.057   5.543  48.497  1.00  0.00     0.114 A 
HETATM    5  N2  UNL     1      21.784   5.591  48.415  1.00  0.00    -0.255 NA
HETATM    6  C12 UNL     1      20.904   6.230  49.098  1.00  0.00     0.122 A 
HETATM    7  C13 UNL     1      22.247   6.423  49.490  1.00  0.00     0.101 A 
HETATM    8  N3  UNL     1      23.582   6.372  49.576  1.00  0.00    -0.233 NA
HETATM    9  C14 UNL     1      24.372   5.662  48.788  1.00  0.00     0.042 A 
HETATM   10  C17 UNL     1      21.826   6.879  50.868  1.00  0.00     0.073 C 
HETATM   11  C18 UNL     1      21.384   5.522  51.454  1.00  0.00     0.002 C 
HETATM   12  C19 UNL     1      21.378   4.219  51.079  1.00  0.00     0.053 C 
HETATM   13 CL1  UNL     1      20.610   3.488  52.514  1.00  0.00    -0.083 Cl
ENDROOT
BRANCH   1  14
HETATM   14  S1  UNL     1      21.205   1.552  50.392  1.00  0.00     0.264 S 
HETATM   15  O1  UNL     1      21.518   0.754  49.159  1.00  0.00    -0.200 OA
HETATM   16  O2  UNL     1      19.697   1.562  50.456  1.00  0.00    -0.200 OA
BRANCH  14  17
HETATM   17  N1  UNL     1      21.935   0.904  51.759  1.00  0.00    -0.280 N 
HETATM   18  H7  UNL     1      21.232   0.560  52.487  1.00  0.00     0.179 HD
BRANCH  17  19
HETATM   19  C7  UNL     1      23.158   0.610  52.387  1.00  0.00     0.051 A 
HETATM   20  C2  UNL     1      23.377  -0.244  53.473  1.00  0.00     0.004 A 
HETATM   21  C1  UNL     1      22.163  -0.921  54.005  1.00  0.00     0.054 C 
HETATM   22  C3  UNL     1      24.645  -0.397  53.957  1.00  0.00     0.124 A 
HETATM   23  F1  UNL     1      24.684  -1.258  55.009  1.00  0.00    -0.205 F 
HETATM   24  C4  UNL     1      25.710   0.252  53.422  1.00  0.00     0.043 A 
HETATM   25  C5  UNL     1      25.522   1.097  52.354  1.00  0.00     0.005 A 
HETATM   26  C6  UNL     1      24.233   1.276  51.836  1.00  0.00     0.031 A 
ENDBRANCH  17  19
ENDBRANCH  14  17
ENDBRANCH   1  14
BRANCH   9  27
HETATM   27  C15 UNL     1      25.803   5.717  49.008  1.00  0.00     0.288 C 
BRANCH  27  28
HETATM   28  N4  UNL     1      26.147   4.894  50.179  1.00  0.00     0.089 N 
HETATM   29  H13 UNL     1      27.177   4.836  50.325  1.00  0.00     0.313 HD
HETATM   30  H14 UNL     1      25.755   5.356  51.035  1.00  0.00     0.313 HD
ENDBRANCH  27  28
BRANCH  27  31
HETATM   31  C16 UNL     1      26.292   7.124  49.324  1.00  0.00     0.307 C 
BRANCH  31  32
HETATM   32  N5  UNL     1      26.147   7.463  50.710  1.00  0.00     0.080 N 
HETATM   33  H17 UNL     1      27.007   7.857  51.148  1.00  0.00     0.312 HD
HETATM   34  H18 UNL     1      25.373   8.142  50.905  1.00  0.00     0.312 HD
ENDBRANCH  31  32
ENDBRANCH  27  31
ENDBRANCH   9  27
TORSDOF 7
ENDMDL
MODEL 6
REMARK VINA RESULT:      -7.8      2.275      4.105
REMARK  7 active torsions:
REMARK  status: ('A' for Active; 'I' for Inactive)
REMARK    1  A    between atoms: C7_8  and  N1_9 
REMARK    2  A    between atoms: N1_9  and  S1_10 
REMARK    3  A    between atoms: S1_10  and  C8_13 
REMARK    4  A    between atoms: C14_21  and  C15_22 
REMARK    5  A    between atoms: C15_22  and  N4_23 
REMARK    6  A    between atoms: C15_22  and  C16_24 
REMARK    7  A    between atoms: C16_24  and  N5_25 
ROOT
HETATM    1  C8  UNL     1      24.640   4.545  50.808  1.00  0.00     0.097 C 
HETATM    2  C9  UNL     1      23.682   5.410  51.277  1.00  0.00     0.004 C 
HETATM    3  C10 UNL     1      23.108   6.796  51.047  1.00  0.00     0.076 C 
HETATM    4  C11 UNL     1      23.803   7.355  49.831  1.00  0.00     0.114 A 
HETATM    5  N2  UNL     1      24.860   7.395  50.545  1.00  0.00    -0.255 NA
HETATM    6  C12 UNL     1      26.106   7.390  50.233  1.00  0.00     0.122 A 
HETATM    7  C13 UNL     1      25.202   7.330  49.151  1.00  0.00     0.101 A 
HETATM    8  N3  UNL     1      24.092   7.288  48.402  1.00  0.00    -0.233 NA
HETATM    9  C14 UNL     1      22.855   7.305  48.869  1.00  0.00     0.042 A 
HETATM   10  C17 UNL     1      26.258   6.748  48.240  1.00  0.00     0.073 C 
HETATM   11  C18 UNL     1      26.338   5.325  48.832  1.00  0.00     0.002 C 
HETATM   12  C19 UNL     1      25.702   4.593  49.780  1.00  0.00     0.053 C 
HETATM   13 CL1  UNL     1      26.621   3.068  49.659  1.00  0.00    -0.083 Cl
ENDROOT
BRANCH   1  14
HETATM   14  S1  UNL     1      24.568   3.035  51.755  1.00  0.00     0.264 S 
HETATM   15  O1  UNL     1      23.847   2.040  50.891  1.00  0.00    -0.200 OA
HETATM   16  O2  UNL     1      23.621   3.287  52.903  1.00  0.00    -0.200 OA
BRANCH  14  17
HETATM   17  N1  UNL     1      26.076   2.472  52.234  1.00  0.00    -0.280 N 
HETATM   18  H7  UNL     1      26.802   3.250  52.333  1.00  0.00     0.179 HD
BRANCH  17  19
HETATM   19  C7  UNL     1      26.830   1.337  52.577  1.00  0.00     0.051 A 
HETATM   20  C2  UNL     1      28.077   1.299  53.211  1.00  0.00     0.004 A 
HETATM   21  C1  UNL     1      28.651   2.625  53.568  1.00  0.00     0.054 C 
HETATM   22  C3  UNL     1      28.666   0.090  53.455  1.00  0.00     0.124 A 
HETATM   23  F1  UNL     1      29.868   0.230  54.074  1.00  0.00    -0.205 F 
HETATM   24  C4  UNL     1      28.085  -1.085  53.104  1.00  0.00     0.043 A 
HETATM   25  C5  UNL     1      26.860  -1.075  52.479  1.00  0.00     0.005 A 
HETATM   26  C6  UNL     1      26.231   0.148  52.214  1.00  0.00     0.031 A 
ENDBRANCH  17  19
ENDBRANCH  14  17
ENDBRANCH   1  14
BRANCH   9  27
HETATM   27  C15 UNL     1      21.756   7.258  47.924  1.00  0.00     0.288 C 
BRANCH  27  28
HETATM   28  N4  UNL     1      20.558   6.730  48.597  1.00  0.00     0.089 N 
HETATM   29  H13 UNL     1      19.719   6.762  47.980  1.00  0.00     0.313 HD
HETATM   30  H14 UNL     1      20.722   5.717  48.817  1.00  0.00     0.313 HD
ENDBRANCH  27  28
BRANCH  27  31
HETATM   31  C16 UNL     1      22.031   6.322  46.756  1.00  0.00     0.307 C 
BRANCH  31  32
HETATM   32  N5  UNL     1      22.416   5.007  47.178  1.00  0.00     0.080 N 
HETATM   33  H17 UNL     1      21.783   4.581  47.889  1.00  0.00     0.312 HD
HETATM   34  H18 UNL     1      22.497   4.313  46.396  1.00  0.00     0.312 HD
ENDBRANCH  31  32
ENDBRANCH  27  31
ENDBRANCH   9  27
TORSDOF 7
ENDMDL
MODEL 7
REMARK VINA RESULT:      -7.8      4.743      7.333
REMARK  7 active torsions:
REMARK  status: ('A' for Active; 'I' for Inactive)
REMARK    1  A    between atoms: C7_8  and  N1_9 
REMARK    2  A    between atoms: N1_9  and  S1_10 
REMARK    3  A    between atoms: S1_10  and  C8_13 
REMARK    4  A    between atoms: C14_21  and  C15_22 
REMARK    5  A    between atoms: C15_22  and  N4_23 
REMARK    6  A    between atoms: C15_22  and  C16_24 
REMARK    7  A    between atoms: C16_24  and  N5_25 
ROOT
HETATM    1  C8  UNL     1      22.626   3.407  51.245  1.00  0.00     0.097 C 
HETATM    2  C9  UNL     1      21.542   3.552  52.076  1.00  0.00     0.004 C 
HETATM    3  C10 UNL     1      20.067   3.216  52.186  1.00  0.00     0.076 C 
HETATM    4  C11 UNL     1      19.727   2.366  50.988  1.00  0.00     0.114 A 
HETATM    5  N2  UNL     1      19.921   3.412  50.283  1.00  0.00    -0.255 NA
HETATM    6  C12 UNL     1      20.234   3.569  49.048  1.00  0.00     0.122 A 
HETATM    7  C13 UNL     1      20.107   2.233  49.485  1.00  0.00     0.101 A 
HETATM    8  N3  UNL     1      19.904   1.135  50.225  1.00  0.00    -0.233 NA
HETATM    9  C14 UNL     1      19.577   1.127  51.506  1.00  0.00     0.042 A 
HETATM   10  C17 UNL     1      20.952   1.729  48.338  1.00  0.00     0.073 C 
HETATM   11  C18 UNL     1      22.334   2.223  48.814  1.00  0.00     0.002 C 
HETATM   12  C19 UNL     1      22.864   2.834  49.902  1.00  0.00     0.053 C 
HETATM   13 CL1  UNL     1      24.568   2.959  49.387  1.00  0.00    -0.083 Cl
ENDROOT
BRANCH   1  14
HETATM   14  S1  UNL     1      24.045   4.172  52.006  1.00  0.00     0.264 S 
HETATM   15  O1  UNL     1      23.518   4.942  53.183  1.00  0.00    -0.200 OA
HETATM   16  O2  UNL     1      24.530   5.236  51.051  1.00  0.00    -0.200 OA
BRANCH  14  17
HETATM   17  N1  UNL     1      25.236   3.077  52.457  1.00  0.00    -0.280 N 
HETATM   18  H7  UNL     1      26.220   3.387  52.177  1.00  0.00     0.179 HD
BRANCH  17  19
HETATM   19  C7  UNL     1      25.497   1.846  53.083  1.00  0.00     0.051 A 
HETATM   20  C2  UNL     1      26.707   1.404  53.630  1.00  0.00     0.004 A 
HETATM   21  C1  UNL     1      27.835   2.370  53.541  1.00  0.00     0.054 C 
HETATM   22  C3  UNL     1      26.771   0.161  54.193  1.00  0.00     0.124 A 
HETATM   23  F1  UNL     1      28.013  -0.111  54.676  1.00  0.00    -0.205 F 
HETATM   24  C4  UNL     1      25.699  -0.670  54.244  1.00  0.00     0.043 A 
HETATM   25  C5  UNL     1      24.499  -0.260  53.713  1.00  0.00     0.005 A 
HETATM   26  C6  UNL     1      24.401   1.008  53.127  1.00  0.00     0.031 A 
ENDBRANCH  17  19
ENDBRANCH  14  17
ENDBRANCH   1  14
BRANCH   9  27
HETATM   27  C15 UNL     1      19.387  -0.150  52.166  1.00  0.00     0.288 C 
BRANCH  27  28
HETATM   28  N4  UNL     1      17.949  -0.454  52.233  1.00  0.00     0.089 N 
HETATM   29  H13 UNL     1      17.769  -1.479  52.292  1.00  0.00     0.313 HD
HETATM   30  H14 UNL     1      17.563  -0.037  53.115  1.00  0.00     0.313 HD
ENDBRANCH  27  28
BRANCH  27  31
HETATM   31  C16 UNL     1      19.884  -0.144  53.604  1.00  0.00     0.307 C 
BRANCH  31  32
HETATM   32  N5  UNL     1      20.181  -1.459  54.094  1.00  0.00     0.080 N 
HETATM   33  H17 UNL     1      20.855  -1.995  53.506  1.00  0.00     0.312 HD
HETATM   34  H18 UNL     1      20.558  -1.476  55.072  1.00  0.00     0.312 HD
ENDBRANCH  31  32
ENDBRANCH  27  31
ENDBRANCH   9  27
TORSDOF 7
ENDMDL
MODEL 8
REMARK VINA RESULT:      -7.7      1.880      2.169
REMARK  7 active torsions:
REMARK  status: ('A' for Active; 'I' for Inactive)
REMARK    1  A    between atoms: C7_8  and  N1_9 
REMARK    2  A    between atoms: N1_9  and  S1_10 
REMARK    3  A    between atoms: S1_10  and  C8_13 
REMARK    4  A    between atoms: C14_21  and  C15_22 
REMARK    5  A    between atoms: C15_22  and  N4_23 
REMARK    6  A    between atoms: C15_22  and  C16_24 
REMARK    7  A    between atoms: C16_24  and  N5_25 
ROOT
HETATM    1  C8  UNL     1      24.368   4.058  51.085  1.00  0.00     0.097 C 
HETATM    2  C9  UNL     1      25.509   4.088  50.322  1.00  0.00     0.004 C 
HETATM    3  C10 UNL     1      26.183   4.872  49.211  1.00  0.00     0.076 C 
HETATM    4  C11 UNL     1      25.302   6.062  48.925  1.00  0.00     0.114 A 
HETATM    5  N2  UNL     1      24.452   5.229  48.465  1.00  0.00    -0.255 NA
HETATM    6  C12 UNL     1      23.177   5.293  48.323  1.00  0.00     0.122 A 
HETATM    7  C13 UNL     1      23.792   6.434  48.884  1.00  0.00     0.101 A 
HETATM    8  N3  UNL     1      24.684   7.308  49.367  1.00  0.00    -0.233 NA
HETATM    9  C14 UNL     1      25.989   7.102  49.449  1.00  0.00     0.042 A 
HETATM   10  C17 UNL     1      22.490   6.891  49.499  1.00  0.00     0.073 C 
HETATM   11  C18 UNL     1      22.371   5.847  50.630  1.00  0.00     0.002 C 
HETATM   12  C19 UNL     1      23.111   4.836  51.147  1.00  0.00     0.053 C 
HETATM   13 CL1  UNL     1      22.006   4.268  52.427  1.00  0.00    -0.083 Cl
ENDROOT
BRANCH   1  14
HETATM   14  S1  UNL     1      24.467   2.685  52.218  1.00  0.00     0.264 S 
HETATM   15  O1  UNL     1      23.226   1.870  51.989  1.00  0.00    -0.200 OA
HETATM   16  O2  UNL     1      24.289   3.252  53.606  1.00  0.00    -0.200 OA
BRANCH  14  17
HETATM   17  N1  UNL     1      25.861   1.766  52.038  1.00  0.00    -0.280 N 
HETATM   18  H7  UNL     1      25.943   1.312  51.074  1.00  0.00     0.179 HD
BRANCH  17  19
HETATM   19  C7  UNL     1      27.035   1.311  52.664  1.00  0.00     0.051 A 
HETATM   20  C2  UNL     1      27.465  -0.012  52.816  1.00  0.00     0.004 A 
HETATM   21  C1  UNL     1      26.568  -1.044  52.229  1.00  0.00     0.054 C 
HETATM   22  C3  UNL     1      28.639  -0.261  53.467  1.00  0.00     0.124 A 
HETATM   23  F1  UNL     1      28.911  -1.592  53.527  1.00  0.00    -0.205 F 
HETATM   24  C4  UNL     1      29.413   0.731  53.977  1.00  0.00     0.043 A 
HETATM   25  C5  UNL     1      29.012   2.039  53.842  1.00  0.00     0.005 A 
HETATM   26  C6  UNL     1      27.812   2.328  53.180  1.00  0.00     0.031 A 
ENDBRANCH  17  19
ENDBRANCH  14  17
ENDBRANCH   1  14
BRANCH   9  27
HETATM   27  C15 UNL     1      26.824   8.154  49.994  1.00  0.00     0.288 C 
BRANCH  27  28
HETATM   28  N4  UNL     1      25.978   9.292  50.387  1.00  0.00     0.089 N 
HETATM   29  H13 UNL     1      26.408   9.851  51.154  1.00  0.00     0.313 HD
HETATM   30  H14 UNL     1      25.893   9.940  49.565  1.00  0.00     0.313 HD
ENDBRANCH  27  28
BRANCH  27  31
HETATM   31  C16 UNL     1      27.817   8.697  48.977  1.00  0.00     0.307 C 
BRANCH  31  32
HETATM   32  N5  UNL     1      29.152   8.223  49.197  1.00  0.00     0.080 N 
HETATM   33  H17 UNL     1      29.509   7.583  48.456  1.00  0.00     0.312 HD
HETATM   34  H18 UNL     1      29.865   8.985  49.303  1.00  0.00     0.312 HD
ENDBRANCH  31  32
ENDBRANCH  27  31
ENDBRANCH   9  27
TORSDOF 7
ENDMDL
MODEL 9
REMARK VINA RESULT:      -7.7      3.480      7.641
REMARK  7 active torsions:
REMARK  status: ('A' for Active; 'I' for Inactive)
REMARK    1  A    between atoms: C7_8  and  N1_9 
REMARK    2  A    between atoms: N1_9  and  S1_10 
REMARK    3  A    between atoms: S1_10  and  C8_13 
REMARK    4  A    between atoms: C14_21  and  C15_22 
REMARK    5  A    between atoms: C15_22  and  N4_23 
REMARK    6  A    between atoms: C15_22  and  C16_24 
REMARK    7  A    between atoms: C16_24  and  N5_25 
ROOT
HETATM    1  C8  UNL     1      22.962   2.549  50.553  1.00  0.00     0.097 C 
HETATM    2  C9  UNL     1      23.808   3.057  51.508  1.00  0.00     0.004 C 
HETATM    3  C10 UNL     1      24.416   2.732  52.860  1.00  0.00     0.076 C 
HETATM    4  C11 UNL     1      23.977   1.331  53.206  1.00  0.00     0.114 A 
HETATM    5  N2  UNL     1      22.799   1.808  53.322  1.00  0.00    -0.255 NA
HETATM    6  C12 UNL     1      21.640   1.263  53.231  1.00  0.00     0.122 A 
HETATM    7  C13 UNL     1      22.742   0.402  53.035  1.00  0.00     0.101 A 
HETATM    8  N3  UNL     1      23.978  -0.098  52.913  1.00  0.00    -0.233 NA
HETATM    9  C14 UNL     1      25.098   0.594  53.039  1.00  0.00     0.042 A 
HETATM   10  C17 UNL     1      21.887  -0.597  52.289  1.00  0.00     0.073 C 
HETATM   11  C18 UNL     1      21.691   0.182  50.971  1.00  0.00     0.002 C 
HETATM   12  C19 UNL     1      22.125   1.338  50.412  1.00  0.00     0.053 C 
HETATM   13 CL1  UNL     1      21.248   1.278  48.859  1.00  0.00    -0.083 Cl
ENDROOT
BRANCH   1  14
HETATM   14  S1  UNL     1      22.844   3.715  49.208  1.00  0.00     0.264 S 
HETATM   15  O1  UNL     1      21.411   4.166  49.177  1.00  0.00    -0.200 OA
HETATM   16  O2  UNL     1      23.013   2.925  47.933  1.00  0.00    -0.200 OA
BRANCH  14  17
HETATM   17  N1  UNL     1      23.905   5.009  49.347  1.00  0.00    -0.280 N 
HETATM   18  H7  UNL     1      23.566   5.758  50.030  1.00  0.00     0.179 HD
BRANCH  17  19
HETATM   19  C7  UNL     1      25.124   5.556  48.912  1.00  0.00     0.051 A 
HETATM   20  C2  UNL     1      26.391   4.964  48.956  1.00  0.00     0.004 A 
HETATM   21  C1  UNL     1      26.430   3.588  49.523  1.00  0.00     0.054 C 
HETATM   22  C3  UNL     1      27.471   5.659  48.491  1.00  0.00     0.124 A 
HETATM   23  F1  UNL     1      28.621   4.944  48.606  1.00  0.00    -0.205 F 
HETATM   24  C4  UNL     1      27.363   6.913  47.983  1.00  0.00     0.043 A 
HETATM   25  C5  UNL     1      26.129   7.519  47.928  1.00  0.00     0.005 A 
HETATM   26  C6  UNL     1      25.003   6.832  48.398  1.00  0.00     0.031 A 
ENDBRANCH  17  19
ENDBRANCH  14  17
ENDBRANCH   1  14
BRANCH   9  27
HETATM   27  C15 UNL     1      26.362  -0.098  52.882  1.00  0.00     0.288 C 
BRANCH  27  28
HETATM   28  N4  UNL     1      26.328  -1.354  53.648  1.00  0.00     0.089 N 
HETATM   29  H13 UNL     1      26.465  -1.192  54.668  1.00  0.00     0.313 HD
HETATM   30  H14 UNL     1      25.374  -1.779  53.543  1.00  0.00     0.313 HD
ENDBRANCH  27  28
BRANCH  27  31
HETATM   31  C16 UNL     1      27.536   0.699  53.432  1.00  0.00     0.307 C 
BRANCH  31  32
HETATM   32  N5  UNL     1      27.362   1.064  54.808  1.00  0.00     0.080 N 
HETATM   33  H17 UNL     1      26.879   1.976  54.953  1.00  0.00     0.312 HD
HETATM   34  H18 UNL     1      26.840   0.355  55.377  1.00  0.00     0.312 HD
ENDBRANCH  31  32
ENDBRANCH  27  31
ENDBRANCH   9  27
TORSDOF 7
ENDMDL
