MODEL 1
REMARK VINA RESULT:      -9.3      0.000      0.000
REMARK  4 active torsions:
REMARK  status: ('A' for Active; 'I' for Inactive)
REMARK    1  A    between atoms: C7_8  and  S1_9 
REMARK    2  A    between atoms: S1_9  and  C8_10 
REMARK    3  A    between atoms: N3_14  and  C10_15 
REMARK    4  A    between atoms: C12_18  and  C13_19 
ROOT
HETATM    1  C8  UNL     1      23.030   1.612  51.842  1.00  0.00     0.100 A 
HETATM    2  N1  UNL     1      22.399   1.016  52.774  1.00  0.00    -0.170 NA
HETATM    3  N2  UNL     1      23.056   0.216  53.744  1.00  0.00    -0.260 N 
HETATM    4  C9  UNL     1      24.463   0.136  53.575  1.00  0.00     0.153 A 
HETATM    5  N3  UNL     1      25.077  -0.543  54.456  1.00  0.00    -0.202 NA
HETATM    6  C11 UNL     1      25.230   0.781  52.523  1.00  0.00    -0.004 A 
HETATM    7  C12 UNL     1      26.493   0.663  52.274  1.00  0.00     0.026 C 
HETATM    8  C19 UNL     1      24.476   1.671  51.570  1.00  0.00     0.111 A 
HETATM    9  H7  UNL     1      22.529  -0.252  54.491  1.00  0.00     0.191 HD
ENDROOT
BRANCH   1  10
HETATM   10  S1  UNL     1      22.331   2.639  50.562  1.00  0.00    -0.072 SA
BRANCH  10  11
HETATM   11  C7  UNL     1      23.375   4.012  50.165  1.00  0.00     0.013 A 
HETATM   12  C2  UNL     1      23.207   5.040  51.094  1.00  0.00    -0.042 A 
HETATM   13  C1  UNL     1      22.284   5.046  52.286  1.00  0.00     0.049 C 
HETATM   14  C3  UNL     1      23.924   6.238  51.001  1.00  0.00     0.050 A 
HETATM   15  C4  UNL     1      24.828   6.430  49.968  1.00  0.00     0.117 A 
HETATM   16  F1  UNL     1      25.581   7.527  49.760  1.00  0.00    -0.206 F 
HETATM   17  C5  UNL     1      24.972   5.397  49.066  1.00  0.00     0.043 A 
HETATM   18  C6  UNL     1      24.274   4.216  49.146  1.00  0.00     0.022 A 
ENDBRANCH  10  11
ENDBRANCH   1  10
BRANCH   7  19
HETATM   19  C13 UNL     1      27.650  -0.037  52.777  1.00  0.00     0.008 A 
HETATM   20  C14 UNL     1      27.891  -1.402  52.757  1.00  0.00     0.045 A 
HETATM   21 CL1  UNL     1      26.658  -2.360  51.985  1.00  0.00    -0.083 Cl
HETATM   22  C15 UNL     1      29.013  -1.991  53.298  1.00  0.00     0.025 A 
HETATM   23  C16 UNL     1      29.951  -1.184  53.893  1.00  0.00     0.003 A 
HETATM   24  C17 UNL     1      29.766   0.183  53.946  1.00  0.00     0.025 A 
HETATM   25  C18 UNL     1      28.617   0.758  53.390  1.00  0.00     0.045 A 
HETATM   26 CL2  UNL     1      28.618   2.500  53.649  1.00  0.00    -0.083 Cl
ENDBRANCH   7  19
BRANCH   5  27
HETATM   27  C10 UNL     1      24.531  -1.210  55.557  1.00  0.00     0.378 C 
HETATM   28  O1  UNL     1      23.327  -1.605  55.724  1.00  0.00    -0.281 OA
ENDBRANCH   5  27
TORSDOF 4
ENDMDL
MODEL 2
REMARK VINA RESULT:      -9.1      0.331      1.783
REMARK  4 active torsions:
REMARK  status: ('A' for Active; 'I' for Inactive)
REMARK    1  A    between atoms: C7_8  and  S1_9 
REMARK    2  A    between atoms: S1_9  and  C8_10 
REMARK    3  A    between atoms: N3_14  and  C10_15 
REMARK    4  A    between atoms: C12_18  and  C13_19 
ROOT
HETATM    1  C8  UNL     1      22.860   1.406  51.760  1.00  0.00     0.100 A 
HETATM    2  N1  UNL     1      22.254   0.802  52.703  1.00  0.00    -0.170 NA
HETATM    3  N2  UNL     1      22.946   0.091  53.716  1.00  0.00    -0.260 N 
HETATM    4  C9  UNL     1      24.358   0.109  53.579  1.00  0.00     0.153 A 
HETATM    5  N3  UNL     1      25.000  -0.487  54.499  1.00  0.00    -0.202 NA
HETATM    6  C11 UNL     1      25.099   0.769  52.518  1.00  0.00    -0.004 A 
HETATM    7  C12 UNL     1      26.373   0.735  52.299  1.00  0.00     0.026 C 
HETATM    8  C19 UNL     1      24.303   1.563  51.514  1.00  0.00     0.111 A 
HETATM    9  H7  UNL     1      22.437  -0.386  54.472  1.00  0.00     0.191 HD
ENDROOT
BRANCH   1  10
HETATM   10  S1  UNL     1      22.117   2.328  50.426  1.00  0.00    -0.072 SA
BRANCH  10  11
HETATM   11  C7  UNL     1      23.032   3.791  50.036  1.00  0.00     0.013 A 
HETATM   12  C2  UNL     1      22.803   4.783  50.991  1.00  0.00    -0.042 A 
HETATM   13  C1  UNL     1      21.913   4.687  52.204  1.00  0.00     0.049 C 
HETATM   14  C3  UNL     1      23.415   6.038  50.909  1.00  0.00     0.050 A 
HETATM   15  C4  UNL     1      24.274   6.326  49.859  1.00  0.00     0.117 A 
HETATM   16  F1  UNL     1      24.927   7.486  49.658  1.00  0.00    -0.206 F 
HETATM   17  C5  UNL     1      24.481   5.327  48.931  1.00  0.00     0.043 A 
HETATM   18  C6  UNL     1      23.886   4.090  49.001  1.00  0.00     0.022 A 
ENDBRANCH  10  11
ENDBRANCH   1  10
BRANCH   7  19
HETATM   19  C13 UNL     1      27.566   0.144  52.853  1.00  0.00     0.008 A 
HETATM   20  C14 UNL     1      28.625   0.790  53.472  1.00  0.00     0.045 A 
HETATM   21 CL1  UNL     1      28.448   2.516  53.630  1.00  0.00    -0.083 Cl
HETATM   22  C15 UNL     1      29.749   0.147  53.941  1.00  0.00     0.025 A 
HETATM   23  C16 UNL     1      29.832  -1.215  53.788  1.00  0.00     0.003 A 
HETATM   24  C17 UNL     1      28.810  -1.915  53.178  1.00  0.00     0.025 A 
HETATM   25  C18 UNL     1      27.678  -1.238  52.709  1.00  0.00     0.045 A 
HETATM   26 CL2  UNL     1      26.569  -2.364  51.931  1.00  0.00    -0.083 Cl
ENDBRANCH   7  19
BRANCH   5  27
HETATM   27  C10 UNL     1      24.480  -1.149  55.615  1.00  0.00     0.378 C 
HETATM   28  O1  UNL     1      23.346  -1.727  55.734  1.00  0.00    -0.281 OA
ENDBRANCH   5  27
TORSDOF 4
ENDMDL
MODEL 3
REMARK VINA RESULT:      -8.6      2.923      3.704
REMARK  4 active torsions:
REMARK  status: ('A' for Active; 'I' for Inactive)
REMARK    1  A    between atoms: C7_8  and  S1_9 
REMARK    2  A    between atoms: S1_9  and  C8_10 
REMARK    3  A    between atoms: N3_14  and  C10_15 
REMARK    4  A    between atoms: C12_18  and  C13_19 
ROOT
HETATM    1  C8  UNL     1      22.981   1.841  52.055  1.00  0.00     0.100 A 
HETATM    2  N1  UNL     1      22.353   1.194  52.955  1.00  0.00    -0.170 NA
HETATM    3  N2  UNL     1      23.011   0.320  53.858  1.00  0.00    -0.260 N 
HETATM    4  C9  UNL     1      24.413   0.229  53.662  1.00  0.00     0.153 A 
HETATM    5  N3  UNL     1      25.028  -0.517  54.486  1.00  0.00    -0.202 NA
HETATM    6  C11 UNL     1      25.176   0.931  52.645  1.00  0.00    -0.004 A 
HETATM    7  C12 UNL     1      26.433   0.810  52.369  1.00  0.00     0.026 C 
HETATM    8  C19 UNL     1      24.423   1.895  51.765  1.00  0.00     0.111 A 
HETATM    9  H7  UNL     1      22.486  -0.188  54.581  1.00  0.00     0.191 HD
ENDROOT
BRANCH   1  10
HETATM   10  S1  UNL     1      22.281   2.963  50.857  1.00  0.00    -0.072 SA
BRANCH  10  11
HETATM   11  C7  UNL     1      20.513   2.899  50.838  1.00  0.00     0.013 A 
HETATM   12  C2  UNL     1      20.066   1.945  49.922  1.00  0.00    -0.042 A 
HETATM   13  C1  UNL     1      20.915   1.063  49.042  1.00  0.00     0.049 C 
HETATM   14  C3  UNL     1      18.703   1.702  49.721  1.00  0.00     0.050 A 
HETATM   15  C4  UNL     1      17.755   2.415  50.438  1.00  0.00     0.117 A 
HETATM   16  F1  UNL     1      16.419   2.283  50.345  1.00  0.00    -0.206 F 
HETATM   17  C5  UNL     1      18.226   3.350  51.335  1.00  0.00     0.043 A 
HETATM   18  C6  UNL     1      19.562   3.599  51.542  1.00  0.00     0.022 A 
ENDBRANCH  10  11
ENDBRANCH   1  10
BRANCH   7  19
HETATM   19  C13 UNL     1      27.585   0.059  52.806  1.00  0.00     0.008 A 
HETATM   20  C14 UNL     1      27.784  -1.310  52.729  1.00  0.00     0.045 A 
HETATM   21 CL1  UNL     1      26.498  -2.204  51.967  1.00  0.00    -0.083 Cl
HETATM   22  C15 UNL     1      28.906  -1.951  53.209  1.00  0.00     0.025 A 
HETATM   23  C16 UNL     1      29.887  -1.193  53.799  1.00  0.00     0.003 A 
HETATM   24  C17 UNL     1      29.745   0.176  53.906  1.00  0.00     0.025 A 
HETATM   25  C18 UNL     1      28.596   0.804  53.412  1.00  0.00     0.045 A 
HETATM   26 CL2  UNL     1      28.657   2.535  53.732  1.00  0.00    -0.083 Cl
ENDBRANCH   7  19
BRANCH   5  27
HETATM   27  C10 UNL     1      24.486  -1.247  55.549  1.00  0.00     0.378 C 
HETATM   28  O1  UNL     1      23.291  -1.680  55.683  1.00  0.00    -0.281 OA
ENDBRANCH   5  27
TORSDOF 4
ENDMDL
MODEL 4
REMARK VINA RESULT:      -8.6      4.674      8.613
REMARK  4 active torsions:
REMARK  status: ('A' for Active; 'I' for Inactive)
REMARK    1  A    between atoms: C7_8  and  S1_9 
REMARK    2  A    between atoms: S1_9  and  C8_10 
REMARK    3  A    between atoms: N3_14  and  C10_15 
REMARK    4  A    between atoms: C12_18  and  C13_19 
ROOT
HETATM    1  C8  UNL     1      25.931   2.171  51.494  1.00  0.00     0.100 A 
HETATM    2  N1  UNL     1      26.975   2.808  51.138  1.00  0.00    -0.170 NA
HETATM    3  N2  UNL     1      26.916   3.948  50.295  1.00  0.00    -0.260 N 
HETATM    4  C9  UNL     1      25.605   4.302  49.886  1.00  0.00     0.153 A 
HETATM    5  N3  UNL     1      25.525   5.345  49.164  1.00  0.00    -0.202 NA
HETATM    6  C11 UNL     1      24.384   3.604  50.249  1.00  0.00    -0.004 A 
HETATM    7  C12 UNL     1      23.183   3.831  49.827  1.00  0.00     0.026 C 
HETATM    8  C19 UNL     1      24.514   2.444  51.201  1.00  0.00     0.111 A 
HETATM    9  H7  UNL     1      27.771   4.452  50.025  1.00  0.00     0.191 HD
ENDROOT
BRANCH   1  10
HETATM   10  S1  UNL     1      25.862   0.727  52.539  1.00  0.00    -0.072 SA
BRANCH  10  11
HETATM   11  C7  UNL     1      27.467   0.225  53.088  1.00  0.00     0.013 A 
HETATM   12  C2  UNL     1      27.646  -1.146  52.893  1.00  0.00    -0.042 A 
HETATM   13  C1  UNL     1      26.655  -2.117  52.305  1.00  0.00     0.049 C 
HETATM   14  C3  UNL     1      28.838  -1.788  53.246  1.00  0.00     0.050 A 
HETATM   15  C4  UNL     1      29.879  -1.065  53.806  1.00  0.00     0.117 A 
HETATM   16  F1  UNL     1      31.074  -1.553  54.190  1.00  0.00    -0.206 F 
HETATM   17  C5  UNL     1      29.673   0.286  53.987  1.00  0.00     0.043 A 
HETATM   18  C6  UNL     1      28.508   0.930  53.644  1.00  0.00     0.022 A 
ENDBRANCH  10  11
ENDBRANCH   1  10
BRANCH   7  19
HETATM   19  C13 UNL     1      22.485   4.718  48.930  1.00  0.00     0.008 A 
HETATM   20  C14 UNL     1      22.102   6.030  49.161  1.00  0.00     0.045 A 
HETATM   21 CL1  UNL     1      22.574   6.677  50.709  1.00  0.00    -0.083 Cl
HETATM   22  C15 UNL     1      21.401   6.797  48.257  1.00  0.00     0.025 A 
HETATM   23  C16 UNL     1      21.057   6.232  47.053  1.00  0.00     0.003 A 
HETATM   24  C17 UNL     1      21.409   4.929  46.764  1.00  0.00     0.025 A 
HETATM   25  C18 UNL     1      22.121   4.171  47.701  1.00  0.00     0.045 A 
HETATM   26 CL2  UNL     1      22.383   2.538  47.094  1.00  0.00    -0.083 Cl
ENDBRANCH   7  19
BRANCH   5  27
HETATM   27  C10 UNL     1      26.570   6.170  48.734  1.00  0.00     0.378 C 
HETATM   28  O1  UNL     1      27.693   5.826  48.231  1.00  0.00    -0.281 OA
ENDBRANCH   5  27
TORSDOF 4
ENDMDL
MODEL 5
REMARK VINA RESULT:      -8.5      3.367      7.023
REMARK  4 active torsions:
REMARK  status: ('A' for Active; 'I' for Inactive)
REMARK    1  A    between atoms: C7_8  and  S1_9 
REMARK    2  A    between atoms: S1_9  and  C8_10 
REMARK    3  A    between atoms: N3_14  and  C10_15 
REMARK    4  A    between atoms: C12_18  and  C13_19 
ROOT
HETATM    1  C8  UNL     1      23.959   0.191  53.074  1.00  0.00     0.100 A 
HETATM    2  N1  UNL     1      22.849  -0.166  52.562  1.00  0.00    -0.170 NA
HETATM    3  N2  UNL     1      22.195   0.599  51.562  1.00  0.00    -0.260 N 
HETATM    4  C9  UNL     1      22.881   1.786  51.196  1.00  0.00     0.153 A 
HETATM    5  N3  UNL     1      22.335   2.465  50.272  1.00  0.00    -0.202 NA
HETATM    6  C11 UNL     1      24.139   2.247  51.757  1.00  0.00    -0.004 A 
HETATM    7  C12 UNL     1      24.752   3.361  51.525  1.00  0.00     0.026 C 
HETATM    8  C19 UNL     1      24.811   1.351  52.765  1.00  0.00     0.111 A 
HETATM    9  H7  UNL     1      21.303   0.290  51.157  1.00  0.00     0.191 HD
ENDROOT
BRANCH   1  10
HETATM   10  S1  UNL     1      24.881  -0.668  54.337  1.00  0.00    -0.072 SA
BRANCH  10  11
HETATM   11  C7  UNL     1      26.615  -0.325  54.245  1.00  0.00     0.013 A 
HETATM   12  C2  UNL     1      27.224  -1.127  53.279  1.00  0.00    -0.042 A 
HETATM   13  C1  UNL     1      26.558  -2.160  52.405  1.00  0.00     0.049 C 
HETATM   14  C3  UNL     1      28.594  -1.045  53.013  1.00  0.00     0.050 A 
HETATM   15  C4  UNL     1      29.388  -0.151  53.716  1.00  0.00     0.117 A 
HETATM   16  F1  UNL     1      30.713   0.032  53.562  1.00  0.00    -0.206 F 
HETATM   17  C5  UNL     1      28.759   0.628  54.664  1.00  0.00     0.043 A 
HETATM   18  C6  UNL     1      27.413   0.557  54.934  1.00  0.00     0.022 A 
ENDBRANCH  10  11
ENDBRANCH   1  10
BRANCH   7  19
HETATM   19  C13 UNL     1      24.586   4.563  50.744  1.00  0.00     0.008 A 
HETATM   20  C14 UNL     1      23.600   5.528  50.870  1.00  0.00     0.045 A 
HETATM   21 CL1  UNL     1      22.464   5.260  52.163  1.00  0.00    -0.083 Cl
HETATM   22  C15 UNL     1      23.495   6.630  50.051  1.00  0.00     0.025 A 
HETATM   23  C16 UNL     1      24.420   6.788  49.048  1.00  0.00     0.003 A 
HETATM   24  C17 UNL     1      25.426   5.859  48.872  1.00  0.00     0.025 A 
HETATM   25  C18 UNL     1      25.511   4.747  49.717  1.00  0.00     0.045 A 
HETATM   26 CL2  UNL     1      26.848   3.708  49.230  1.00  0.00    -0.083 Cl
ENDBRANCH   7  19
BRANCH   5  27
HETATM   27  C10 UNL     1      21.150   2.179  49.585  1.00  0.00     0.378 C 
HETATM   28  O1  UNL     1      20.884   1.161  48.860  1.00  0.00    -0.281 OA
ENDBRANCH   5  27
TORSDOF 4
ENDMDL
MODEL 6
REMARK VINA RESULT:      -8.5      4.324      8.017
REMARK  4 active torsions:
REMARK  status: ('A' for Active; 'I' for Inactive)
REMARK    1  A    between atoms: C7_8  and  S1_9 
REMARK    2  A    between atoms: S1_9  and  C8_10 
REMARK    3  A    between atoms: N3_14  and  C10_15 
REMARK    4  A    between atoms: C12_18  and  C13_19 
ROOT
HETATM    1  C8  UNL     1      24.208   1.059  53.037  1.00  0.00     0.100 A 
HETATM    2  N1  UNL     1      24.568   2.258  53.271  1.00  0.00    -0.170 NA
HETATM    3  N2  UNL     1      23.942   3.372  52.655  1.00  0.00    -0.260 N 
HETATM    4  C9  UNL     1      22.897   3.030  51.758  1.00  0.00     0.153 A 
HETATM    5  N3  UNL     1      22.296   4.014  51.226  1.00  0.00    -0.202 NA
HETATM    6  C11 UNL     1      22.457   1.682  51.443  1.00  0.00    -0.004 A 
HETATM    7  C12 UNL     1      21.578   1.317  50.568  1.00  0.00     0.026 C 
HETATM    8  C19 UNL     1      23.119   0.551  52.186  1.00  0.00     0.111 A 
HETATM    9  H7  UNL     1      24.245   4.332  52.862  1.00  0.00     0.191 HD
ENDROOT
BRANCH   1  10
HETATM   10  S1  UNL     1      24.908  -0.426  53.735  1.00  0.00    -0.072 SA
BRANCH  10  11
HETATM   11  C7  UNL     1      26.666  -0.317  53.903  1.00  0.00     0.013 A 
HETATM   12  C2  UNL     1      27.296  -1.258  53.087  1.00  0.00    -0.042 A 
HETATM   13  C1  UNL     1      26.633  -2.255  52.171  1.00  0.00     0.049 C 
HETATM   14  C3  UNL     1      28.689  -1.373  53.039  1.00  0.00     0.050 A 
HETATM   15  C4  UNL     1      29.484  -0.542  53.814  1.00  0.00     0.117 A 
HETATM   16  F1  UNL     1      30.829  -0.544  53.865  1.00  0.00    -0.206 F 
HETATM   17  C5  UNL     1      28.833   0.377  54.610  1.00  0.00     0.043 A 
HETATM   18  C6  UNL     1      27.466   0.500  54.667  1.00  0.00     0.022 A 
ENDBRANCH  10  11
ENDBRANCH   1  10
BRANCH   7  19
HETATM   19  C13 UNL     1      20.700   1.903  49.584  1.00  0.00     0.008 A 
HETATM   20  C14 UNL     1      21.023   2.330  48.306  1.00  0.00     0.045 A 
HETATM   21 CL1  UNL     1      22.682   2.075  47.838  1.00  0.00    -0.083 Cl
HETATM   22  C15 UNL     1      20.125   2.917  47.442  1.00  0.00     0.025 A 
HETATM   23  C16 UNL     1      18.831   3.092  47.867  1.00  0.00     0.003 A 
HETATM   24  C17 UNL     1      18.449   2.688  49.130  1.00  0.00     0.025 A 
HETATM   25  C18 UNL     1      19.380   2.095  49.990  1.00  0.00     0.045 A 
HETATM   26 CL2  UNL     1      18.636   1.734  51.545  1.00  0.00    -0.083 Cl
ENDBRANCH   7  19
BRANCH   5  27
HETATM   27  C10 UNL     1      22.544   5.376  51.421  1.00  0.00     0.378 C 
HETATM   28  O1  UNL     1      23.668   5.985  51.403  1.00  0.00    -0.281 OA
ENDBRANCH   5  27
TORSDOF 4
ENDMDL
MODEL 7
REMARK VINA RESULT:      -8.4      3.980      7.715
REMARK  4 active torsions:
REMARK  status: ('A' for Active; 'I' for Inactive)
REMARK    1  A    between atoms: C7_8  and  S1_9 
REMARK    2  A    between atoms: S1_9  and  C8_10 
REMARK    3  A    between atoms: N3_14  and  C10_15 
REMARK    4  A    between atoms: C12_18  and  C13_19 
ROOT
HETATM    1  C8  UNL     1      24.988   2.335  52.515  1.00  0.00     0.100 A 
HETATM    2  N1  UNL     1      23.923   2.201  53.200  1.00  0.00    -0.170 NA
HETATM    3  N2  UNL     1      22.634   2.423  52.650  1.00  0.00    -0.260 N 
HETATM    4  C9  UNL     1      22.644   2.811  51.285  1.00  0.00     0.153 A 
HETATM    5  N3  UNL     1      21.499   2.975  50.761  1.00  0.00    -0.202 NA
HETATM    6  C11 UNL     1      23.827   2.993  50.463  1.00  0.00    -0.004 A 
HETATM    7  C12 UNL     1      23.890   3.434  49.249  1.00  0.00     0.026 C 
HETATM    8  C19 UNL     1      25.158   2.674  51.092  1.00  0.00     0.111 A 
HETATM    9  H7  UNL     1      21.787   2.303  53.219  1.00  0.00     0.191 HD
ENDROOT
BRANCH   1  10
HETATM   10  S1  UNL     1      26.663   2.095  53.080  1.00  0.00    -0.072 SA
BRANCH  10  11
HETATM   11  C7  UNL     1      27.156   0.397  53.001  1.00  0.00     0.013 A 
HETATM   12  C2  UNL     1      28.427   0.229  53.552  1.00  0.00    -0.042 A 
HETATM   13  C1  UNL     1      29.309   1.297  54.145  1.00  0.00     0.049 C 
HETATM   14  C3  UNL     1      29.042  -1.026  53.609  1.00  0.00     0.050 A 
HETATM   15  C4  UNL     1      28.391  -2.144  53.111  1.00  0.00     0.117 A 
HETATM   16  F1  UNL     1      28.863  -3.405  53.103  1.00  0.00    -0.206 F 
HETATM   17  C5  UNL     1      27.137  -1.947  52.573  1.00  0.00     0.043 A 
HETATM   18  C6  UNL     1      26.521  -0.719  52.510  1.00  0.00     0.022 A 
ENDBRANCH  10  11
ENDBRANCH   1  10
BRANCH   7  19
HETATM   19  C13 UNL     1      23.014   3.913  48.208  1.00  0.00     0.008 A 
HETATM   20  C14 UNL     1      22.161   3.170  47.407  1.00  0.00     0.045 A 
HETATM   21 CL1  UNL     1      22.127   1.462  47.749  1.00  0.00    -0.083 Cl
HETATM   22  C15 UNL     1      21.383   3.709  46.406  1.00  0.00     0.025 A 
HETATM   23  C16 UNL     1      21.453   5.062  46.184  1.00  0.00     0.003 A 
HETATM   24  C17 UNL     1      22.285   5.855  46.948  1.00  0.00     0.025 A 
HETATM   25  C18 UNL     1      23.066   5.284  47.959  1.00  0.00     0.045 A 
HETATM   26 CL2  UNL     1      24.065   6.513  48.729  1.00  0.00    -0.083 Cl
ENDBRANCH   7  19
BRANCH   5  27
HETATM   27  C10 UNL     1      20.248   2.818  51.368  1.00  0.00     0.378 C 
HETATM   28  O1  UNL     1      19.788   3.422  52.396  1.00  0.00    -0.281 OA
ENDBRANCH   5  27
TORSDOF 4
ENDMDL
MODEL 8
REMARK VINA RESULT:      -8.4      6.181      8.564
REMARK  4 active torsions:
REMARK  status: ('A' for Active; 'I' for Inactive)
REMARK    1  A    between atoms: C7_8  and  S1_9 
REMARK    2  A    between atoms: S1_9  and  C8_10 
REMARK    3  A    between atoms: N3_14  and  C10_15 
REMARK    4  A    between atoms: C12_18  and  C13_19 
ROOT
HETATM    1  C8  UNL     1      26.062   5.288  49.545  1.00  0.00     0.100 A 
HETATM    2  N1  UNL     1      25.675   6.344  50.143  1.00  0.00    -0.170 NA
HETATM    3  N2  UNL     1      26.360   7.580  50.018  1.00  0.00    -0.260 N 
HETATM    4  C9  UNL     1      27.506   7.528  49.182  1.00  0.00     0.153 A 
HETATM    5  N3  UNL     1      28.112   8.634  49.024  1.00  0.00    -0.202 NA
HETATM    6  C11 UNL     1      28.000   6.350  48.490  1.00  0.00    -0.004 A 
HETATM    7  C12 UNL     1      29.085   6.232  47.798  1.00  0.00     0.026 C 
HETATM    8  C19 UNL     1      27.184   5.089  48.612  1.00  0.00     0.111 A 
HETATM    9  H7  UNL     1      26.028   8.422  50.505  1.00  0.00     0.191 HD
ENDROOT
BRANCH   1  10
HETATM   10  S1  UNL     1      25.302   3.676  49.618  1.00  0.00    -0.072 SA
BRANCH  10  11
HETATM   11  C7  UNL     1      25.741   2.799  51.091  1.00  0.00     0.013 A 
HETATM   12  C2  UNL     1      24.820   3.055  52.108  1.00  0.00    -0.042 A 
HETATM   13  C1  UNL     1      23.604   3.942  52.030  1.00  0.00     0.049 C 
HETATM   14  C3  UNL     1      24.945   2.477  53.375  1.00  0.00     0.050 A 
HETATM   15  C4  UNL     1      26.005   1.625  53.651  1.00  0.00     0.117 A 
HETATM   16  F1  UNL     1      26.245   1.003  54.820  1.00  0.00    -0.206 F 
HETATM   17  C5  UNL     1      26.898   1.392  52.627  1.00  0.00     0.043 A 
HETATM   18  C6  UNL     1      26.787   1.954  51.378  1.00  0.00     0.022 A 
ENDBRANCH  10  11
ENDBRANCH   1  10
BRANCH   7  19
HETATM   19  C13 UNL     1      30.219   7.026  47.390  1.00  0.00     0.008 A 
HETATM   20  C14 UNL     1      30.304   7.893  46.312  1.00  0.00     0.045 A 
HETATM   21 CL1  UNL     1      28.840   8.063  45.382  1.00  0.00    -0.083 Cl
HETATM   22  C15 UNL     1      31.445   8.586  45.972  1.00  0.00     0.025 A 
HETATM   23  C16 UNL     1      32.567   8.411  46.744  1.00  0.00     0.003 A 
HETATM   24  C17 UNL     1      32.545   7.560  47.830  1.00  0.00     0.025 A 
HETATM   25  C18 UNL     1      31.373   6.866  48.154  1.00  0.00     0.045 A 
HETATM   26 CL2  UNL     1      31.647   5.817  49.543  1.00  0.00    -0.083 Cl
ENDBRANCH   7  19
BRANCH   5  27
HETATM   27  C10 UNL     1      27.781   9.877  49.571  1.00  0.00     0.378 C 
HETATM   28  O1  UNL     1      26.704  10.548  49.416  1.00  0.00    -0.281 OA
ENDBRANCH   5  27
TORSDOF 4
ENDMDL
MODEL 9
REMARK VINA RESULT:      -8.4      3.353      6.994
REMARK  4 active torsions:
REMARK  status: ('A' for Active; 'I' for Inactive)
REMARK    1  A    between atoms: C7_8  and  S1_9 
REMARK    2  A    between atoms: S1_9  and  C8_10 
REMARK    3  A    between atoms: N3_14  and  C10_15 
REMARK    4  A    between atoms: C12_18  and  C13_19 
ROOT
HETATM    1  C8  UNL     1      23.988   0.238  52.992  1.00  0.00     0.100 A 
HETATM    2  N1  UNL     1      22.863  -0.079  52.485  1.00  0.00    -0.170 NA
HETATM    3  N2  UNL     1      22.249   0.689  51.463  1.00  0.00    -0.260 N 
HETATM    4  C9  UNL     1      22.992   1.832  51.069  1.00  0.00     0.153 A 
HETATM    5  N3  UNL     1      22.480   2.512  50.125  1.00  0.00    -0.202 NA
HETATM    6  C11 UNL     1      24.269   2.247  51.622  1.00  0.00    -0.004 A 
HETATM    7  C12 UNL     1      24.934   3.325  51.364  1.00  0.00     0.026 C 
HETATM    8  C19 UNL     1      24.895   1.347  52.656  1.00  0.00     0.111 A 
HETATM    9  H7  UNL     1      21.343   0.412  51.063  1.00  0.00     0.191 HD
ENDROOT
BRANCH   1  10
HETATM   10  S1  UNL     1      24.865  -0.631  54.280  1.00  0.00    -0.072 SA
BRANCH  10  11
HETATM   11  C7  UNL     1      26.607  -0.325  54.222  1.00  0.00     0.013 A 
HETATM   12  C2  UNL     1      27.218  -1.145  53.273  1.00  0.00    -0.042 A 
HETATM   13  C1  UNL     1      26.549  -2.168  52.390  1.00  0.00     0.049 C 
HETATM   14  C3  UNL     1      28.595  -1.093  53.034  1.00  0.00     0.050 A 
HETATM   15  C4  UNL     1      29.393  -0.213  53.749  1.00  0.00     0.117 A 
HETATM   16  F1  UNL     1      30.725  -0.059  53.621  1.00  0.00    -0.206 F 
HETATM   17  C5  UNL     1      28.761   0.585  54.680  1.00  0.00     0.043 A 
HETATM   18  C6  UNL     1      27.409   0.544  54.923  1.00  0.00     0.022 A 
ENDBRANCH  10  11
ENDBRANCH   1  10
BRANCH   7  19
HETATM   19  C13 UNL     1      24.828   4.512  50.550  1.00  0.00     0.008 A 
HETATM   20  C14 UNL     1      25.643   4.894  49.497  1.00  0.00     0.045 A 
HETATM   21 CL1  UNL     1      26.911   3.768  49.096  1.00  0.00    -0.083 Cl
HETATM   22  C15 UNL     1      25.491   6.070  48.795  1.00  0.00     0.025 A 
HETATM   23  C16 UNL     1      24.473   6.917  49.157  1.00  0.00     0.003 A 
HETATM   24  C17 UNL     1      23.628   6.592  50.199  1.00  0.00     0.025 A 
HETATM   25  C18 UNL     1      23.804   5.392  50.897  1.00  0.00     0.045 A 
HETATM   26 CL2  UNL     1      22.628   5.264  52.202  1.00  0.00    -0.083 Cl
ENDBRANCH   7  19
BRANCH   5  27
HETATM   27  C10 UNL     1      21.285   2.264  49.442  1.00  0.00     0.378 C 
HETATM   28  O1  UNL     1      20.115   2.100  49.930  1.00  0.00    -0.281 OA
ENDBRANCH   5  27
TORSDOF 4
ENDMDL
