MODEL 1
REMARK VINA RESULT:      -8.4      0.000      0.000
REMARK  8 active torsions:
REMARK  status: ('A' for Active; 'I' for Inactive)
REMARK    1  A    between atoms: O1_2  and  C2_3 
REMARK    2  A    between atoms: C2_3  and  C3_4 
REMARK    3  A    between atoms: C3_4  and  C4_5 
REMARK    4  A    between atoms: C4_5  and  C5_6 
REMARK    5  A    between atoms: C9_10  and  N1_11 
REMARK    6  A    between atoms: N1_11  and  O2_12 
REMARK    7  A    between atoms: N1_11  and  N2_13 
REMARK    8  A    between atoms: N2_13  and  C10_14 
ROOT
HETATM    1  C5  UNL     1      20.219   0.317  52.548  1.00  0.00     0.057 C 
HETATM    2  C6  UNL     1      21.375  -0.387  53.067  1.00  0.00     0.031 C 
HETATM    3  C7  UNL     1      22.373  -1.095  53.557  1.00  0.00     0.004 C 
HETATM    4  C8  UNL     1      23.708  -0.510  53.581  1.00  0.00     0.031 C 
HETATM    5  C9  UNL     1      24.401   0.582  53.292  1.00  0.00     0.082 C 
HETATM    6  C17 UNL     1      23.474   1.756  53.011  1.00  0.00     0.232 C 
HETATM    7  O3  UNL     1      23.501   2.263  51.882  1.00  0.00    -0.361 OA
HETATM    8  C18 UNL     1      23.790   2.845  50.806  1.00  0.00     0.344 C 
HETATM    9  O4  UNL     1      22.538   2.727  49.962  1.00  0.00    -0.338 OA
HETATM   10  C19 UNL     1      22.149   1.361  49.942  1.00  0.00     0.137 C 
HETATM   11  C20 UNL     1      21.000   0.673  49.979  1.00  0.00     0.026 C 
HETATM   12  C21 UNL     1      19.641   1.174  50.061  1.00  0.00     0.036 C 
HETATM   13  C22 UNL     1      19.694   2.017  51.064  1.00  0.00     0.086 C 
HETATM   14  N3  UNL     1      20.296   1.654  52.110  1.00  0.00    -0.247 NA
ENDROOT
BRANCH   5  15
HETATM   15  N1  UNL     1      25.786   1.016  53.365  1.00  0.00    -0.165 N 
BRANCH  15  16
HETATM   16  O2  UNL     1      26.148   1.530  54.582  1.00  0.00    -0.268 OA
HETATM   17  H10 UNL     1      26.864   2.190  54.400  1.00  0.00     0.247 HD
ENDBRANCH  15  16
BRANCH  15  18
HETATM   18  N2  UNL     1      26.592   0.870  52.236  1.00  0.00    -0.274 N 
HETATM   19  H11 UNL     1      26.370   1.146  51.277  1.00  0.00     0.189 HD
BRANCH  18  20
HETATM   20  C10 UNL     1      27.757   0.248  52.775  1.00  0.00     0.056 A 
HETATM   21  C11 UNL     1      28.845   0.925  53.309  1.00  0.00     0.031 A 
HETATM   22  C12 UNL     1      29.950   0.285  53.830  1.00  0.00     0.002 A 
HETATM   23  C13 UNL     1      30.002  -1.088  53.828  1.00  0.00     0.001 A 
HETATM   24  C14 UNL     1      28.949  -1.856  53.308  1.00  0.00     0.009 A 
HETATM   25  C15 UNL     1      27.868  -1.124  52.803  1.00  0.00    -0.034 A 
HETATM   26  C16 UNL     1      26.771  -1.973  52.259  1.00  0.00     0.050 C 
ENDBRANCH  18  20
ENDBRANCH  15  18
ENDBRANCH   5  15
BRANCH   1  27
HETATM   27  C4  UNL     1      18.950  -0.114  52.454  1.00  0.00     0.033 C 
BRANCH  27  28
HETATM   28  C3  UNL     1      17.632  -0.658  52.369  1.00  0.00     0.026 C 
BRANCH  28  29
HETATM   29  C2  UNL     1      16.417  -1.059  52.699  1.00  0.00     0.134 C 
BRANCH  29  30
HETATM   30  O1  UNL     1      15.601  -0.010  53.120  1.00  0.00    -0.368 OA
HETATM   31  C1  UNL     1      15.246   1.092  52.345  1.00  0.00     0.208 C 
ENDBRANCH  29  30
ENDBRANCH  28  29
ENDBRANCH  27  28
ENDBRANCH   1  27
TORSDOF 8
ENDMDL
MODEL 2
REMARK VINA RESULT:      -8.4      1.176      1.937
REMARK  8 active torsions:
REMARK  status: ('A' for Active; 'I' for Inactive)
REMARK    1  A    between atoms: O1_2  and  C2_3 
REMARK    2  A    between atoms: C2_3  and  C3_4 
REMARK    3  A    between atoms: C3_4  and  C4_5 
REMARK    4  A    between atoms: C4_5  and  C5_6 
REMARK    5  A    between atoms: C9_10  and  N1_11 
REMARK    6  A    between atoms: N1_11  and  O2_12 
REMARK    7  A    between atoms: N1_11  and  N2_13 
REMARK    8  A    between atoms: N2_13  and  C10_14 
ROOT
HETATM    1  C5  UNL     1      20.502   0.361  52.516  1.00  0.00     0.057 C 
HETATM    2  C6  UNL     1      21.747  -0.230  52.963  1.00  0.00     0.031 C 
HETATM    3  C7  UNL     1      22.835  -0.840  53.389  1.00  0.00     0.004 C 
HETATM    4  C8  UNL     1      24.105  -0.124  53.357  1.00  0.00     0.031 C 
HETATM    5  C9  UNL     1      24.670   1.036  53.054  1.00  0.00     0.082 C 
HETATM    6  C17 UNL     1      23.616   2.114  52.842  1.00  0.00     0.232 C 
HETATM    7  O3  UNL     1      23.534   2.637  51.723  1.00  0.00    -0.361 OA
HETATM    8  C18 UNL     1      23.708   3.260  50.645  1.00  0.00     0.344 C 
HETATM    9  O4  UNL     1      22.431   3.028  49.863  1.00  0.00    -0.338 OA
HETATM   10  C19 UNL     1      22.180   1.629  49.836  1.00  0.00     0.137 C 
HETATM   11  C20 UNL     1      21.109   0.830  49.919  1.00  0.00     0.026 C 
HETATM   12  C21 UNL     1      19.713   1.190  50.078  1.00  0.00     0.036 C 
HETATM   13  C22 UNL     1      19.734   2.020  51.093  1.00  0.00     0.086 C 
HETATM   14  N3  UNL     1      20.422   1.705  52.100  1.00  0.00    -0.247 NA
ENDROOT
BRANCH   5  15
HETATM   15  N1  UNL     1      26.006   1.606  53.065  1.00  0.00    -0.165 N 
BRANCH  15  16
HETATM   16  O2  UNL     1      26.378   2.182  51.878  1.00  0.00    -0.268 OA
HETATM   17  H10 UNL     1      25.551   2.560  51.485  1.00  0.00     0.247 HD
ENDBRANCH  15  16
BRANCH  15  18
HETATM   18  N2  UNL     1      26.757   1.527  54.237  1.00  0.00    -0.274 N 
HETATM   19  H11 UNL     1      26.617   2.060  55.099  1.00  0.00     0.189 HD
BRANCH  18  20
HETATM   20  C10 UNL     1      27.733   0.541  53.905  1.00  0.00     0.056 A 
HETATM   21  C11 UNL     1      27.448  -0.762  53.518  1.00  0.00     0.031 A 
HETATM   22  C12 UNL     1      28.423  -1.682  53.196  1.00  0.00     0.002 A 
HETATM   23  C13 UNL     1      29.747  -1.318  53.257  1.00  0.00     0.001 A 
HETATM   24  C14 UNL     1      30.129  -0.024  53.640  1.00  0.00     0.009 A 
HETATM   25  C15 UNL     1      29.075   0.844  53.947  1.00  0.00    -0.034 A 
HETATM   26  C16 UNL     1      29.520   2.209  54.349  1.00  0.00     0.050 C 
ENDBRANCH  18  20
ENDBRANCH  15  18
ENDBRANCH   5  15
BRANCH   1  27
HETATM   27  C4  UNL     1      19.279  -0.194  52.478  1.00  0.00     0.033 C 
BRANCH  27  28
HETATM   28  C3  UNL     1      17.963  -0.748  52.521  1.00  0.00     0.026 C 
BRANCH  28  29
HETATM   29  C2  UNL     1      16.957  -1.575  52.747  1.00  0.00     0.134 C 
BRANCH  29  30
HETATM   30  O1  UNL     1      17.319  -2.650  53.558  1.00  0.00    -0.368 OA
HETATM   31  C1  UNL     1      16.783  -3.934  53.476  1.00  0.00     0.208 C 
ENDBRANCH  29  30
ENDBRANCH  28  29
ENDBRANCH  27  28
ENDBRANCH   1  27
TORSDOF 8
ENDMDL
MODEL 3
REMARK VINA RESULT:      -8.0      4.074      8.706
REMARK  8 active torsions:
REMARK  status: ('A' for Active; 'I' for Inactive)
REMARK    1  A    between atoms: O1_2  and  C2_3 
REMARK    2  A    between atoms: C2_3  and  C3_4 
REMARK    3  A    between atoms: C3_4  and  C4_5 
REMARK    4  A    between atoms: C4_5  and  C5_6 
REMARK    5  A    between atoms: C9_10  and  N1_11 
REMARK    6  A    between atoms: N1_11  and  O2_12 
REMARK    7  A    between atoms: N1_11  and  N2_13 
REMARK    8  A    between atoms: N2_13  and  C10_14 
ROOT
HETATM    1  C5  UNL     1      26.548   5.087  48.957  1.00  0.00     0.057 C 
HETATM    2  C6  UNL     1      26.331   3.943  49.820  1.00  0.00     0.031 C 
HETATM    3  C7  UNL     1      26.221   2.890  50.605  1.00  0.00     0.004 C 
HETATM    4  C8  UNL     1      24.894   2.471  51.040  1.00  0.00     0.031 C 
HETATM    5  C9  UNL     1      23.601   2.741  50.938  1.00  0.00     0.082 C 
HETATM    6  C17 UNL     1      23.339   3.721  49.803  1.00  0.00     0.232 C 
HETATM    7  O3  UNL     1      22.852   4.825  50.085  1.00  0.00    -0.361 OA
HETATM    8  C18 UNL     1      22.139   5.791  50.454  1.00  0.00     0.344 C 
HETATM    9  O4  UNL     1      22.997   7.014  50.202  1.00  0.00    -0.338 OA
HETATM   10  C19 UNL     1      24.261   6.798  50.814  1.00  0.00     0.137 C 
HETATM   11  C20 UNL     1      25.542   7.055  50.523  1.00  0.00     0.026 C 
HETATM   12  C21 UNL     1      26.096   7.713  49.354  1.00  0.00     0.036 C 
HETATM   13  C22 UNL     1      25.526   7.079  48.358  1.00  0.00     0.086 C 
HETATM   14  N3  UNL     1      25.477   5.821  48.409  1.00  0.00    -0.247 NA
ENDROOT
BRANCH   5  15
HETATM   15  N1  UNL     1      22.356   2.214  51.470  1.00  0.00    -0.165 N 
BRANCH  15  16
HETATM   16  O2  UNL     1      21.732   3.048  52.361  1.00  0.00    -0.268 OA
HETATM   17  H10 UNL     1      21.840   2.629  53.253  1.00  0.00     0.247 HD
ENDBRANCH  15  16
BRANCH  15  18
HETATM   18  N2  UNL     1      21.922   0.962  51.038  1.00  0.00    -0.274 N 
HETATM   19  H11 UNL     1      21.701   0.680  50.080  1.00  0.00     0.189 HD
BRANCH  18  20
HETATM   20  C10 UNL     1      21.868   0.223  52.257  1.00  0.00     0.056 A 
HETATM   21  C11 UNL     1      22.971  -0.124  53.026  1.00  0.00     0.031 A 
HETATM   22  C12 UNL     1      22.874  -0.832  54.205  1.00  0.00     0.002 A 
HETATM   23  C13 UNL     1      21.640  -1.228  54.660  1.00  0.00     0.001 A 
HETATM   24  C14 UNL     1      20.470  -0.924  53.949  1.00  0.00     0.009 A 
HETATM   25  C15 UNL     1      20.661  -0.201  52.766  1.00  0.00    -0.034 A 
HETATM   26  C16 UNL     1      19.396   0.103  52.038  1.00  0.00     0.050 C 
ENDBRANCH  18  20
ENDBRANCH  15  18
ENDBRANCH   5  15
BRANCH   1  27
HETATM   27  C4  UNL     1      27.711   5.584  48.503  1.00  0.00     0.033 C 
BRANCH  27  28
HETATM   28  C3  UNL     1      28.991   6.052  48.074  1.00  0.00     0.026 C 
BRANCH  28  29
HETATM   29  C2  UNL     1      30.271   6.380  48.075  1.00  0.00     0.134 C 
BRANCH  29  30
HETATM   30  O1  UNL     1      31.035   5.559  48.902  1.00  0.00    -0.368 OA
HETATM   31  C1  UNL     1      32.326   5.841  49.344  1.00  0.00     0.208 C 
ENDBRANCH  29  30
ENDBRANCH  28  29
ENDBRANCH  27  28
ENDBRANCH   1  27
TORSDOF 8
ENDMDL
MODEL 4
REMARK VINA RESULT:      -7.7      5.071      8.602
REMARK  8 active torsions:
REMARK  status: ('A' for Active; 'I' for Inactive)
REMARK    1  A    between atoms: O1_2  and  C2_3 
REMARK    2  A    between atoms: C2_3  and  C3_4 
REMARK    3  A    between atoms: C3_4  and  C4_5 
REMARK    4  A    between atoms: C4_5  and  C5_6 
REMARK    5  A    between atoms: C9_10  and  N1_11 
REMARK    6  A    between atoms: N1_11  and  O2_12 
REMARK    7  A    between atoms: N1_11  and  N2_13 
REMARK    8  A    between atoms: N2_13  and  C10_14 
ROOT
HETATM    1  C5  UNL     1      25.704   2.488  51.476  1.00  0.00     0.057 C 
HETATM    2  C6  UNL     1      26.256   3.240  50.368  1.00  0.00     0.031 C 
HETATM    3  C7  UNL     1      26.815   3.859  49.347  1.00  0.00     0.004 C 
HETATM    4  C8  UNL     1      26.296   5.159  48.940  1.00  0.00     0.031 C 
HETATM    5  C9  UNL     1      25.395   6.087  49.227  1.00  0.00     0.082 C 
HETATM    6  C17 UNL     1      24.780   5.842  50.598  1.00  0.00     0.232 C 
HETATM    7  O3  UNL     1      23.565   5.611  50.660  1.00  0.00    -0.361 OA
HETATM    8  C18 UNL     1      22.309   5.638  50.624  1.00  0.00     0.344 C 
HETATM    9  O4  UNL     1      21.886   4.266  51.108  1.00  0.00    -0.338 OA
HETATM   10  C19 UNL     1      22.592   3.295  50.348  1.00  0.00     0.137 C 
HETATM   11  C20 UNL     1      23.176   2.112  50.579  1.00  0.00     0.026 C 
HETATM   12  C21 UNL     1      23.276   1.373  51.823  1.00  0.00     0.036 C 
HETATM   13  C22 UNL     1      23.728   2.270  52.667  1.00  0.00     0.086 C 
HETATM   14  N3  UNL     1      24.679   3.006  52.293  1.00  0.00    -0.247 NA
ENDROOT
BRANCH   5  15
HETATM   15  N1  UNL     1      24.979   7.372  48.691  1.00  0.00    -0.165 N 
BRANCH  15  16
HETATM   16  O2  UNL     1      24.796   7.378  47.333  1.00  0.00    -0.268 OA
HETATM   17  H10 UNL     1      24.299   8.211  47.126  1.00  0.00     0.247 HD
ENDBRANCH  15  16
BRANCH  15  18
HETATM   18  N2  UNL     1      24.803   8.438  49.572  1.00  0.00    -0.274 N 
HETATM   19  H11 UNL     1      23.995   8.617  50.174  1.00  0.00     0.189 HD
BRANCH  18  20
HETATM   20  C10 UNL     1      26.011   9.176  49.399  1.00  0.00     0.056 A 
HETATM   21  C11 UNL     1      27.237   8.838  49.958  1.00  0.00     0.031 A 
HETATM   22  C12 UNL     1      28.385   9.575  49.758  1.00  0.00     0.002 A 
HETATM   23  C13 UNL     1      28.340  10.703  48.975  1.00  0.00     0.001 A 
HETATM   24  C14 UNL     1      27.145  11.123  48.371  1.00  0.00     0.009 A 
HETATM   25  C15 UNL     1      26.031  10.315  48.626  1.00  0.00    -0.034 A 
HETATM   26  C16 UNL     1      24.781  10.792  47.968  1.00  0.00     0.050 C 
ENDBRANCH  18  20
ENDBRANCH  15  18
ENDBRANCH   5  15
BRANCH   1  27
HETATM   27  C4  UNL     1      26.077   1.281  51.937  1.00  0.00     0.033 C 
BRANCH  27  28
HETATM   28  C3  UNL     1      26.561   0.026  52.418  1.00  0.00     0.026 C 
BRANCH  28  29
HETATM   29  C2  UNL     1      27.311  -0.882  53.017  1.00  0.00     0.134 C 
BRANCH  29  30
HETATM   30  O1  UNL     1      27.553  -0.581  54.356  1.00  0.00    -0.368 OA
HETATM   31  C1  UNL     1      28.653   0.128  54.833  1.00  0.00     0.208 C 
ENDBRANCH  29  30
ENDBRANCH  28  29
ENDBRANCH  27  28
ENDBRANCH   1  27
TORSDOF 8
ENDMDL
MODEL 5
REMARK VINA RESULT:      -7.6      2.078      8.608
REMARK  8 active torsions:
REMARK  status: ('A' for Active; 'I' for Inactive)
REMARK    1  A    between atoms: O1_2  and  C2_3 
REMARK    2  A    between atoms: C2_3  and  C3_4 
REMARK    3  A    between atoms: C3_4  and  C4_5 
REMARK    4  A    between atoms: C4_5  and  C5_6 
REMARK    5  A    between atoms: C9_10  and  N1_11 
REMARK    6  A    between atoms: N1_11  and  O2_12 
REMARK    7  A    between atoms: N1_11  and  N2_13 
REMARK    8  A    between atoms: N2_13  and  C10_14 
ROOT
HETATM    1  C5  UNL     1      23.710   0.604  52.885  1.00  0.00     0.057 C 
HETATM    2  C6  UNL     1      22.545   0.023  53.521  1.00  0.00     0.031 C 
HETATM    3  C7  UNL     1      21.537  -0.528  54.167  1.00  0.00     0.004 C 
HETATM    4  C8  UNL     1      20.218  -0.532  53.545  1.00  0.00     0.031 C 
HETATM    5  C9  UNL     1      19.549  -0.182  52.456  1.00  0.00     0.082 C 
HETATM    6  C17 UNL     1      20.503   0.189  51.328  1.00  0.00     0.232 C 
HETATM    7  O3  UNL     1      20.472   1.349  50.896  1.00  0.00    -0.361 OA
HETATM    8  C18 UNL     1      20.180   2.457  50.378  1.00  0.00     0.344 C 
HETATM    9  O4  UNL     1      21.415   3.309  50.586  1.00  0.00    -0.338 OA
HETATM   10  C19 UNL     1      21.767   3.245  51.961  1.00  0.00     0.137 C 
HETATM   11  C20 UNL     1      22.897   3.179  52.676  1.00  0.00     0.026 C 
HETATM   12  C21 UNL     1      24.270   3.150  52.209  1.00  0.00     0.036 C 
HETATM   13  C22 UNL     1      24.256   2.204  51.301  1.00  0.00     0.086 C 
HETATM   14  N3  UNL     1      23.662   1.128  51.578  1.00  0.00    -0.247 NA
ENDROOT
BRANCH   5  15
HETATM   15  N1  UNL     1      18.179  -0.246  51.980  1.00  0.00    -0.165 N 
BRANCH  15  16
HETATM   16  O2  UNL     1      18.061  -0.254  50.614  1.00  0.00    -0.268 OA
HETATM   17  H10 UNL     1      18.053   0.696  50.333  1.00  0.00     0.247 HD
ENDBRANCH  15  16
BRANCH  15  18
HETATM   18  N2  UNL     1      17.147  -0.299  52.917  1.00  0.00    -0.274 N 
HETATM   19  H11 UNL     1      16.768   0.478  53.464  1.00  0.00     0.189 HD
BRANCH  18  20
HETATM   20  C10 UNL     1      16.794  -1.680  52.900  1.00  0.00     0.056 A 
HETATM   21  C11 UNL     1      17.532  -2.698  53.491  1.00  0.00     0.031 A 
HETATM   22  C12 UNL     1      17.149  -4.022  53.459  1.00  0.00     0.002 A 
HETATM   23  C13 UNL     1      15.988  -4.378  52.816  1.00  0.00     0.001 A 
HETATM   24  C14 UNL     1      15.179  -3.418  52.189  1.00  0.00     0.009 A 
HETATM   25  C15 UNL     1      15.643  -2.100  52.272  1.00  0.00    -0.034 A 
HETATM   26  C16 UNL     1      14.758  -1.110  51.595  1.00  0.00     0.050 C 
ENDBRANCH  18  20
ENDBRANCH  15  18
ENDBRANCH   5  15
BRANCH   1  27
HETATM   27  C4  UNL     1      24.966   0.688  53.356  1.00  0.00     0.033 C 
BRANCH  27  28
HETATM   28  C3  UNL     1      26.307   0.686  53.847  1.00  0.00     0.026 C 
BRANCH  28  29
HETATM   29  C2  UNL     1      27.361   0.470  54.615  1.00  0.00     0.134 C 
BRANCH  29  30
HETATM   30  O1  UNL     1      28.247   1.546  54.624  1.00  0.00    -0.368 OA
HETATM   31  C1  UNL     1      28.510   2.380  53.539  1.00  0.00     0.208 C 
ENDBRANCH  29  30
ENDBRANCH  28  29
ENDBRANCH  27  28
ENDBRANCH   1  27
TORSDOF 8
ENDMDL
MODEL 6
REMARK VINA RESULT:      -7.6      3.924      8.450
REMARK  8 active torsions:
REMARK  status: ('A' for Active; 'I' for Inactive)
REMARK    1  A    between atoms: O1_2  and  C2_3 
REMARK    2  A    between atoms: C2_3  and  C3_4 
REMARK    3  A    between atoms: C3_4  and  C4_5 
REMARK    4  A    between atoms: C4_5  and  C5_6 
REMARK    5  A    between atoms: C9_10  and  N1_11 
REMARK    6  A    between atoms: N1_11  and  O2_12 
REMARK    7  A    between atoms: N1_11  and  N2_13 
REMARK    8  A    between atoms: N2_13  and  C10_14 
ROOT
HETATM    1  C5  UNL     1      25.756   2.303  51.654  1.00  0.00     0.057 C 
HETATM    2  C6  UNL     1      26.093   3.239  50.601  1.00  0.00     0.031 C 
HETATM    3  C7  UNL     1      26.459   4.032  49.613  1.00  0.00     0.004 C 
HETATM    4  C8  UNL     1      25.814   5.333  49.478  1.00  0.00     0.031 C 
HETATM    5  C9  UNL     1      24.917   6.142  50.021  1.00  0.00     0.082 C 
HETATM    6  C17 UNL     1      24.529   5.666  51.415  1.00  0.00     0.232 C 
HETATM    7  O3  UNL     1      23.351   5.338  51.612  1.00  0.00    -0.361 OA
HETATM    8  C18 UNL     1      22.104   5.274  51.758  1.00  0.00     0.344 C 
HETATM    9  O4  UNL     1      21.835   3.821  52.091  1.00  0.00    -0.338 OA
HETATM   10  C19 UNL     1      22.471   3.019  51.105  1.00  0.00     0.137 C 
HETATM   11  C20 UNL     1      23.147   1.864  51.076  1.00  0.00     0.026 C 
HETATM   12  C21 UNL     1      23.473   0.971  52.173  1.00  0.00     0.036 C 
HETATM   13  C22 UNL     1      23.997   1.776  53.066  1.00  0.00     0.086 C 
HETATM   14  N3  UNL     1      24.839   2.626  52.674  1.00  0.00    -0.247 NA
ENDROOT
BRANCH   5  15
HETATM   15  N1  UNL     1      24.355   7.453  49.743  1.00  0.00    -0.165 N 
BRANCH  15  16
HETATM   16  O2  UNL     1      24.470   8.342  50.780  1.00  0.00    -0.268 OA
HETATM   17  H10 UNL     1      23.964   7.950  51.536  1.00  0.00     0.247 HD
ENDBRANCH  15  16
BRANCH  15  18
HETATM   18  N2  UNL     1      23.781   7.682  48.494  1.00  0.00    -0.274 N 
HETATM   19  H11 UNL     1      24.258   7.971  47.636  1.00  0.00     0.189 HD
BRANCH  18  20
HETATM   20  C10 UNL     1      22.402   7.417  48.742  1.00  0.00     0.056 A 
HETATM   21  C11 UNL     1      21.555   8.234  49.480  1.00  0.00     0.031 A 
HETATM   22  C12 UNL     1      20.223   7.945  49.689  1.00  0.00     0.002 A 
HETATM   23  C13 UNL     1      19.684   6.800  49.154  1.00  0.00     0.001 A 
HETATM   24  C14 UNL     1      20.464   5.914  48.395  1.00  0.00     0.009 A 
HETATM   25  C15 UNL     1      21.804   6.286  48.233  1.00  0.00    -0.034 A 
HETATM   26  C16 UNL     1      22.600   5.322  47.422  1.00  0.00     0.050 C 
ENDBRANCH  18  20
ENDBRANCH  15  18
ENDBRANCH   5  15
BRANCH   1  27
HETATM   27  C4  UNL     1      26.260   1.077  51.876  1.00  0.00     0.033 C 
BRANCH  27  28
HETATM   28  C3  UNL     1      26.768  -0.218  52.199  1.00  0.00     0.026 C 
BRANCH  28  29
HETATM   29  C2  UNL     1      27.245  -1.244  52.884  1.00  0.00     0.134 C 
BRANCH  29  30
HETATM   30  O1  UNL     1      27.605  -0.899  54.186  1.00  0.00    -0.368 OA
HETATM   31  C1  UNL     1      28.667  -0.067  54.532  1.00  0.00     0.208 C 
ENDBRANCH  29  30
ENDBRANCH  28  29
ENDBRANCH  27  28
ENDBRANCH   1  27
TORSDOF 8
ENDMDL
MODEL 7
REMARK VINA RESULT:      -7.4      2.825      8.201
REMARK  8 active torsions:
REMARK  status: ('A' for Active; 'I' for Inactive)
REMARK    1  A    between atoms: O1_2  and  C2_3 
REMARK    2  A    between atoms: C2_3  and  C3_4 
REMARK    3  A    between atoms: C3_4  and  C4_5 
REMARK    4  A    between atoms: C4_5  and  C5_6 
REMARK    5  A    between atoms: C9_10  and  N1_11 
REMARK    6  A    between atoms: N1_11  and  O2_12 
REMARK    7  A    between atoms: N1_11  and  N2_13 
REMARK    8  A    between atoms: N2_13  and  C10_14 
ROOT
HETATM    1  C5  UNL     1      26.926   1.974  52.451  1.00  0.00     0.057 C 
HETATM    2  C6  UNL     1      26.703   2.549  51.140  1.00  0.00     0.031 C 
HETATM    3  C7  UNL     1      26.579   3.043  49.924  1.00  0.00     0.004 C 
HETATM    4  C8  UNL     1      25.354   3.751  49.572  1.00  0.00     0.031 C 
HETATM    5  C9  UNL     1      24.185   4.163  50.041  1.00  0.00     0.082 C 
HETATM    6  C17 UNL     1      24.140   4.051  51.560  1.00  0.00     0.232 C 
HETATM    7  O3  UNL     1      23.304   3.289  52.063  1.00  0.00    -0.361 OA
HETATM    8  C18 UNL     1      22.272   2.692  52.461  1.00  0.00     0.344 C 
HETATM    9  O4  UNL     1      22.797   1.490  53.218  1.00  0.00    -0.338 OA
HETATM   10  C19 UNL     1      23.724   0.813  52.381  1.00  0.00     0.137 C 
HETATM   11  C20 UNL     1      24.896   0.183  52.533  1.00  0.00     0.026 C 
HETATM   12  C21 UNL     1      25.667  -0.026  53.744  1.00  0.00     0.036 C 
HETATM   13  C22 UNL     1      25.730   1.174  54.267  1.00  0.00     0.086 C 
HETATM   14  N3  UNL     1      26.005   2.139  53.504  1.00  0.00    -0.247 NA
ENDROOT
BRANCH   5  15
HETATM   15  N1  UNL     1      23.023   4.872  49.535  1.00  0.00    -0.165 N 
BRANCH  15  16
HETATM   16  O2  UNL     1      22.617   5.916  50.325  1.00  0.00    -0.268 OA
HETATM   17  H10 UNL     1      22.476   6.684  49.714  1.00  0.00     0.247 HD
ENDBRANCH  15  16
BRANCH  15  18
HETATM   18  N2  UNL     1      22.452   4.448  48.336  1.00  0.00    -0.274 N 
HETATM   19  H11 UNL     1      22.567   4.872  47.412  1.00  0.00     0.189 HD
BRANCH  18  20
HETATM   20  C10 UNL     1      21.692   3.314  48.746  1.00  0.00     0.056 A 
HETATM   21  C11 UNL     1      22.187   2.021  48.855  1.00  0.00     0.031 A 
HETATM   22  C12 UNL     1      21.419   0.952  49.265  1.00  0.00     0.002 A 
HETATM   23  C13 UNL     1      20.097   1.148  49.585  1.00  0.00     0.001 A 
HETATM   24  C14 UNL     1      19.510   2.420  49.503  1.00  0.00     0.009 A 
HETATM   25  C15 UNL     1      20.362   3.446  49.080  1.00  0.00    -0.034 A 
HETATM   26  C16 UNL     1      19.703   4.781  49.006  1.00  0.00     0.050 C 
ENDBRANCH  18  20
ENDBRANCH  15  18
ENDBRANCH   5  15
BRANCH   1  27
HETATM   27  C4  UNL     1      27.994   1.288  52.893  1.00  0.00     0.033 C 
BRANCH  27  28
HETATM   28  C3  UNL     1      29.072   0.511  53.417  1.00  0.00     0.026 C 
BRANCH  28  29
HETATM   29  C2  UNL     1      29.824  -0.520  53.761  1.00  0.00     0.134 C 
BRANCH  29  30
HETATM   30  O1  UNL     1      29.096  -1.704  53.865  1.00  0.00    -0.368 OA
HETATM   31  C1  UNL     1      28.402  -2.315  52.822  1.00  0.00     0.208 C 
ENDBRANCH  29  30
ENDBRANCH  28  29
ENDBRANCH  27  28
ENDBRANCH   1  27
TORSDOF 8
ENDMDL
MODEL 8
REMARK VINA RESULT:      -7.3      4.864      8.924
REMARK  8 active torsions:
REMARK  status: ('A' for Active; 'I' for Inactive)
REMARK    1  A    between atoms: O1_2  and  C2_3 
REMARK    2  A    between atoms: C2_3  and  C3_4 
REMARK    3  A    between atoms: C3_4  and  C4_5 
REMARK    4  A    between atoms: C4_5  and  C5_6 
REMARK    5  A    between atoms: C9_10  and  N1_11 
REMARK    6  A    between atoms: N1_11  and  O2_12 
REMARK    7  A    between atoms: N1_11  and  N2_13 
REMARK    8  A    between atoms: N2_13  and  C10_14 
ROOT
HETATM    1  C5  UNL     1      26.109   6.499  48.409  1.00  0.00     0.057 C 
HETATM    2  C6  UNL     1      26.237   5.175  48.983  1.00  0.00     0.031 C 
HETATM    3  C7  UNL     1      26.439   3.974  49.488  1.00  0.00     0.004 C 
HETATM    4  C8  UNL     1      25.303   3.233  50.022  1.00  0.00     0.031 C 
HETATM    5  C9  UNL     1      23.992   3.277  50.211  1.00  0.00     0.082 C 
HETATM    6  C17 UNL     1      23.367   4.417  49.418  1.00  0.00     0.232 C 
HETATM    7  O3  UNL     1      22.802   5.323  50.045  1.00  0.00    -0.361 OA
HETATM    8  C18 UNL     1      22.054   6.038  50.758  1.00  0.00     0.344 C 
HETATM    9  O4  UNL     1      22.663   7.422  50.677  1.00  0.00    -0.338 OA
HETATM   10  C19 UNL     1      24.045   7.314  50.993  1.00  0.00     0.137 C 
HETATM   11  C20 UNL     1      25.189   7.859  50.563  1.00  0.00     0.026 C 
HETATM   12  C21 UNL     1      25.391   8.846  49.519  1.00  0.00     0.036 C 
HETATM   13  C22 UNL     1      24.720   8.351  48.507  1.00  0.00     0.086 C 
HETATM   14  N3  UNL     1      24.857   7.125  48.250  1.00  0.00    -0.247 NA
ENDROOT
BRANCH   5  15
HETATM   15  N1  UNL     1      22.971   2.428  50.798  1.00  0.00    -0.165 N 
BRANCH  15  16
HETATM   16  O2  UNL     1      22.551   1.411  49.981  1.00  0.00    -0.268 OA
HETATM   17  H10 UNL     1      23.248   1.312  49.284  1.00  0.00     0.247 HD
ENDBRANCH  15  16
BRANCH  15  18
HETATM   18  N2  UNL     1      22.532   2.707  52.092  1.00  0.00    -0.274 N 
HETATM   19  H11 UNL     1      22.101   3.573  52.427  1.00  0.00     0.189 HD
BRANCH  18  20
HETATM   20  C10 UNL     1      22.847   1.501  52.785  1.00  0.00     0.056 A 
HETATM   21  C11 UNL     1      24.132   1.032  53.024  1.00  0.00     0.031 A 
HETATM   22  C12 UNL     1      24.393  -0.136  53.707  1.00  0.00     0.002 A 
HETATM   23  C13 UNL     1      23.349  -0.893  54.182  1.00  0.00     0.001 A 
HETATM   24  C14 UNL     1      22.017  -0.499  53.987  1.00  0.00     0.009 A 
HETATM   25  C15 UNL     1      21.845   0.700  53.285  1.00  0.00    -0.034 A 
HETATM   26  C16 UNL     1      20.417   1.085  53.098  1.00  0.00     0.050 C 
ENDBRANCH  18  20
ENDBRANCH  15  18
ENDBRANCH   5  15
BRANCH   1  27
HETATM   27  C4  UNL     1      27.072   7.288  47.903  1.00  0.00     0.033 C 
BRANCH  27  28
HETATM   28  C3  UNL     1      28.118   8.058  47.308  1.00  0.00     0.026 C 
BRANCH  28  29
HETATM   29  C2  UNL     1      28.926   8.593  46.409  1.00  0.00     0.134 C 
BRANCH  29  30
HETATM   30  O1  UNL     1      30.225   8.761  46.887  1.00  0.00    -0.368 OA
HETATM   31  C1  UNL     1      30.599   9.629  47.910  1.00  0.00     0.208 C 
ENDBRANCH  29  30
ENDBRANCH  28  29
ENDBRANCH  27  28
ENDBRANCH   1  27
TORSDOF 8
ENDMDL
MODEL 9
REMARK VINA RESULT:      -7.3      3.282      5.445
REMARK  8 active torsions:
REMARK  status: ('A' for Active; 'I' for Inactive)
REMARK    1  A    between atoms: O1_2  and  C2_3 
REMARK    2  A    between atoms: C2_3  and  C3_4 
REMARK    3  A    between atoms: C3_4  and  C4_5 
REMARK    4  A    between atoms: C4_5  and  C5_6 
REMARK    5  A    between atoms: C9_10  and  N1_11 
REMARK    6  A    between atoms: N1_11  and  O2_12 
REMARK    7  A    between atoms: N1_11  and  N2_13 
REMARK    8  A    between atoms: N2_13  and  C10_14 
ROOT
HETATM    1  C5  UNL     1      20.132   1.248  51.551  1.00  0.00     0.057 C 
HETATM    2  C6  UNL     1      20.190   2.695  51.498  1.00  0.00     0.031 C 
HETATM    3  C7  UNL     1      20.159   4.012  51.473  1.00  0.00     0.004 C 
HETATM    4  C8  UNL     1      21.372   4.741  51.118  1.00  0.00     0.031 C 
HETATM    5  C9  UNL     1      22.636   4.595  50.750  1.00  0.00     0.082 C 
HETATM    6  C17 UNL     1      22.921   3.156  50.343  1.00  0.00     0.232 C 
HETATM    7  O3  UNL     1      23.750   2.516  51.003  1.00  0.00    -0.361 OA
HETATM    8  C18 UNL     1      24.771   2.058  51.576  1.00  0.00     0.344 C 
HETATM    9  O4  UNL     1      24.264   0.861  52.354  1.00  0.00    -0.338 OA
HETATM   10  C19 UNL     1      23.150   1.281  53.130  1.00  0.00     0.137 C 
HETATM   11  C20 UNL     1      21.964   0.773  53.488  1.00  0.00     0.026 C 
HETATM   12  C21 UNL     1      21.387  -0.515  53.154  1.00  0.00     0.036 C 
HETATM   13  C22 UNL     1      21.528  -0.576  51.852  1.00  0.00     0.086 C 
HETATM   14  N3  UNL     1      21.226   0.444  51.176  1.00  0.00    -0.247 NA
ENDROOT
BRANCH   5  15
HETATM   15  N1  UNL     1      23.762   5.458  50.439  1.00  0.00    -0.165 N 
BRANCH  15  16
HETATM   16  O2  UNL     1      24.568   5.735  51.512  1.00  0.00    -0.268 OA
HETATM   17  H10 UNL     1      25.230   4.998  51.555  1.00  0.00     0.247 HD
ENDBRANCH  15  16
BRANCH  15  18
HETATM   18  N2  UNL     1      23.920   5.903  49.127  1.00  0.00    -0.274 N 
HETATM   19  H11 UNL     1      23.190   6.254  48.500  1.00  0.00     0.189 HD
BRANCH  18  20
HETATM   20  C10 UNL     1      25.320   5.734  48.916  1.00  0.00     0.056 A 
HETATM   21  C11 UNL     1      26.022   4.558  49.143  1.00  0.00     0.031 A 
HETATM   22  C12 UNL     1      27.377   4.434  48.917  1.00  0.00     0.002 A 
HETATM   23  C13 UNL     1      28.088   5.511  48.447  1.00  0.00     0.001 A 
HETATM   24  C14 UNL     1      27.463   6.740  48.190  1.00  0.00     0.009 A 
HETATM   25  C15 UNL     1      26.087   6.776  48.446  1.00  0.00    -0.034 A 
HETATM   26  C16 UNL     1      25.459   8.097  48.161  1.00  0.00     0.050 C 
ENDBRANCH  18  20
ENDBRANCH  15  18
ENDBRANCH   5  15
BRANCH   1  27
HETATM   27  C4  UNL     1      19.090   0.464  51.877  1.00  0.00     0.033 C 
BRANCH  27  28
HETATM   28  C3  UNL     1      18.037  -0.410  52.287  1.00  0.00     0.026 C 
BRANCH  28  29
HETATM   29  C2  UNL     1      17.297  -1.226  53.017  1.00  0.00     0.134 C 
BRANCH  29  30
HETATM   30  O1  UNL     1      17.961  -2.408  53.340  1.00  0.00    -0.368 OA
HETATM   31  C1  UNL     1      17.344  -3.624  53.625  1.00  0.00     0.208 C 
ENDBRANCH  29  30
ENDBRANCH  28  29
ENDBRANCH  27  28
ENDBRANCH   1  27
TORSDOF 8
ENDMDL
