MODEL 1
REMARK VINA RESULT:      -6.8      0.000      0.000
REMARK  4 active torsions:
REMARK  status: ('A' for Active; 'I' for Inactive)
REMARK    1  A    between atoms: C5_6  and  C6_7 
REMARK    2  A    between atoms: C7_8  and  C8_9 
REMARK    3  A    between atoms: C8_9  and  C9_10 
REMARK    4  A    between atoms: C9_10  and  N2_11 
ROOT
HETATM    1  C1  UNL     1      16.782   0.414  50.462  1.00  0.00     0.038 C 
HETATM    2  C2  UNL     1      17.398  -0.184  51.644  1.00  0.00     0.001 C 
HETATM    3  C3  UNL     1      18.688  -0.229  51.930  1.00  0.00     0.054 C 
HETATM    4  N1  UNL     1      19.629   0.346  51.039  1.00  0.00    -0.339 N 
HETATM    5  C4  UNL     1      20.928   0.865  51.377  1.00  0.00     0.137 C 
HETATM    6  C5  UNL     1      21.706   1.242  50.377  1.00  0.00     0.115 C 
HETATM    7  N3  UNL     1      21.460   1.011  52.713  1.00  0.00    -0.224 NA
HETATM    8  C14 UNL     1      21.082   0.379  53.797  1.00  0.00     0.235 C 
HETATM    9  N4  UNL     1      20.063  -0.601  53.936  1.00  0.00    -0.245 NA
HETATM   10  C15 UNL     1      19.048  -0.900  53.195  1.00  0.00     0.058 C 
HETATM   11  C16 UNL     1      18.159  -2.017  53.638  1.00  0.00     0.073 C 
HETATM   12  H5  UNL     1      19.336   0.389  50.055  1.00  0.00     0.167 HD
ENDROOT
BRANCH   6  13
HETATM   13  C6  UNL     1      23.003   1.760  50.712  1.00  0.00    -0.075 C 
HETATM   14  C7  UNL     1      24.098   2.175  50.998  1.00  0.00    -0.100 C 
BRANCH  14  15
HETATM   15  C8  UNL     1      25.431   2.655  51.346  1.00  0.00     0.124 C 
BRANCH  15  16
HETATM   16  C9  UNL     1      26.421   1.570  51.647  1.00  0.00     0.284 C 
BRANCH  16  17
HETATM   17  N2  UNL     1      26.104   0.717  52.741  1.00  0.00     0.093 N 
HETATM   18  C10 UNL     1      26.382   1.284  54.022  1.00  0.00     0.298 C 
HETATM   19  C11 UNL     1      26.734   0.200  55.044  1.00  0.00     0.198 C 
HETATM   20  O1  UNL     1      27.890  -0.478  54.734  1.00  0.00    -0.388 OA
HETATM   21  C12 UNL     1      28.202  -0.392  53.370  1.00  0.00     0.198 C 
HETATM   22  C13 UNL     1      26.913  -0.484  52.593  1.00  0.00     0.298 C 
ENDBRANCH  16  17
ENDBRANCH  15  16
ENDBRANCH  14  15
ENDBRANCH   6  13
TORSDOF 4
ENDMDL
MODEL 2
REMARK VINA RESULT:      -6.8      5.580      7.704
REMARK  4 active torsions:
REMARK  status: ('A' for Active; 'I' for Inactive)
REMARK    1  A    between atoms: C5_6  and  C6_7 
REMARK    2  A    between atoms: C7_8  and  C8_9 
REMARK    3  A    between atoms: C8_9  and  C9_10 
REMARK    4  A    between atoms: C9_10  and  N2_11 
ROOT
HETATM    1  C1  UNL     1      22.174   1.406  52.754  1.00  0.00     0.038 C 
HETATM    2  C2  UNL     1      23.493   0.864  53.071  1.00  0.00     0.001 C 
HETATM    3  C3  UNL     1      24.623   1.093  52.424  1.00  0.00     0.054 C 
HETATM    4  N1  UNL     1      24.627   1.945  51.291  1.00  0.00    -0.339 N 
HETATM    5  C4  UNL     1      25.737   2.718  50.800  1.00  0.00     0.137 C 
HETATM    6  C5  UNL     1      25.571   3.352  49.652  1.00  0.00     0.115 C 
HETATM    7  N3  UNL     1      27.020   2.863  51.449  1.00  0.00    -0.224 NA
HETATM    8  C14 UNL     1      27.560   2.068  52.340  1.00  0.00     0.235 C 
HETATM    9  N4  UNL     1      27.028   0.871  52.890  1.00  0.00    -0.245 NA
HETATM   10  C15 UNL     1      25.822   0.414  52.953  1.00  0.00     0.058 C 
HETATM   11  C16 UNL     1      25.607  -0.914  53.607  1.00  0.00     0.073 C 
HETATM   12  H5  UNL     1      23.737   2.007  50.782  1.00  0.00     0.167 HD
ENDROOT
BRANCH   6  13
HETATM   13  C6  UNL     1      26.678   4.123  49.159  1.00  0.00    -0.075 C 
HETATM   14  C7  UNL     1      27.602   4.786  48.759  1.00  0.00    -0.100 C 
BRANCH  14  15
HETATM   15  C8  UNL     1      28.715   5.605  48.292  1.00  0.00     0.124 C 
BRANCH  15  16
HETATM   16  C9  UNL     1      28.403   7.065  48.172  1.00  0.00     0.284 C 
BRANCH  16  17
HETATM   17  N2  UNL     1      29.177   7.942  48.985  1.00  0.00     0.093 N 
HETATM   18  C10 UNL     1      28.952   9.328  48.726  1.00  0.00     0.298 C 
HETATM   19  C11 UNL     1      30.205  10.157  49.014  1.00  0.00     0.198 C 
HETATM   20  O1  UNL     1      31.261   9.843  48.190  1.00  0.00    -0.388 OA
HETATM   21  C12 UNL     1      31.139   8.559  47.643  1.00  0.00     0.198 C 
HETATM   22  C13 UNL     1      30.576   7.652  48.709  1.00  0.00     0.298 C 
ENDBRANCH  16  17
ENDBRANCH  15  16
ENDBRANCH  14  15
ENDBRANCH   6  13
TORSDOF 4
ENDMDL
MODEL 3
REMARK VINA RESULT:      -6.8      4.199      6.878
REMARK  4 active torsions:
REMARK  status: ('A' for Active; 'I' for Inactive)
REMARK    1  A    between atoms: C5_6  and  C6_7 
REMARK    2  A    between atoms: C7_8  and  C8_9 
REMARK    3  A    between atoms: C8_9  and  C9_10 
REMARK    4  A    between atoms: C9_10  and  N2_11 
ROOT
HETATM    1  C1  UNL     1      23.876   7.687  48.168  1.00  0.00     0.038 C 
HETATM    2  C2  UNL     1      25.178   7.024  48.150  1.00  0.00     0.001 C 
HETATM    3  C3  UNL     1      25.594   6.067  48.962  1.00  0.00     0.054 C 
HETATM    4  N1  UNL     1      24.736   5.587  49.983  1.00  0.00    -0.339 N 
HETATM    5  C4  UNL     1      24.761   4.279  50.584  1.00  0.00     0.137 C 
HETATM    6  C5  UNL     1      23.957   4.071  51.612  1.00  0.00     0.115 C 
HETATM    7  N3  UNL     1      25.588   3.171  50.163  1.00  0.00    -0.224 NA
HETATM    8  C14 UNL     1      26.699   3.220  49.470  1.00  0.00     0.235 C 
HETATM    9  N4  UNL     1      27.369   4.365  48.959  1.00  0.00    -0.245 NA
HETATM   10  C15 UNL     1      26.963   5.569  48.729  1.00  0.00     0.058 C 
HETATM   11  C16 UNL     1      27.951   6.552  48.186  1.00  0.00     0.073 C 
HETATM   12  H5  UNL     1      24.028   6.254  50.316  1.00  0.00     0.167 HD
ENDROOT
BRANCH   6  13
HETATM   13  C6  UNL     1      23.981   2.767  52.214  1.00  0.00    -0.075 C 
HETATM   14  C7  UNL     1      23.999   1.664  52.699  1.00  0.00    -0.100 C 
BRANCH  14  15
HETATM   15  C8  UNL     1      24.020   0.319  53.264  1.00  0.00     0.124 C 
BRANCH  15  16
HETATM   16  C9  UNL     1      25.261  -0.007  54.038  1.00  0.00     0.284 C 
BRANCH  16  17
HETATM   17  N2  UNL     1      26.482   0.009  53.304  1.00  0.00     0.093 N 
HETATM   18  C10 UNL     1      27.118  -1.266  53.204  1.00  0.00     0.298 C 
HETATM   19  C11 UNL     1      28.639  -1.119  53.103  1.00  0.00     0.198 C 
HETATM   20  O1  UNL     1      29.203  -0.564  54.227  1.00  0.00    -0.388 OA
HETATM   21  C12 UNL     1      28.277   0.179  54.970  1.00  0.00     0.198 C 
HETATM   22  C13 UNL     1      27.385   0.912  54.000  1.00  0.00     0.298 C 
ENDBRANCH  16  17
ENDBRANCH  15  16
ENDBRANCH  14  15
ENDBRANCH   6  13
TORSDOF 4
ENDMDL
MODEL 4
REMARK VINA RESULT:      -6.6      5.400      9.076
REMARK  4 active torsions:
REMARK  status: ('A' for Active; 'I' for Inactive)
REMARK    1  A    between atoms: C5_6  and  C6_7 
REMARK    2  A    between atoms: C7_8  and  C8_9 
REMARK    3  A    between atoms: C8_9  and  C9_10 
REMARK    4  A    between atoms: C9_10  and  N2_11 
ROOT
HETATM    1  C1  UNL     1      26.042   8.904  45.739  1.00  0.00     0.038 C 
HETATM    2  C2  UNL     1      27.411   8.641  46.174  1.00  0.00     0.001 C 
HETATM    3  C3  UNL     1      27.794   7.833  47.148  1.00  0.00     0.054 C 
HETATM    4  N1  UNL     1      26.824   7.114  47.890  1.00  0.00    -0.339 N 
HETATM    5  C4  UNL     1      27.016   5.860  48.570  1.00  0.00     0.137 C 
HETATM    6  C5  UNL     1      26.018   5.417  49.314  1.00  0.00     0.115 C 
HETATM    7  N3  UNL     1      28.206   5.041  48.514  1.00  0.00    -0.224 NA
HETATM    8  C14 UNL     1      29.421   5.415  48.195  1.00  0.00     0.235 C 
HETATM    9  N4  UNL     1      29.875   6.710  47.827  1.00  0.00    -0.245 NA
HETATM   10  C15 UNL     1      29.249   7.751  47.388  1.00  0.00     0.058 C 
HETATM   11  C16 UNL     1      30.046   8.983  47.100  1.00  0.00     0.073 C 
HETATM   12  H5  UNL     1      25.892   7.546  47.935  1.00  0.00     0.167 HD
ENDROOT
BRANCH   6  13
HETATM   13  C6  UNL     1      26.208   4.166  49.995  1.00  0.00    -0.075 C 
HETATM   14  C7  UNL     1      26.389   3.119  50.564  1.00  0.00    -0.100 C 
BRANCH  14  15
HETATM   15  C8  UNL     1      26.631   1.858  51.256  1.00  0.00     0.124 C 
BRANCH  15  16
HETATM   16  C9  UNL     1      25.989   1.758  52.606  1.00  0.00     0.284 C 
BRANCH  16  17
HETATM   17  N2  UNL     1      26.873   1.741  53.722  1.00  0.00     0.093 N 
HETATM   18  C10 UNL     1      28.254   1.647  53.371  1.00  0.00     0.298 C 
HETATM   19  C11 UNL     1      29.054   0.923  54.457  1.00  0.00     0.198 C 
HETATM   20  O1  UNL     1      28.673  -0.387  54.625  1.00  0.00    -0.388 OA
HETATM   21  C12 UNL     1      27.372  -0.622  54.160  1.00  0.00     0.198 C 
HETATM   22  C13 UNL     1      26.528   0.575  54.520  1.00  0.00     0.298 C 
ENDBRANCH  16  17
ENDBRANCH  15  16
ENDBRANCH  14  15
ENDBRANCH   6  13
TORSDOF 4
ENDMDL
MODEL 5
REMARK VINA RESULT:      -6.5      5.779      9.821
REMARK  4 active torsions:
REMARK  status: ('A' for Active; 'I' for Inactive)
REMARK    1  A    between atoms: C5_6  and  C6_7 
REMARK    2  A    between atoms: C7_8  and  C8_9 
REMARK    3  A    between atoms: C8_9  and  C9_10 
REMARK    4  A    between atoms: C9_10  and  N2_11 
ROOT
HETATM    1  C1  UNL     1      27.972   9.107  45.117  1.00  0.00     0.038 C 
HETATM    2  C2  UNL     1      29.165   8.726  45.870  1.00  0.00     0.001 C 
HETATM    3  C3  UNL     1      29.220   7.930  46.923  1.00  0.00     0.054 C 
HETATM    4  N1  UNL     1      28.030   7.349  47.430  1.00  0.00    -0.339 N 
HETATM    5  C4  UNL     1      27.919   6.116  48.164  1.00  0.00     0.137 C 
HETATM    6  C5  UNL     1      26.733   5.812  48.660  1.00  0.00     0.115 C 
HETATM    7  N3  UNL     1      28.992   5.177  48.407  1.00  0.00    -0.224 NA
HETATM    8  C14 UNL     1      30.281   5.410  48.376  1.00  0.00     0.235 C 
HETATM    9  N4  UNL     1      30.948   6.633  48.098  1.00  0.00    -0.245 NA
HETATM   10  C15 UNL     1      30.560   7.710  47.502  1.00  0.00     0.058 C 
HETATM   11  C16 UNL     1      31.533   8.840  47.384  1.00  0.00     0.073 C 
HETATM   12  H5  UNL     1      27.167   7.876  47.245  1.00  0.00     0.167 HD
ENDROOT
BRANCH   6  13
HETATM   13  C6  UNL     1      26.620   4.582  49.393  1.00  0.00    -0.075 C 
HETATM   14  C7  UNL     1      26.524   3.539  49.989  1.00  0.00    -0.100 C 
BRANCH  14  15
HETATM   15  C8  UNL     1      26.408   2.265  50.691  1.00  0.00     0.124 C 
BRANCH  15  16
HETATM   16  C9  UNL     1      27.077   2.233  52.031  1.00  0.00     0.284 C 
BRANCH  16  17
HETATM   17  N2  UNL     1      27.523   0.957  52.480  1.00  0.00     0.093 N 
HETATM   18  C10 UNL     1      26.713  -0.133  52.038  1.00  0.00     0.298 C 
HETATM   19  C11 UNL     1      26.736  -1.285  53.046  1.00  0.00     0.198 C 
HETATM   20  O1  UNL     1      26.189  -0.948  54.262  1.00  0.00    -0.388 OA
HETATM   21  C12 UNL     1      26.197   0.436  54.479  1.00  0.00     0.198 C 
HETATM   22  C13 UNL     1      27.492   0.983  53.935  1.00  0.00     0.298 C 
ENDBRANCH  16  17
ENDBRANCH  15  16
ENDBRANCH  14  15
ENDBRANCH   6  13
TORSDOF 4
ENDMDL
MODEL 6
REMARK VINA RESULT:      -6.4      2.034      3.225
REMARK  4 active torsions:
REMARK  status: ('A' for Active; 'I' for Inactive)
REMARK    1  A    between atoms: C5_6  and  C6_7 
REMARK    2  A    between atoms: C7_8  and  C8_9 
REMARK    3  A    between atoms: C8_9  and  C9_10 
REMARK    4  A    between atoms: C9_10  and  N2_11 
ROOT
HETATM    1  C1  UNL     1      17.530   0.211  50.098  1.00  0.00     0.038 C 
HETATM    2  C2  UNL     1      18.172   1.509  50.286  1.00  0.00     0.001 C 
HETATM    3  C3  UNL     1      19.217   1.776  51.051  1.00  0.00     0.054 C 
HETATM    4  N1  UNL     1      19.829   0.737  51.796  1.00  0.00    -0.339 N 
HETATM    5  C4  UNL     1      21.200   0.682  52.229  1.00  0.00     0.137 C 
HETATM    6  C5  UNL     1      21.543  -0.316  53.025  1.00  0.00     0.115 C 
HETATM    7  N3  UNL     1      22.239   1.621  51.870  1.00  0.00    -0.224 NA
HETATM    8  C14 UNL     1      22.093   2.852  51.447  1.00  0.00     0.235 C 
HETATM    9  N4  UNL     1      20.887   3.573  51.234  1.00  0.00    -0.245 NA
HETATM   10  C15 UNL     1      19.668   3.182  51.064  1.00  0.00     0.058 C 
HETATM   11  C16 UNL     1      18.615   4.225  50.870  1.00  0.00     0.073 C 
HETATM   12  H5  UNL     1      19.216  -0.049  52.043  1.00  0.00     0.167 HD
ENDROOT
BRANCH   6  13
HETATM   13  C6  UNL     1      22.911  -0.373  53.459  1.00  0.00    -0.075 C 
HETATM   14  C7  UNL     1      24.062  -0.437  53.809  1.00  0.00    -0.100 C 
BRANCH  14  15
HETATM   15  C8  UNL     1      25.461  -0.529  54.215  1.00  0.00     0.124 C 
BRANCH  15  16
HETATM   16  C9  UNL     1      26.413  -0.813  53.093  1.00  0.00     0.284 C 
BRANCH  16  17
HETATM   17  N2  UNL     1      27.671  -0.149  53.154  1.00  0.00     0.093 N 
HETATM   18  C10 UNL     1      28.140   0.092  54.481  1.00  0.00     0.298 C 
HETATM   19  C11 UNL     1      29.008   1.351  54.542  1.00  0.00     0.198 C 
HETATM   20  O1  UNL     1      28.315   2.498  54.233  1.00  0.00    -0.388 OA
HETATM   21  C12 UNL     1      27.168   2.233  53.472  1.00  0.00     0.198 C 
HETATM   22  C13 UNL     1      27.505   1.137  52.493  1.00  0.00     0.298 C 
ENDBRANCH  16  17
ENDBRANCH  15  16
ENDBRANCH  14  15
ENDBRANCH   6  13
TORSDOF 4
ENDMDL
MODEL 7
REMARK VINA RESULT:      -6.3      2.888      7.655
REMARK  4 active torsions:
REMARK  status: ('A' for Active; 'I' for Inactive)
REMARK    1  A    between atoms: C5_6  and  C6_7 
REMARK    2  A    between atoms: C7_8  and  C8_9 
REMARK    3  A    between atoms: C8_9  and  C9_10 
REMARK    4  A    between atoms: C9_10  and  N2_11 
ROOT
HETATM    1  C1  UNL     1      28.581   2.003  53.637  1.00  0.00     0.038 C 
HETATM    2  C2  UNL     1      27.711   2.502  52.575  1.00  0.00     0.001 C 
HETATM    3  C3  UNL     1      26.532   2.018  52.220  1.00  0.00     0.054 C 
HETATM    4  N1  UNL     1      25.998   0.895  52.900  1.00  0.00    -0.339 N 
HETATM    5  C4  UNL     1      24.605   0.562  53.047  1.00  0.00     0.137 C 
HETATM    6  C5  UNL     1      24.318  -0.600  53.609  1.00  0.00     0.115 C 
HETATM    7  N3  UNL     1      23.490   1.384  52.634  1.00  0.00    -0.224 NA
HETATM    8  C14 UNL     1      23.491   2.343  51.741  1.00  0.00     0.235 C 
HETATM    9  N4  UNL     1      24.578   2.816  50.958  1.00  0.00    -0.245 NA
HETATM   10  C15 UNL     1      25.856   2.711  51.106  1.00  0.00     0.058 C 
HETATM   11  C16 UNL     1      26.738   3.332  50.070  1.00  0.00     0.073 C 
HETATM   12  H5  UNL     1      26.689   0.266  53.326  1.00  0.00     0.167 HD
ENDROOT
BRANCH   6  13
HETATM   13  C6  UNL     1      22.930  -0.935  53.756  1.00  0.00    -0.075 C 
HETATM   14  C7  UNL     1      21.759  -1.202  53.865  1.00  0.00    -0.100 C 
BRANCH  14  15
HETATM   15  C8  UNL     1      20.338  -1.510  53.979  1.00  0.00     0.124 C 
BRANCH  15  16
HETATM   16  C9  UNL     1      19.429  -0.443  53.449  1.00  0.00     0.284 C 
BRANCH  16  17
HETATM   17  N2  UNL     1      19.963   0.383  52.419  1.00  0.00     0.093 N 
HETATM   18  C10 UNL     1      19.974   1.776  52.735  1.00  0.00     0.298 C 
HETATM   19  C11 UNL     1      19.836   2.632  51.474  1.00  0.00     0.198 C 
HETATM   20  O1  UNL     1      18.632   2.457  50.833  1.00  0.00    -0.388 OA
HETATM   21  C12 UNL     1      18.035   1.231  51.157  1.00  0.00     0.198 C 
HETATM   22  C13 UNL     1      19.126   0.193  51.244  1.00  0.00     0.298 C 
ENDBRANCH  16  17
ENDBRANCH  15  16
ENDBRANCH  14  15
ENDBRANCH   6  13
TORSDOF 4
ENDMDL
MODEL 8
REMARK VINA RESULT:      -6.3      4.823      7.217
REMARK  4 active torsions:
REMARK  status: ('A' for Active; 'I' for Inactive)
REMARK    1  A    between atoms: C5_6  and  C6_7 
REMARK    2  A    between atoms: C7_8  and  C8_9 
REMARK    3  A    between atoms: C8_9  and  C9_10 
REMARK    4  A    between atoms: C9_10  and  N2_11 
ROOT
HETATM    1  C1  UNL     1      22.634  -0.511  53.960  1.00  0.00     0.038 C 
HETATM    2  C2  UNL     1      24.063  -0.486  53.661  1.00  0.00     0.001 C 
HETATM    3  C3  UNL     1      24.666   0.217  52.717  1.00  0.00     0.054 C 
HETATM    4  N1  UNL     1      23.902   1.056  51.868  1.00  0.00    -0.339 N 
HETATM    5  C4  UNL     1      24.361   2.239  51.188  1.00  0.00     0.137 C 
HETATM    6  C5  UNL     1      23.525   2.811  50.339  1.00  0.00     0.115 C 
HETATM    7  N3  UNL     1      25.656   2.860  51.352  1.00  0.00    -0.224 NA
HETATM    8  C14 UNL     1      26.757   2.307  51.799  1.00  0.00     0.235 C 
HETATM    9  N4  UNL     1      26.957   0.970  52.234  1.00  0.00    -0.245 NA
HETATM   10  C15 UNL     1      26.130   0.058  52.625  1.00  0.00     0.058 C 
HETATM   11  C16 UNL     1      26.685  -1.275  53.015  1.00  0.00     0.073 C 
HETATM   12  H5  UNL     1      22.922   0.778  51.736  1.00  0.00     0.167 HD
ENDROOT
BRANCH   6  13
HETATM   13  C6  UNL     1      23.981   3.991  49.659  1.00  0.00    -0.075 C 
HETATM   14  C7  UNL     1      24.379   4.984  49.104  1.00  0.00    -0.100 C 
BRANCH  14  15
HETATM   15  C8  UNL     1      24.879   6.187  48.447  1.00  0.00     0.124 C 
BRANCH  15  16
HETATM   16  C9  UNL     1      26.354   6.407  48.597  1.00  0.00     0.284 C 
BRANCH  16  17
HETATM   17  N2  UNL     1      26.836   7.698  48.239  1.00  0.00     0.093 N 
HETATM   18  C10 UNL     1      28.124   8.009  48.773  1.00  0.00     0.298 C 
HETATM   19  C11 UNL     1      28.278   9.513  49.008  1.00  0.00     0.198 C 
HETATM   20  O1  UNL     1      27.410  10.002  49.956  1.00  0.00    -0.388 OA
HETATM   21  C12 UNL     1      26.289   9.177  50.120  1.00  0.00     0.198 C 
HETATM   22  C13 UNL     1      25.885   8.668  48.760  1.00  0.00     0.298 C 
ENDBRANCH  16  17
ENDBRANCH  15  16
ENDBRANCH  14  15
ENDBRANCH   6  13
TORSDOF 4
ENDMDL
MODEL 9
REMARK VINA RESULT:      -6.3      6.256      8.105
REMARK  4 active torsions:
REMARK  status: ('A' for Active; 'I' for Inactive)
REMARK    1  A    between atoms: C5_6  and  C6_7 
REMARK    2  A    between atoms: C7_8  and  C8_9 
REMARK    3  A    between atoms: C8_9  and  C9_10 
REMARK    4  A    between atoms: C9_10  and  N2_11 
ROOT
HETATM    1  C1  UNL     1      22.439   1.981  49.552  1.00  0.00     0.038 C 
HETATM    2  C2  UNL     1      22.543   3.168  50.397  1.00  0.00     0.001 C 
HETATM    3  C3  UNL     1      23.609   3.931  50.567  1.00  0.00     0.054 C 
HETATM    4  N1  UNL     1      24.813   3.622  49.887  1.00  0.00    -0.339 N 
HETATM    5  C4  UNL     1      25.853   4.545  49.515  1.00  0.00     0.137 C 
HETATM    6  C5  UNL     1      26.958   4.036  48.998  1.00  0.00     0.115 C 
HETATM    7  N3  UNL     1      25.798   5.983  49.655  1.00  0.00    -0.224 NA
HETATM    8  C14 UNL     1      25.032   6.679  50.459  1.00  0.00     0.235 C 
HETATM    9  N4  UNL     1      24.070   6.203  51.390  1.00  0.00    -0.245 NA
HETATM   10  C15 UNL     1      23.447   5.076  51.485  1.00  0.00     0.058 C 
HETATM   11  C16 UNL     1      22.484   4.897  52.615  1.00  0.00     0.073 C 
HETATM   12  H5  UNL     1      24.941   2.632  49.641  1.00  0.00     0.167 HD
ENDROOT
BRANCH   6  13
HETATM   13  C6  UNL     1      27.996   4.955  48.626  1.00  0.00    -0.075 C 
HETATM   14  C7  UNL     1      28.863   5.739  48.331  1.00  0.00    -0.100 C 
BRANCH  14  15
HETATM   15  C8  UNL     1      29.908   6.700  47.994  1.00  0.00     0.124 C 
BRANCH  15  16
HETATM   16  C9  UNL     1      31.231   6.428  48.642  1.00  0.00     0.284 C 
BRANCH  16  17
HETATM   17  N2  UNL     1      32.323   6.181  47.762  1.00  0.00     0.093 N 
HETATM   18  C10 UNL     1      32.001   6.329  46.378  1.00  0.00     0.298 C 
HETATM   19  C11 UNL     1      32.861   5.409  45.508  1.00  0.00     0.198 C 
HETATM   20  O1  UNL     1      32.638   4.074  45.750  1.00  0.00    -0.388 OA
HETATM   21  C12 UNL     1      32.086   3.853  47.019  1.00  0.00     0.198 C 
HETATM   22  C13 UNL     1      32.746   4.806  47.983  1.00  0.00     0.298 C 
ENDBRANCH  16  17
ENDBRANCH  15  16
ENDBRANCH  14  15
ENDBRANCH   6  13
TORSDOF 4
ENDMDL
