MODEL 1
REMARK VINA RESULT:      -8.0      0.000      0.000
REMARK  1 active torsions:
REMARK  status: ('A' for Active; 'I' for Inactive)
REMARK    1  A    between atoms: C12_15  and  N4_16 
ROOT
HETATM    1  C1  UNL     1      22.928   3.828  50.218  1.00  0.00     0.144 C 
HETATM    2  N1  UNL     1      22.061   3.502  51.275  1.00  0.00    -0.406 N 
HETATM    3  C2  UNL     1      22.503   3.274  52.553  1.00  0.00     0.119 C 
HETATM    4  C3  UNL     1      23.303   2.027  52.785  1.00  0.00     0.039 C 
HETATM    5  C4  UNL     1      22.608   0.732  52.585  1.00  0.00     0.023 A 
HETATM    6  C5  UNL     1      22.042   0.415  51.298  1.00  0.00    -0.010 C 
HETATM    7  C6  UNL     1      21.384   0.597  50.185  1.00  0.00     0.010 C 
HETATM    8  C7  UNL     1      20.706   1.793  49.738  1.00  0.00     0.208 C 
HETATM    9  N2  UNL     1      20.284   3.040  49.775  1.00  0.00    -0.301 NA
HETATM   10  C8  UNL     1      20.711   3.770  50.986  1.00  0.00     0.202 C 
HETATM   11  C9  UNL     1      21.453   0.785  53.590  1.00  0.00     0.008 A 
HETATM   12  C10 UNL     1      21.023   0.181  54.690  1.00  0.00     0.113 A 
HETATM   13  N3  UNL     1      21.905  -0.881  55.107  1.00  0.00    -0.275 NA
HETATM   14  C11 UNL     1      22.926  -1.035  54.334  1.00  0.00     0.115 A 
HETATM   15  C12 UNL     1      23.454  -0.402  53.100  1.00  0.00     0.140 A 
ENDROOT
BRANCH  15  16
HETATM   16  N4  UNL     1      24.846  -0.159  53.252  1.00  0.00    -0.376 N 
HETATM   17  C13 UNL     1      25.367  -0.186  54.600  1.00  0.00     0.088 A 
HETATM   18  C14 UNL     1      26.637   0.018  54.914  1.00  0.00     0.040 A 
HETATM   19  C15 UNL     1      27.616   0.293  53.874  1.00  0.00     0.033 A 
HETATM   20 CL1  UNL     1      29.303   0.574  54.171  1.00  0.00    -0.085 Cl
HETATM   21  C16 UNL     1      27.103   0.312  52.644  1.00  0.00     0.017 A 
HETATM   22  C17 UNL     1      25.742   0.109  52.139  1.00  0.00     0.152 A 
ENDBRANCH  15  16
TORSDOF 1
ENDMDL
MODEL 2
REMARK VINA RESULT:      -7.6      1.507      1.984
REMARK  1 active torsions:
REMARK  status: ('A' for Active; 'I' for Inactive)
REMARK    1  A    between atoms: C12_15  and  N4_16 
ROOT
HETATM    1  C1  UNL     1      24.574   5.335  50.845  1.00  0.00     0.144 C 
HETATM    2  N1  UNL     1      23.353   4.952  51.425  1.00  0.00    -0.406 N 
HETATM    3  C2  UNL     1      23.276   4.309  52.635  1.00  0.00     0.119 C 
HETATM    4  C3  UNL     1      23.777   2.897  52.688  1.00  0.00     0.039 C 
HETATM    5  C4  UNL     1      23.044   1.890  51.883  1.00  0.00     0.023 A 
HETATM    6  C5  UNL     1      22.941   2.052  50.455  1.00  0.00    -0.010 C 
HETATM    7  C6  UNL     1      22.753   2.658  49.314  1.00  0.00     0.010 C 
HETATM    8  C7  UNL     1      22.436   4.050  49.088  1.00  0.00     0.208 C 
HETATM    9  N2  UNL     1      22.188   5.308  49.391  1.00  0.00    -0.301 NA
HETATM   10  C8  UNL     1      22.240   5.585  50.841  1.00  0.00     0.202 C 
HETATM   11  C9  UNL     1      21.621   1.942  52.451  1.00  0.00     0.008 A 
HETATM   12  C10 UNL     1      20.755   1.189  53.114  1.00  0.00     0.113 A 
HETATM   13  N3  UNL     1      21.289  -0.116  53.417  1.00  0.00    -0.275 NA
HETATM   14  C11 UNL     1      22.491  -0.293  52.985  1.00  0.00     0.115 A 
HETATM   15  C12 UNL     1      23.501   0.500  52.240  1.00  0.00     0.140 A 
ENDROOT
BRANCH  15  16
HETATM   16  N4  UNL     1      24.764   0.374  52.878  1.00  0.00    -0.376 N 
HETATM   17  C13 UNL     1      25.929   0.690  52.083  1.00  0.00     0.088 A 
HETATM   18  C14 UNL     1      27.175   0.627  52.526  1.00  0.00     0.040 A 
HETATM   19  C15 UNL     1      27.449   0.218  53.895  1.00  0.00     0.033 A 
HETATM   20 CL1  UNL     1      29.040   0.102  54.580  1.00  0.00    -0.085 Cl
HETATM   21  C16 UNL     1      26.354  -0.067  54.600  1.00  0.00     0.017 A 
HETATM   22  C17 UNL     1      24.928  -0.048  54.260  1.00  0.00     0.152 A 
ENDBRANCH  15  16
TORSDOF 1
ENDMDL
MODEL 3
REMARK VINA RESULT:      -7.0      2.843      4.842
REMARK  1 active torsions:
REMARK  status: ('A' for Active; 'I' for Inactive)
REMARK    1  A    between atoms: C12_15  and  N4_16 
ROOT
HETATM    1  C1  UNL     1      20.538   3.671  48.480  1.00  0.00     0.144 C 
HETATM    2  N1  UNL     1      21.886   3.611  48.091  1.00  0.00    -0.406 N 
HETATM    3  C2  UNL     1      22.694   2.541  48.379  1.00  0.00     0.119 C 
HETATM    4  C3  UNL     1      23.070   2.339  49.817  1.00  0.00     0.039 C 
HETATM    5  C4  UNL     1      23.903   3.390  50.451  1.00  0.00     0.023 A 
HETATM    6  C5  UNL     1      23.416   4.744  50.521  1.00  0.00    -0.010 C 
HETATM    7  C6  UNL     1      22.856   5.853  50.119  1.00  0.00     0.010 C 
HETATM    8  C7  UNL     1      22.290   6.145  48.822  1.00  0.00     0.208 C 
HETATM    9  N2  UNL     1      21.919   5.926  47.577  1.00  0.00    -0.301 NA
HETATM   10  C8  UNL     1      22.221   4.558  47.106  1.00  0.00     0.202 C 
HETATM   11  C9  UNL     1      25.174   3.407  49.595  1.00  0.00     0.008 A 
HETATM   12  C10 UNL     1      26.471   3.145  49.682  1.00  0.00     0.113 A 
HETATM   13  N3  UNL     1      26.848   2.697  51.000  1.00  0.00    -0.275 NA
HETATM   14  C11 UNL     1      25.860   2.643  51.827  1.00  0.00     0.115 A 
HETATM   15  C12 UNL     1      24.403   2.924  51.793  1.00  0.00     0.140 A 
ENDROOT
BRANCH  15  16
HETATM   16  N4  UNL     1      23.701   1.856  52.414  1.00  0.00    -0.376 N 
HETATM   17  C13 UNL     1      24.461   0.662  52.709  1.00  0.00     0.088 A 
HETATM   18  C14 UNL     1      23.960  -0.419  53.286  1.00  0.00     0.040 A 
HETATM   19  C15 UNL     1      22.558  -0.465  53.669  1.00  0.00     0.033 A 
HETATM   20 CL1  UNL     1      21.797  -1.827  54.430  1.00  0.00    -0.085 Cl
HETATM   21  C16 UNL     1      21.885   0.651  53.382  1.00  0.00     0.017 A 
HETATM   22  C17 UNL     1      22.289   1.912  52.755  1.00  0.00     0.152 A 
ENDBRANCH  15  16
TORSDOF 1
ENDMDL
MODEL 4
REMARK VINA RESULT:      -6.9      2.840      4.782
REMARK  1 active torsions:
REMARK  status: ('A' for Active; 'I' for Inactive)
REMARK    1  A    between atoms: C12_15  and  N4_16 
ROOT
HETATM    1  C1  UNL     1      21.276   4.185  49.656  1.00  0.00     0.144 C 
HETATM    2  N1  UNL     1      22.613   3.784  49.494  1.00  0.00    -0.406 N 
HETATM    3  C2  UNL     1      23.010   2.474  49.582  1.00  0.00     0.119 C 
HETATM    4  C3  UNL     1      22.953   1.835  50.938  1.00  0.00     0.039 C 
HETATM    5  C4  UNL     1      23.852   2.384  51.981  1.00  0.00     0.023 A 
HETATM    6  C5  UNL     1      23.741   3.768  52.366  1.00  0.00    -0.010 C 
HETATM    7  C6  UNL     1      23.613   5.059  52.224  1.00  0.00     0.010 C 
HETATM    8  C7  UNL     1      23.483   5.810  50.996  1.00  0.00     0.208 C 
HETATM    9  N2  UNL     1      23.386   6.016  49.698  1.00  0.00    -0.301 NA
HETATM   10  C8  UNL     1      23.419   4.773  48.901  1.00  0.00     0.202 C 
HETATM   11  C9  UNL     1      25.252   2.187  51.390  1.00  0.00     0.008 A 
HETATM   12  C10 UNL     1      26.370   1.508  51.608  1.00  0.00     0.113 A 
HETATM   13  N3  UNL     1      26.277   0.670  52.778  1.00  0.00    -0.275 NA
HETATM   14  C11 UNL     1      25.138   0.748  53.378  1.00  0.00     0.115 A 
HETATM   15  C12 UNL     1      23.864   1.484  53.189  1.00  0.00     0.140 A 
ENDROOT
BRANCH  15  16
HETATM   16  N4  UNL     1      22.773   0.587  53.343  1.00  0.00    -0.376 N 
HETATM   17  C13 UNL     1      21.459   1.176  53.470  1.00  0.00     0.088 A 
HETATM   18  C14 UNL     1      20.340   0.482  53.617  1.00  0.00     0.040 A 
HETATM   19  C15 UNL     1      20.377  -0.971  53.660  1.00  0.00     0.033 A 
HETATM   20 CL1  UNL     1      18.976  -1.979  53.848  1.00  0.00    -0.085 Cl
HETATM   21  C16 UNL     1      21.604  -1.482  53.542  1.00  0.00     0.017 A 
HETATM   22  C17 UNL     1      22.920  -0.859  53.375  1.00  0.00     0.152 A 
ENDBRANCH  15  16
TORSDOF 1
ENDMDL
MODEL 5
REMARK VINA RESULT:      -6.6      2.223      3.936
REMARK  1 active torsions:
REMARK  status: ('A' for Active; 'I' for Inactive)
REMARK    1  A    between atoms: C12_15  and  N4_16 
ROOT
HETATM    1  C1  UNL     1      23.992   6.237  51.565  1.00  0.00     0.144 C 
HETATM    2  N1  UNL     1      22.653   5.962  51.239  1.00  0.00    -0.406 N 
HETATM    3  C2  UNL     1      21.903   5.030  51.910  1.00  0.00     0.119 C 
HETATM    4  C3  UNL     1      22.276   3.590  51.718  1.00  0.00     0.039 C 
HETATM    5  C4  UNL     1      22.117   3.027  50.356  1.00  0.00     0.023 A 
HETATM    6  C5  UNL     1      22.838   3.608  49.252  1.00  0.00    -0.010 C 
HETATM    7  C6  UNL     1      23.331   4.540  48.482  1.00  0.00     0.010 C 
HETATM    8  C7  UNL     1      23.206   5.972  48.629  1.00  0.00     0.208 C 
HETATM    9  N2  UNL     1      22.840   7.114  49.174  1.00  0.00    -0.301 NA
HETATM   10  C8  UNL     1      22.068   6.948  50.423  1.00  0.00     0.202 C 
HETATM   11  C9  UNL     1      20.622   3.203  50.066  1.00  0.00     0.008 A 
HETATM   12  C10 UNL     1      19.527   2.485  49.861  1.00  0.00     0.113 A 
HETATM   13  N3  UNL     1      19.787   1.067  49.918  1.00  0.00    -0.275 NA
HETATM   14  C11 UNL     1      21.023   0.780  50.153  1.00  0.00     0.115 A 
HETATM   15  C12 UNL     1      22.283   1.530  50.384  1.00  0.00     0.140 A 
ENDROOT
BRANCH  15  16
HETATM   16  N4  UNL     1      22.966   0.973  51.499  1.00  0.00    -0.376 N 
HETATM   17  C13 UNL     1      22.201   0.100  52.360  1.00  0.00     0.088 A 
HETATM   18  C14 UNL     1      22.686  -0.501  53.436  1.00  0.00     0.040 A 
HETATM   19  C15 UNL     1      24.074  -0.304  53.824  1.00  0.00     0.033 A 
HETATM   20 CL1  UNL     1      24.815  -1.041  55.211  1.00  0.00    -0.085 Cl
HETATM   21  C16 UNL     1      24.751   0.507  53.009  1.00  0.00     0.017 A 
HETATM   22  C17 UNL     1      24.364   1.237  51.799  1.00  0.00     0.152 A 
ENDBRANCH  15  16
TORSDOF 1
ENDMDL
MODEL 6
REMARK VINA RESULT:      -6.6      2.434      4.260
REMARK  1 active torsions:
REMARK  status: ('A' for Active; 'I' for Inactive)
REMARK    1  A    between atoms: C12_15  and  N4_16 
ROOT
HETATM    1  C1  UNL     1      20.064   0.574  50.903  1.00  0.00     0.144 C 
HETATM    2  N1  UNL     1      20.398   1.506  49.907  1.00  0.00    -0.406 N 
HETATM    3  C2  UNL     1      21.633   1.545  49.311  1.00  0.00     0.119 C 
HETATM    4  C3  UNL     1      22.784   1.997  50.160  1.00  0.00     0.039 C 
HETATM    5  C4  UNL     1      22.756   3.398  50.645  1.00  0.00     0.023 A 
HETATM    6  C5  UNL     1      21.663   3.849  51.469  1.00  0.00    -0.010 C 
HETATM    7  C6  UNL     1      20.430   4.003  51.868  1.00  0.00     0.010 C 
HETATM    8  C7  UNL     1      19.226   3.486  51.258  1.00  0.00     0.208 C 
HETATM    9  N2  UNL     1      18.486   2.823  50.392  1.00  0.00    -0.301 NA
HETATM   10  C8  UNL     1      19.275   2.142  49.345  1.00  0.00     0.202 C 
HETATM   11  C9  UNL     1      22.726   4.225  49.355  1.00  0.00     0.008 A 
HETATM   12  C10 UNL     1      23.466   5.089  48.675  1.00  0.00     0.113 A 
HETATM   13  N3  UNL     1      24.718   5.370  49.334  1.00  0.00    -0.275 NA
HETATM   14  C11 UNL     1      24.868   4.734  50.446  1.00  0.00     0.115 A 
HETATM   15  C12 UNL     1      24.083   3.768  51.255  1.00  0.00     0.140 A 
ENDROOT
BRANCH  15  16
HETATM   16  N4  UNL     1      24.928   2.704  51.670  1.00  0.00    -0.376 N 
HETATM   17  C13 UNL     1      24.509   1.956  52.834  1.00  0.00     0.088 A 
HETATM   18  C14 UNL     1      25.179   0.936  53.348  1.00  0.00     0.040 A 
HETATM   19  C15 UNL     1      26.426   0.496  52.742  1.00  0.00     0.033 A 
HETATM   20 CL1  UNL     1      27.384  -0.827  53.330  1.00  0.00    -0.085 Cl
HETATM   21  C16 UNL     1      26.784   1.207  51.672  1.00  0.00     0.017 A 
HETATM   22  C17 UNL     1      26.162   2.346  50.990  1.00  0.00     0.152 A 
ENDBRANCH  15  16
TORSDOF 1
ENDMDL
MODEL 7
REMARK VINA RESULT:      -6.5      2.816      4.309
REMARK  1 active torsions:
REMARK  status: ('A' for Active; 'I' for Inactive)
REMARK    1  A    between atoms: C12_15  and  N4_16 
ROOT
HETATM    1  C1  UNL     1      24.700   4.362  50.824  1.00  0.00     0.144 C 
HETATM    2  N1  UNL     1      23.409   4.915  50.859  1.00  0.00    -0.406 N 
HETATM    3  C2  UNL     1      22.544   4.713  51.905  1.00  0.00     0.119 C 
HETATM    4  C3  UNL     1      21.987   3.330  52.071  1.00  0.00     0.039 C 
HETATM    5  C4  UNL     1      21.110   2.821  50.989  1.00  0.00     0.023 A 
HETATM    6  C5  UNL     1      21.619   2.712  49.646  1.00  0.00    -0.010 C 
HETATM    7  C6  UNL     1      22.253   3.057  48.558  1.00  0.00     0.010 C 
HETATM    8  C7  UNL     1      22.983   4.279  48.304  1.00  0.00     0.208 C 
HETATM    9  N2  UNL     1      23.499   5.465  48.555  1.00  0.00    -0.301 NA
HETATM   10  C8  UNL     1      23.223   5.948  49.923  1.00  0.00     0.202 C 
HETATM   11  C9  UNL     1      19.956   3.828  50.959  1.00  0.00     0.008 A 
HETATM   12  C10 UNL     1      18.652   3.900  51.188  1.00  0.00     0.113 A 
HETATM   13  N3  UNL     1      18.103   2.632  51.603  1.00  0.00    -0.275 NA
HETATM   14  C11 UNL     1      18.979   1.687  51.665  1.00  0.00     0.115 A 
HETATM   15  C12 UNL     1      20.435   1.544  51.419  1.00  0.00     0.140 A 
ENDROOT
BRANCH  15  16
HETATM   16  N4  UNL     1      21.027   0.825  52.492  1.00  0.00    -0.376 N 
HETATM   17  C13 UNL     1      22.281   0.161  52.217  1.00  0.00     0.088 A 
HETATM   18  C14 UNL     1      22.962  -0.547  53.105  1.00  0.00     0.040 A 
HETATM   19  C15 UNL     1      22.462  -0.700  54.462  1.00  0.00     0.033 A 
HETATM   20 CL1  UNL     1      23.271  -1.603  55.704  1.00  0.00    -0.085 Cl
HETATM   21  C16 UNL     1      21.304  -0.078  54.682  1.00  0.00     0.017 A 
HETATM   22  C17 UNL     1      20.439   0.732  53.818  1.00  0.00     0.152 A 
ENDBRANCH  15  16
TORSDOF 1
ENDMDL
MODEL 8
REMARK VINA RESULT:      -6.5      3.629      5.949
REMARK  1 active torsions:
REMARK  status: ('A' for Active; 'I' for Inactive)
REMARK    1  A    between atoms: C12_15  and  N4_16 
ROOT
HETATM    1  C1  UNL     1      20.055   3.880  51.383  1.00  0.00     0.144 C 
HETATM    2  N1  UNL     1      21.126   3.274  52.060  1.00  0.00    -0.406 N 
HETATM    3  C2  UNL     1      22.293   3.936  52.345  1.00  0.00     0.119 C 
HETATM    4  C3  UNL     1      23.182   4.280  51.186  1.00  0.00     0.039 C 
HETATM    5  C4  UNL     1      23.776   3.150  50.432  1.00  0.00     0.023 A 
HETATM    6  C5  UNL     1      22.918   2.184  49.795  1.00  0.00    -0.010 C 
HETATM    7  C6  UNL     1      21.918   1.357  49.655  1.00  0.00     0.010 C 
HETATM    8  C7  UNL     1      20.880   1.046  50.612  1.00  0.00     0.208 C 
HETATM    9  N2  UNL     1      20.204   1.113  51.741  1.00  0.00    -0.301 NA
HETATM   10  C8  UNL     1      20.766   2.078  52.707  1.00  0.00     0.202 C 
HETATM   11  C9  UNL     1      24.595   2.403  51.491  1.00  0.00     0.008 A 
HETATM   12  C10 UNL     1      25.851   2.104  51.791  1.00  0.00     0.113 A 
HETATM   13  N3  UNL     1      26.782   2.637  50.826  1.00  0.00    -0.275 NA
HETATM   14  C11 UNL     1      26.215   3.290  49.870  1.00  0.00     0.115 A 
HETATM   15  C12 UNL     1      24.830   3.652  49.480  1.00  0.00     0.140 A 
ENDROOT
BRANCH  15  16
HETATM   16  N4  UNL     1      24.783   5.027  49.125  1.00  0.00    -0.376 N 
HETATM   17  C13 UNL     1      25.791   5.884  49.707  1.00  0.00     0.088 A 
HETATM   18  C14 UNL     1      25.889   7.185  49.479  1.00  0.00     0.040 A 
HETATM   19  C15 UNL     1      24.947   7.847  48.590  1.00  0.00     0.033 A 
HETATM   20 CL1  UNL     1      24.982   9.543  48.219  1.00  0.00    -0.085 Cl
HETATM   21  C16 UNL     1      24.030   7.029  48.071  1.00  0.00     0.017 A 
HETATM   22  C17 UNL     1      23.791   5.592  48.224  1.00  0.00     0.152 A 
ENDBRANCH  15  16
TORSDOF 1
ENDMDL
MODEL 9
REMARK VINA RESULT:      -6.5      8.459     11.143
REMARK  1 active torsions:
REMARK  status: ('A' for Active; 'I' for Inactive)
REMARK    1  A    between atoms: C12_15  and  N4_16 
ROOT
HETATM    1  C1  UNL     1      32.741   4.180  47.904  1.00  0.00     0.144 C 
HETATM    2  N1  UNL     1      32.872   5.451  48.490  1.00  0.00    -0.406 N 
HETATM    3  C2  UNL     1      32.040   5.897  49.485  1.00  0.00     0.119 C 
HETATM    4  C3  UNL     1      30.619   6.187  49.105  1.00  0.00     0.039 C 
HETATM    5  C4  UNL     1      30.388   7.294  48.145  1.00  0.00     0.023 A 
HETATM    6  C5  UNL     1      30.978   7.237  46.832  1.00  0.00    -0.010 C 
HETATM    7  C6  UNL     1      31.892   7.039  45.921  1.00  0.00     0.010 C 
HETATM    8  C7  UNL     1      33.254   6.594  46.110  1.00  0.00     0.208 C 
HETATM    9  N2  UNL     1      34.322   6.182  46.762  1.00  0.00    -0.301 NA
HETATM   10  C8  UNL     1      34.111   6.060  48.219  1.00  0.00     0.202 C 
HETATM   11  C9  UNL     1      30.979   8.516  48.856  1.00  0.00     0.008 A 
HETATM   12  C10 UNL     1      30.606   9.673  49.385  1.00  0.00     0.113 A 
HETATM   13  N3  UNL     1      29.185   9.891  49.269  1.00  0.00    -0.275 NA
HETATM   14  C11 UNL     1      28.563   8.927  48.678  1.00  0.00     0.115 A 
HETATM   15  C12 UNL     1      28.921   7.623  48.067  1.00  0.00     0.140 A 
ENDROOT
BRANCH  15  16
HETATM   16  N4  UNL     1      28.006   6.629  48.508  1.00  0.00    -0.376 N 
HETATM   17  C13 UNL     1      26.786   7.095  49.127  1.00  0.00     0.088 A 
HETATM   18  C14 UNL     1      25.832   6.301  49.589  1.00  0.00     0.040 A 
HETATM   19  C15 UNL     1      25.968   4.856  49.494  1.00  0.00     0.033 A 
HETATM   20 CL1  UNL     1      24.783   3.724  50.065  1.00  0.00    -0.085 Cl
HETATM   21  C16 UNL     1      27.105   4.460  48.920  1.00  0.00     0.017 A 
HETATM   22  C17 UNL     1      28.242   5.201  48.367  1.00  0.00     0.152 A 
ENDBRANCH  15  16
TORSDOF 1
ENDMDL
