MODEL 1
REMARK VINA RESULT:      -8.8      0.000      0.000
REMARK  5 active torsions:
REMARK  status: ('A' for Active; 'I' for Inactive)
REMARK    1  A    between atoms: C7_10  and  N3_11 
REMARK    2  A    between atoms: N3_11  and  C8_12 
REMARK    3  A    between atoms: C15_21  and  O2_22 
REMARK    4  A    between atoms: O2_22  and  C16_23 
REMARK    5  A    between atoms: C16_23  and  C17_24 
ROOT
HETATM    1  C1  UNL     1      21.536  -1.653  54.781  1.00  0.00     0.074 C 
HETATM    2  C2  UNL     1      21.165  -0.875  53.776  1.00  0.00     0.080 C 
HETATM    3  O1  UNL     1      19.816  -0.549  53.729  1.00  0.00    -0.348 OA
HETATM    4  C3  UNL     1      18.892  -0.358  52.679  1.00  0.00     0.220 C 
HETATM    5  C4  UNL     1      19.450   0.392  51.528  1.00  0.00     0.041 A 
HETATM    6  C5  UNL     1      20.705   0.687  51.034  1.00  0.00     0.073 A 
HETATM    7  N1  UNL     1      20.873   1.423  49.921  1.00  0.00    -0.241 NA
HETATM    8  C6  UNL     1      19.807   1.912  49.226  1.00  0.00     0.235 A 
HETATM    9  N2  UNL     1      18.594   1.618  49.714  1.00  0.00    -0.224 NA
HETATM   10  C7  UNL     1      18.383   0.895  50.812  1.00  0.00     0.140 A 
HETATM   11  C14 UNL     1      21.950   0.244  51.651  1.00  0.00     0.071 C 
HETATM   12  C15 UNL     1      22.138  -0.407  52.796  1.00  0.00     0.100 C 
ENDROOT
BRANCH  10  13
HETATM   13  N3  UNL     1      16.997   0.741  51.094  1.00  0.00    -0.338 N 
HETATM   14  H6  UNL     1      16.318  -0.035  50.938  1.00  0.00     0.167 HD
BRANCH  13  15
HETATM   15  C8  UNL     1      16.117   1.689  51.710  1.00  0.00     0.072 A 
HETATM   16  C9  UNL     1      16.204   3.066  51.738  1.00  0.00     0.034 A 
HETATM   17  C10 UNL     1      15.224   3.777  52.403  1.00  0.00     0.021 A 
HETATM   18  C11 UNL     1      14.175   3.137  53.029  1.00  0.00     0.014 A 
HETATM   19 BR1  UNL     1      12.916   4.279  53.897  1.00  0.00    -0.051 Br
HETATM   20  C12 UNL     1      14.084   1.761  53.004  1.00  0.00     0.063 A 
HETATM   21  C13 UNL     1      15.065   1.036  52.337  1.00  0.00     0.144 A 
HETATM   22  F1  UNL     1      14.857  -0.303  52.387  1.00  0.00    -0.204 F 
ENDBRANCH  13  15
ENDBRANCH  10  13
BRANCH  12  23
HETATM   23  O2  UNL     1      23.448  -0.708  53.146  1.00  0.00    -0.348 OA
BRANCH  23  24
HETATM   24  C16 UNL     1      24.515   0.202  53.146  1.00  0.00     0.180 C 
BRANCH  24  25
HETATM   25  C17 UNL     1      25.709  -0.467  53.840  1.00  0.00     0.013 C 
HETATM   26  C18 UNL     1      26.471  -1.175  52.771  1.00  0.00     0.037 C 
HETATM   27  C19 UNL     1      27.940  -1.294  52.995  1.00  0.00     0.272 C 
HETATM   28  N4  UNL     1      28.495  -0.043  53.500  1.00  0.00     0.084 N 
HETATM   29  C20 UNL     1      29.926  -0.158  53.572  1.00  0.00     0.309 C 
HETATM   30  C21 UNL     1      27.876   0.159  54.797  1.00  0.00     0.272 C 
HETATM   31  C22 UNL     1      26.459   0.599  54.569  1.00  0.00     0.037 C 
ENDBRANCH  24  25
ENDBRANCH  23  24
ENDBRANCH  12  23
TORSDOF 5
ENDMDL
MODEL 2
REMARK VINA RESULT:      -8.7      3.036      3.714
REMARK  5 active torsions:
REMARK  status: ('A' for Active; 'I' for Inactive)
REMARK    1  A    between atoms: C7_10  and  N3_11 
REMARK    2  A    between atoms: N3_11  and  C8_12 
REMARK    3  A    between atoms: C15_21  and  O2_22 
REMARK    4  A    between atoms: O2_22  and  C16_23 
REMARK    5  A    between atoms: C16_23  and  C17_24 
ROOT
HETATM    1  C1  UNL     1      23.422  -1.289  55.402  1.00  0.00     0.074 C 
HETATM    2  C2  UNL     1      22.518  -0.811  54.561  1.00  0.00     0.080 C 
HETATM    3  O1  UNL     1      21.192  -1.004  54.925  1.00  0.00    -0.348 OA
HETATM    4  C3  UNL     1      20.009  -1.275  54.204  1.00  0.00     0.220 C 
HETATM    5  C4  UNL     1      19.893  -0.502  52.944  1.00  0.00     0.041 A 
HETATM    6  C5  UNL     1      20.749   0.174  52.097  1.00  0.00     0.073 A 
HETATM    7  N1  UNL     1      20.305   0.796  50.990  1.00  0.00    -0.241 NA
HETATM    8  C6  UNL     1      18.985   0.786  50.653  1.00  0.00     0.235 A 
HETATM    9  N2  UNL     1      18.164   0.127  51.481  1.00  0.00    -0.224 NA
HETATM   10  C7  UNL     1      18.560  -0.501  52.586  1.00  0.00     0.140 A 
HETATM   11  C14 UNL     1      22.188   0.282  52.307  1.00  0.00     0.071 C 
HETATM   12  C15 UNL     1      22.922  -0.130  53.337  1.00  0.00     0.100 C 
ENDROOT
BRANCH  10  13
HETATM   13  N3  UNL     1      17.476  -1.116  53.271  1.00  0.00    -0.338 N 
HETATM   14  H6  UNL     1      17.091  -1.017  54.235  1.00  0.00     0.167 HD
BRANCH  13  15
HETATM   15  C8  UNL     1      16.570  -2.107  52.769  1.00  0.00     0.072 A 
HETATM   16  C9  UNL     1      15.561  -1.970  51.837  1.00  0.00     0.034 A 
HETATM   17  C10 UNL     1      14.810  -3.082  51.507  1.00  0.00     0.021 A 
HETATM   18  C11 UNL     1      15.053  -4.308  52.090  1.00  0.00     0.014 A 
HETATM   19 BR1  UNL     1      13.917  -5.730  51.515  1.00  0.00    -0.051 Br
HETATM   20  C12 UNL     1      16.059  -4.450  53.023  1.00  0.00     0.063 A 
HETATM   21  C13 UNL     1      16.821  -3.337  53.361  1.00  0.00     0.144 A 
HETATM   22  F1  UNL     1      17.775  -3.611  54.285  1.00  0.00    -0.204 F 
ENDBRANCH  13  15
ENDBRANCH  10  13
BRANCH  12  23
HETATM   23  O2  UNL     1      24.290   0.105  53.274  1.00  0.00    -0.348 OA
BRANCH  23  24
HETATM   24  C16 UNL     1      24.887   1.306  52.866  1.00  0.00     0.180 C 
BRANCH  24  25
HETATM   25  C17 UNL     1      26.166   1.505  53.691  1.00  0.00     0.013 C 
HETATM   26  C18 UNL     1      26.462   0.188  54.326  1.00  0.00     0.037 C 
HETATM   27  C19 UNL     1      27.904  -0.101  54.573  1.00  0.00     0.272 C 
HETATM   28  N4  UNL     1      28.719   0.292  53.428  1.00  0.00     0.084 N 
HETATM   29  C20 UNL     1      30.075  -0.128  53.650  1.00  0.00     0.309 C 
HETATM   30  C21 UNL     1      28.578   1.732  53.329  1.00  0.00     0.272 C 
HETATM   31  C22 UNL     1      27.218   2.027  52.769  1.00  0.00     0.037 C 
ENDBRANCH  24  25
ENDBRANCH  23  24
ENDBRANCH  12  23
TORSDOF 5
ENDMDL
MODEL 3
REMARK VINA RESULT:      -8.4      7.987      9.773
REMARK  5 active torsions:
REMARK  status: ('A' for Active; 'I' for Inactive)
REMARK    1  A    between atoms: C7_10  and  N3_11 
REMARK    2  A    between atoms: N3_11  and  C8_12 
REMARK    3  A    between atoms: C15_21  and  O2_22 
REMARK    4  A    between atoms: O2_22  and  C16_23 
REMARK    5  A    between atoms: C16_23  and  C17_24 
ROOT
HETATM    1  C1  UNL     1      29.155   5.862  47.780  1.00  0.00     0.074 C 
HETATM    2  C2  UNL     1      28.095   5.806  48.571  1.00  0.00     0.080 C 
HETATM    3  O1  UNL     1      27.738   4.540  49.014  1.00  0.00    -0.348 OA
HETATM    4  C3  UNL     1      26.503   3.905  49.269  1.00  0.00     0.220 C 
HETATM    5  C4  UNL     1      25.516   4.780  49.947  1.00  0.00     0.041 A 
HETATM    6  C5  UNL     1      25.328   6.137  50.121  1.00  0.00     0.073 A 
HETATM    7  N1  UNL     1      24.287   6.624  50.820  1.00  0.00    -0.241 NA
HETATM    8  C6  UNL     1      23.366   5.796  51.389  1.00  0.00     0.235 A 
HETATM    9  N2  UNL     1      23.558   4.482  51.213  1.00  0.00    -0.224 NA
HETATM   10  C7  UNL     1      24.573   3.958  50.530  1.00  0.00     0.140 A 
HETATM   11  C14 UNL     1      26.215   7.160  49.580  1.00  0.00     0.071 C 
HETATM   12  C15 UNL     1      27.369   7.018  48.934  1.00  0.00     0.100 C 
ENDROOT
BRANCH  10  13
HETATM   13  N3  UNL     1      24.525   2.536  50.505  1.00  0.00    -0.338 N 
HETATM   14  H6  UNL     1      24.976   1.817  49.899  1.00  0.00     0.167 HD
BRANCH  13  15
HETATM   15  C8  UNL     1      23.786   1.668  51.372  1.00  0.00     0.072 A 
HETATM   16  C9  UNL     1      22.462   1.285  51.297  1.00  0.00     0.034 A 
HETATM   17  C10 UNL     1      21.966   0.428  52.260  1.00  0.00     0.021 A 
HETATM   18  C11 UNL     1      22.765  -0.042  53.281  1.00  0.00     0.014 A 
HETATM   19 BR1  UNL     1      21.911  -1.215  54.521  1.00  0.00    -0.051 Br
HETATM   20  C12 UNL     1      24.089   0.339  53.361  1.00  0.00     0.063 A 
HETATM   21  C13 UNL     1      24.598   1.201  52.397  1.00  0.00     0.144 A 
HETATM   22  F1  UNL     1      25.907   1.494  52.589  1.00  0.00    -0.204 F 
ENDBRANCH  13  15
ENDBRANCH  10  13
BRANCH  12  23
HETATM   23  O2  UNL     1      28.013   8.178  48.524  1.00  0.00    -0.348 OA
BRANCH  23  24
HETATM   24  C16 UNL     1      28.475   9.192  49.376  1.00  0.00     0.180 C 
BRANCH  24  25
HETATM   25  C17 UNL     1      29.802   9.717  48.813  1.00  0.00     0.013 C 
HETATM   26  C18 UNL     1      30.860   8.784  49.298  1.00  0.00     0.037 C 
HETATM   27  C19 UNL     1      32.042   8.626  48.404  1.00  0.00     0.272 C 
HETATM   28  N4  UNL     1      31.630   8.509  47.009  1.00  0.00     0.084 N 
HETATM   29  C20 UNL     1      32.783   8.221  46.200  1.00  0.00     0.309 C 
HETATM   30  C21 UNL     1      31.008   9.778  46.682  1.00  0.00     0.272 C 
HETATM   31  C22 UNL     1      29.655   9.811  47.330  1.00  0.00     0.037 C 
ENDBRANCH  24  25
ENDBRANCH  23  24
ENDBRANCH  12  23
TORSDOF 5
ENDMDL
MODEL 4
REMARK VINA RESULT:      -8.4      4.383     10.157
REMARK  5 active torsions:
REMARK  status: ('A' for Active; 'I' for Inactive)
REMARK    1  A    between atoms: C7_10  and  N3_11 
REMARK    2  A    between atoms: N3_11  and  C8_12 
REMARK    3  A    between atoms: C15_21  and  O2_22 
REMARK    4  A    between atoms: O2_22  and  C16_23 
REMARK    5  A    between atoms: C16_23  and  C17_24 
ROOT
HETATM    1  C1  UNL     1      18.062   1.539  49.837  1.00  0.00     0.074 C 
HETATM    2  C2  UNL     1      18.826   1.111  50.830  1.00  0.00     0.080 C 
HETATM    3  O1  UNL     1      20.107   1.644  50.881  1.00  0.00    -0.348 OA
HETATM    4  C3  UNL     1      21.369   1.125  51.244  1.00  0.00     0.220 C 
HETATM    5  C4  UNL     1      21.328   0.255  52.444  1.00  0.00     0.041 A 
HETATM    6  C5  UNL     1      20.371  -0.462  53.134  1.00  0.00     0.073 A 
HETATM    7  N1  UNL     1      20.676  -1.177  54.232  1.00  0.00    -0.241 NA
HETATM    8  C6  UNL     1      21.950  -1.226  54.714  1.00  0.00     0.235 A 
HETATM    9  N2  UNL     1      22.871  -0.527  54.036  1.00  0.00    -0.224 NA
HETATM   10  C7  UNL     1      22.612   0.193  52.947  1.00  0.00     0.140 A 
HETATM   11  C14 UNL     1      18.964  -0.519  52.755  1.00  0.00     0.071 C 
HETATM   12  C15 UNL     1      18.323   0.139  51.793  1.00  0.00     0.100 C 
ENDROOT
BRANCH  10  13
HETATM   13  N3  UNL     1      23.778   0.828  52.436  1.00  0.00    -0.338 N 
HETATM   14  H6  UNL     1      23.928   1.636  51.792  1.00  0.00     0.167 HD
BRANCH  13  15
HETATM   15  C8  UNL     1      25.146   0.490  52.695  1.00  0.00     0.072 A 
HETATM   16  C9  UNL     1      25.846  -0.643  52.333  1.00  0.00     0.034 A 
HETATM   17  C10 UNL     1      27.173  -0.746  52.700  1.00  0.00     0.021 A 
HETATM   18  C11 UNL     1      27.799   0.255  53.413  1.00  0.00     0.014 A 
HETATM   19 BR1  UNL     1      29.634  -0.058  53.833  1.00  0.00    -0.051 Br
HETATM   20  C12 UNL     1      27.104   1.390  53.778  1.00  0.00     0.063 A 
HETATM   21  C13 UNL     1      25.767   1.503  53.413  1.00  0.00     0.144 A 
HETATM   22  F1  UNL     1      25.203   2.663  53.830  1.00  0.00    -0.204 F 
ENDBRANCH  13  15
ENDBRANCH  10  13
BRANCH  12  23
HETATM   23  O2  UNL     1      16.965  -0.111  51.652  1.00  0.00    -0.348 OA
BRANCH  23  24
HETATM   24  C16 UNL     1      16.044  -0.205  52.706  1.00  0.00     0.180 C 
BRANCH  24  25
HETATM   25  C17 UNL     1      14.765   0.531  52.286  1.00  0.00     0.013 C 
HETATM   26  C18 UNL     1      13.798   0.363  53.409  1.00  0.00     0.037 C 
HETATM   27  C19 UNL     1      12.821   1.475  53.594  1.00  0.00     0.272 C 
HETATM   28  N4  UNL     1      13.475   2.772  53.458  1.00  0.00     0.084 N 
HETATM   29  C20 UNL     1      12.533   3.809  53.777  1.00  0.00     0.309 C 
HETATM   30  C21 UNL     1      13.940   2.829  52.084  1.00  0.00     0.272 C 
HETATM   31  C22 UNL     1      15.142   1.940  51.966  1.00  0.00     0.037 C 
ENDBRANCH  24  25
ENDBRANCH  23  24
ENDBRANCH  12  23
TORSDOF 5
ENDMDL
MODEL 5
REMARK VINA RESULT:      -8.3      8.135      9.786
REMARK  5 active torsions:
REMARK  status: ('A' for Active; 'I' for Inactive)
REMARK    1  A    between atoms: C7_10  and  N3_11 
REMARK    2  A    between atoms: N3_11  and  C8_12 
REMARK    3  A    between atoms: C15_21  and  O2_22 
REMARK    4  A    between atoms: O2_22  and  C16_23 
REMARK    5  A    between atoms: C16_23  and  C17_24 
ROOT
HETATM    1  C1  UNL     1      29.108   5.592  47.854  1.00  0.00     0.074 C 
HETATM    2  C2  UNL     1      28.033   5.560  48.626  1.00  0.00     0.080 C 
HETATM    3  O1  UNL     1      27.680   4.310  49.119  1.00  0.00    -0.348 OA
HETATM    4  C3  UNL     1      26.446   3.674  49.378  1.00  0.00     0.220 C 
HETATM    5  C4  UNL     1      25.438   4.567  49.997  1.00  0.00     0.041 A 
HETATM    6  C5  UNL     1      25.233   5.928  50.107  1.00  0.00     0.073 A 
HETATM    7  N1  UNL     1      24.174   6.434  50.764  1.00  0.00    -0.241 NA
HETATM    8  C6  UNL     1      23.250   5.622  51.352  1.00  0.00     0.235 A 
HETATM    9  N2  UNL     1      23.459   4.303  51.238  1.00  0.00    -0.224 NA
HETATM   10  C7  UNL     1      24.493   3.761  50.598  1.00  0.00     0.140 A 
HETATM   11  C14 UNL     1      26.120   6.936  49.538  1.00  0.00     0.071 C 
HETATM   12  C15 UNL     1      27.288   6.778  48.921  1.00  0.00     0.100 C 
ENDROOT
BRANCH  10  13
HETATM   13  N3  UNL     1      24.459   2.339  50.635  1.00  0.00    -0.338 N 
HETATM   14  H6  UNL     1      24.989   1.598  50.126  1.00  0.00     0.167 HD
BRANCH  13  15
HETATM   15  C8  UNL     1      23.623   1.502  51.444  1.00  0.00     0.072 A 
HETATM   16  C9  UNL     1      22.295   1.170  51.268  1.00  0.00     0.034 A 
HETATM   17  C10 UNL     1      21.695   0.335  52.190  1.00  0.00     0.021 A 
HETATM   18  C11 UNL     1      22.396  -0.163  53.269  1.00  0.00     0.014 A 
HETATM   19 BR1  UNL     1      21.406  -1.300  54.439  1.00  0.00    -0.051 Br
HETATM   20  C12 UNL     1      23.724   0.167  53.449  1.00  0.00     0.063 A 
HETATM   21  C13 UNL     1      24.337   1.006  52.526  1.00  0.00     0.144 A 
HETATM   22  F1  UNL     1      25.638   1.249  52.818  1.00  0.00    -0.204 F 
ENDBRANCH  13  15
ENDBRANCH  10  13
BRANCH  12  23
HETATM   23  O2  UNL     1      27.928   7.926  48.473  1.00  0.00    -0.348 OA
BRANCH  23  24
HETATM   24  C16 UNL     1      27.748   9.213  49.002  1.00  0.00     0.180 C 
BRANCH  24  25
HETATM   25  C17 UNL     1      29.128   9.771  49.370  1.00  0.00     0.013 C 
HETATM   26  C18 UNL     1      30.129   8.872  48.727  1.00  0.00     0.037 C 
HETATM   27  C19 UNL     1      31.416   9.514  48.332  1.00  0.00     0.272 C 
HETATM   28  N4  UNL     1      31.182  10.814  47.711  1.00  0.00     0.084 N 
HETATM   29  C20 UNL     1      32.431  11.334  47.224  1.00  0.00     0.309 C 
HETATM   30  C21 UNL     1      30.590  11.637  48.749  1.00  0.00     0.272 C 
HETATM   31  C22 UNL     1      29.167  11.198  48.931  1.00  0.00     0.037 C 
ENDBRANCH  24  25
ENDBRANCH  23  24
ENDBRANCH  12  23
TORSDOF 5
ENDMDL
MODEL 6
REMARK VINA RESULT:      -8.0      2.150      2.522
REMARK  5 active torsions:
REMARK  status: ('A' for Active; 'I' for Inactive)
REMARK    1  A    between atoms: C7_10  and  N3_11 
REMARK    2  A    between atoms: N3_11  and  C8_12 
REMARK    3  A    between atoms: C15_21  and  O2_22 
REMARK    4  A    between atoms: O2_22  and  C16_23 
REMARK    5  A    between atoms: C16_23  and  C17_24 
ROOT
HETATM    1  C1  UNL     1      21.818  -1.427  54.782  1.00  0.00     0.074 C 
HETATM    2  C2  UNL     1      21.384  -0.686  53.774  1.00  0.00     0.080 C 
HETATM    3  O1  UNL     1      20.032  -0.368  53.796  1.00  0.00    -0.348 OA
HETATM    4  C3  UNL     1      19.047  -0.218  52.796  1.00  0.00     0.220 C 
HETATM    5  C4  UNL     1      19.532   0.493  51.589  1.00  0.00     0.041 A 
HETATM    6  C5  UNL     1      20.754   0.778  51.013  1.00  0.00     0.073 A 
HETATM    7  N1  UNL     1      20.851   1.475  49.866  1.00  0.00    -0.241 NA
HETATM    8  C6  UNL     1      19.743   1.934  49.219  1.00  0.00     0.235 A 
HETATM    9  N2  UNL     1      18.563   1.651  49.787  1.00  0.00    -0.224 NA
HETATM   10  C7  UNL     1      18.421   0.966  50.920  1.00  0.00     0.140 A 
HETATM   11  C14 UNL     1      22.036   0.363  51.570  1.00  0.00     0.071 C 
HETATM   12  C15 UNL     1      22.295  -0.248  52.723  1.00  0.00     0.100 C 
ENDROOT
BRANCH  10  13
HETATM   13  N3  UNL     1      17.055   0.815  51.288  1.00  0.00    -0.338 N 
HETATM   14  H6  UNL     1      16.417   1.361  51.905  1.00  0.00     0.167 HD
BRANCH  13  15
HETATM   15  C8  UNL     1      16.143  -0.208  50.870  1.00  0.00     0.072 A 
HETATM   16  C9  UNL     1      15.994  -0.787  49.626  1.00  0.00     0.034 A 
HETATM   17  C10 UNL     1      15.035  -1.766  49.462  1.00  0.00     0.021 A 
HETATM   18  C11 UNL     1      14.234  -2.167  50.511  1.00  0.00     0.014 A 
HETATM   19 BR1  UNL     1      12.963  -3.530  50.101  1.00  0.00    -0.051 Br
HETATM   20  C12 UNL     1      14.377  -1.591  51.756  1.00  0.00     0.063 A 
HETATM   21  C13 UNL     1      15.341  -0.604  51.932  1.00  0.00     0.144 A 
HETATM   22  F1  UNL     1      15.379  -0.124  53.199  1.00  0.00    -0.204 F 
ENDBRANCH  13  15
ENDBRANCH  10  13
BRANCH  12  23
HETATM   23  O2  UNL     1      23.625  -0.529  53.007  1.00  0.00    -0.348 OA
BRANCH  23  24
HETATM   24  C16 UNL     1      24.557   0.388  53.513  1.00  0.00     0.180 C 
BRANCH  24  25
HETATM   25  C17 UNL     1      25.747  -0.403  54.070  1.00  0.00     0.013 C 
HETATM   26  C18 UNL     1      26.355  -1.115  52.909  1.00  0.00     0.037 C 
HETATM   27  C19 UNL     1      27.824  -1.358  52.997  1.00  0.00     0.272 C 
HETATM   28  N4  UNL     1      28.520  -0.179  53.502  1.00  0.00     0.084 N 
HETATM   29  C20 UNL     1      29.937  -0.406  53.441  1.00  0.00     0.309 C 
HETATM   30  C21 UNL     1      28.031   0.008  54.855  1.00  0.00     0.272 C 
HETATM   31  C22 UNL     1      26.641   0.565  54.772  1.00  0.00     0.037 C 
ENDBRANCH  24  25
ENDBRANCH  23  24
ENDBRANCH  12  23
TORSDOF 5
ENDMDL
MODEL 7
REMARK VINA RESULT:      -7.9      8.837     10.713
REMARK  5 active torsions:
REMARK  status: ('A' for Active; 'I' for Inactive)
REMARK    1  A    between atoms: C7_10  and  N3_11 
REMARK    2  A    between atoms: N3_11  and  C8_12 
REMARK    3  A    between atoms: C15_21  and  O2_22 
REMARK    4  A    between atoms: O2_22  and  C16_23 
REMARK    5  A    between atoms: C16_23  and  C17_24 
ROOT
HETATM    1  C1  UNL     1      29.964   6.062  47.575  1.00  0.00     0.074 C 
HETATM    2  C2  UNL     1      28.851   6.103  48.290  1.00  0.00     0.080 C 
HETATM    3  O1  UNL     1      28.388   4.881  48.759  1.00  0.00    -0.348 OA
HETATM    4  C3  UNL     1      27.102   4.331  48.952  1.00  0.00     0.220 C 
HETATM    5  C4  UNL     1      26.126   5.292  49.522  1.00  0.00     0.041 A 
HETATM    6  C5  UNL     1      26.011   6.663  49.628  1.00  0.00     0.073 A 
HETATM    7  N1  UNL     1      24.956   7.241  50.231  1.00  0.00    -0.241 NA
HETATM    8  C6  UNL     1      23.950   6.494  50.768  1.00  0.00     0.235 A 
HETATM    9  N2  UNL     1      24.073   5.165  50.659  1.00  0.00    -0.224 NA
HETATM   10  C7  UNL     1      25.098   4.552  50.071  1.00  0.00     0.140 A 
HETATM   11  C14 UNL     1      26.993   7.608  49.109  1.00  0.00     0.071 C 
HETATM   12  C15 UNL     1      28.178   7.370  48.552  1.00  0.00     0.100 C 
ENDROOT
BRANCH  10  13
HETATM   13  N3  UNL     1      24.965   3.136  50.100  1.00  0.00    -0.338 N 
HETATM   14  H6  UNL     1      25.230   2.380  49.433  1.00  0.00     0.167 HD
BRANCH  13  15
HETATM   15  C8  UNL     1      24.386   2.331  51.134  1.00  0.00     0.072 A 
HETATM   16  C9  UNL     1      24.868   2.061  52.399  1.00  0.00     0.034 A 
HETATM   17  C10 UNL     1      24.124   1.247  53.231  1.00  0.00     0.021 A 
HETATM   18  C11 UNL     1      22.923   0.708  52.818  1.00  0.00     0.014 A 
HETATM   19 BR1  UNL     1      22.033  -0.393  54.098  1.00  0.00    -0.051 Br
HETATM   20  C12 UNL     1      22.438   0.974  51.555  1.00  0.00     0.063 A 
HETATM   21  C13 UNL     1      23.179   1.793  50.710  1.00  0.00     0.144 A 
HETATM   22  F1  UNL     1      22.592   1.974  49.502  1.00  0.00    -0.204 F 
ENDBRANCH  13  15
ENDBRANCH  10  13
BRANCH  12  23
HETATM   23  O2  UNL     1      28.917   8.471  48.142  1.00  0.00    -0.348 OA
BRANCH  23  24
HETATM   24  C16 UNL     1      29.235   9.577  48.943  1.00  0.00     0.180 C 
BRANCH  24  25
HETATM   25  C17 UNL     1      29.079  10.843  48.090  1.00  0.00     0.013 C 
HETATM   26  C18 UNL     1      27.715  10.778  47.492  1.00  0.00     0.037 C 
HETATM   27  C19 UNL     1      27.060  12.092  47.228  1.00  0.00     0.272 C 
HETATM   28  N4  UNL     1      27.262  13.009  48.345  1.00  0.00     0.084 N 
HETATM   29  C20 UNL     1      26.504  14.208  48.111  1.00  0.00     0.309 C 
HETATM   30  C21 UNL     1      28.693  13.242  48.400  1.00  0.00     0.272 C 
HETATM   31  C22 UNL     1      29.339  12.017  48.975  1.00  0.00     0.037 C 
ENDBRANCH  24  25
ENDBRANCH  23  24
ENDBRANCH  12  23
TORSDOF 5
ENDMDL
MODEL 8
REMARK VINA RESULT:      -7.9      1.794      1.961
REMARK  5 active torsions:
REMARK  status: ('A' for Active; 'I' for Inactive)
REMARK    1  A    between atoms: C7_10  and  N3_11 
REMARK    2  A    between atoms: N3_11  and  C8_12 
REMARK    3  A    between atoms: C15_21  and  O2_22 
REMARK    4  A    between atoms: O2_22  and  C16_23 
REMARK    5  A    between atoms: C16_23  and  C17_24 
ROOT
HETATM    1  C1  UNL     1      21.665  -1.842  54.132  1.00  0.00     0.074 C 
HETATM    2  C2  UNL     1      21.274  -0.660  53.681  1.00  0.00     0.080 C 
HETATM    3  O1  UNL     1      19.906  -0.502  53.503  1.00  0.00    -0.348 OA
HETATM    4  C3  UNL     1      19.116   0.184  52.555  1.00  0.00     0.220 C 
HETATM    5  C4  UNL     1      19.650   1.520  52.195  1.00  0.00     0.041 A 
HETATM    6  C5  UNL     1      20.865   2.170  52.269  1.00  0.00     0.073 A 
HETATM    7  N1  UNL     1      21.020   3.434  51.837  1.00  0.00    -0.241 NA
HETATM    8  C6  UNL     1      19.978   4.133  51.304  1.00  0.00     0.235 A 
HETATM    9  N2  UNL     1      18.804   3.492  51.236  1.00  0.00    -0.224 NA
HETATM   10  C7  UNL     1      18.607   2.243  51.652  1.00  0.00     0.140 A 
HETATM   11  C14 UNL     1      22.080   1.570  52.809  1.00  0.00     0.071 C 
HETATM   12  C15 UNL     1      22.247   0.389  53.398  1.00  0.00     0.100 C 
ENDROOT
BRANCH  10  13
HETATM   13  N3  UNL     1      17.263   1.819  51.458  1.00  0.00    -0.338 N 
HETATM   14  H6  UNL     1      16.808   0.881  51.418  1.00  0.00     0.167 HD
BRANCH  13  15
HETATM   15  C8  UNL     1      16.106   2.638  51.251  1.00  0.00     0.072 A 
HETATM   16  C9  UNL     1      15.275   3.222  52.185  1.00  0.00     0.034 A 
HETATM   17  C10 UNL     1      14.209   3.979  51.740  1.00  0.00     0.021 A 
HETATM   18  C11 UNL     1      13.968   4.156  50.394  1.00  0.00     0.014 A 
HETATM   19 BR1  UNL     1      12.451   5.231  49.964  1.00  0.00    -0.051 Br
HETATM   20  C12 UNL     1      14.796   3.574  49.456  1.00  0.00     0.063 A 
HETATM   21  C13 UNL     1      15.872   2.810  49.893  1.00  0.00     0.144 A 
HETATM   22  F1  UNL     1      16.604   2.298  48.874  1.00  0.00    -0.204 F 
ENDBRANCH  13  15
ENDBRANCH  10  13
BRANCH  12  23
HETATM   23  O2  UNL     1      23.529   0.068  53.821  1.00  0.00    -0.348 OA
BRANCH  23  24
HETATM   24  C16 UNL     1      24.706   0.308  53.096  1.00  0.00     0.180 C 
BRANCH  24  25
HETATM   25  C17 UNL     1      25.860  -0.404  53.814  1.00  0.00     0.013 C 
HETATM   26  C18 UNL     1      26.588  -1.179  52.769  1.00  0.00     0.037 C 
HETATM   27  C19 UNL     1      28.048  -1.370  53.004  1.00  0.00     0.272 C 
HETATM   28  N4  UNL     1      28.666  -0.137  53.479  1.00  0.00     0.084 N 
HETATM   29  C20 UNL     1      30.089  -0.324  53.561  1.00  0.00     0.309 C 
HETATM   30  C21 UNL     1      28.053   0.133  54.765  1.00  0.00     0.272 C 
HETATM   31  C22 UNL     1      26.663   0.640  54.518  1.00  0.00     0.037 C 
ENDBRANCH  24  25
ENDBRANCH  23  24
ENDBRANCH  12  23
TORSDOF 5
ENDMDL
MODEL 9
REMARK VINA RESULT:      -7.9      2.292      2.982
REMARK  5 active torsions:
REMARK  status: ('A' for Active; 'I' for Inactive)
REMARK    1  A    between atoms: C7_10  and  N3_11 
REMARK    2  A    between atoms: N3_11  and  C8_12 
REMARK    3  A    between atoms: C15_21  and  O2_22 
REMARK    4  A    between atoms: O2_22  and  C16_23 
REMARK    5  A    between atoms: C16_23  and  C17_24 
ROOT
HETATM    1  C1  UNL     1      23.048   4.670  51.992  1.00  0.00     0.074 C 
HETATM    2  C2  UNL     1      22.248   3.615  52.017  1.00  0.00     0.080 C 
HETATM    3  O1  UNL     1      21.015   3.776  51.399  1.00  0.00    -0.348 OA
HETATM    4  C3  UNL     1      19.714   3.302  51.675  1.00  0.00     0.220 C 
HETATM    5  C4  UNL     1      19.680   1.886  52.112  1.00  0.00     0.041 A 
HETATM    6  C5  UNL     1      20.572   0.975  52.640  1.00  0.00     0.073 A 
HETATM    7  N1  UNL     1      20.206  -0.285  52.937  1.00  0.00    -0.241 NA
HETATM    8  C6  UNL     1      18.931  -0.720  52.731  1.00  0.00     0.235 A 
HETATM    9  N2  UNL     1      18.074   0.173  52.219  1.00  0.00    -0.224 NA
HETATM   10  C7  UNL     1      18.394   1.427  51.910  1.00  0.00     0.140 A 
HETATM   11  C14 UNL     1      21.971   1.273  52.924  1.00  0.00     0.071 C 
HETATM   12  C15 UNL     1      22.667   2.376  52.663  1.00  0.00     0.100 C 
ENDROOT
BRANCH  10  13
HETATM   13  N3  UNL     1      17.286   2.150  51.386  1.00  0.00    -0.338 N 
HETATM   14  H6  UNL     1      17.105   2.617  50.471  1.00  0.00     0.167 HD
BRANCH  13  15
HETATM   15  C8  UNL     1      16.042   2.440  52.035  1.00  0.00     0.072 A 
HETATM   16  C9  UNL     1      15.041   1.573  52.426  1.00  0.00     0.034 A 
HETATM   17  C10 UNL     1      13.920   2.092  53.043  1.00  0.00     0.021 A 
HETATM   18  C11 UNL     1      13.790   3.446  53.270  1.00  0.00     0.014 A 
HETATM   19 BR1  UNL     1      12.175   3.983  54.133  1.00  0.00    -0.051 Br
HETATM   20  C12 UNL     1      14.787   4.317  52.882  1.00  0.00     0.063 A 
HETATM   21  C13 UNL     1      15.920   3.804  52.260  1.00  0.00     0.144 A 
HETATM   22  F1  UNL     1      16.821   4.763  51.932  1.00  0.00    -0.204 F 
ENDBRANCH  13  15
ENDBRANCH  10  13
BRANCH  12  23
HETATM   23  O2  UNL     1      24.001   2.390  53.048  1.00  0.00    -0.348 OA
BRANCH  23  24
HETATM   24  C16 UNL     1      24.974   1.470  52.632  1.00  0.00     0.180 C 
BRANCH  24  25
HETATM   25  C17 UNL     1      26.167   1.573  53.592  1.00  0.00     0.013 C 
HETATM   26  C18 UNL     1      26.366   0.208  54.158  1.00  0.00     0.037 C 
HETATM   27  C19 UNL     1      27.769  -0.141  54.527  1.00  0.00     0.272 C 
HETATM   28  N4  UNL     1      28.705   0.305  53.500  1.00  0.00     0.084 N 
HETATM   29  C20 UNL     1      30.022  -0.169  53.826  1.00  0.00     0.309 C 
HETATM   30  C21 UNL     1      28.608   1.753  53.490  1.00  0.00     0.272 C 
HETATM   31  C22 UNL     1      27.319   2.125  52.819  1.00  0.00     0.037 C 
ENDBRANCH  24  25
ENDBRANCH  23  24
ENDBRANCH  12  23
TORSDOF 5
ENDMDL
