MODEL 1
REMARK VINA RESULT:      -8.9      0.000      0.000
REMARK  7 active torsions:
REMARK  status: ('A' for Active; 'I' for Inactive)
REMARK    1  A    between atoms: C5_8  and  C6_9 
REMARK    2  A    between atoms: C9_13  and  O1_14 
REMARK    3  A    between atoms: O1_14  and  C10_15 
REMARK    4  A    between atoms: C10_15  and  C11_16 
REMARK    5  A    between atoms: C11_16  and  N5_17 
REMARK    6  A    between atoms: C11_16  and  C12_18 
REMARK    7  A    between atoms: C12_18  and  C13_19 
ROOT
HETATM    1  C6  UNL     1      24.336   0.862  53.021  1.00  0.00    -0.006 A 
HETATM    2  C7  UNL     1      23.592  -0.289  53.141  1.00  0.00     0.128 A 
HETATM    3  N4  UNL     1      22.254  -0.367  53.003  1.00  0.00    -0.269 NA
HETATM    4  C8  UNL     1      21.538   0.756  52.724  1.00  0.00     0.152 A 
HETATM    5  C9  UNL     1      22.264   1.924  52.598  1.00  0.00     0.087 A 
HETATM    6  C19 UNL     1      23.624   2.006  52.738  1.00  0.00     0.052 A 
ENDROOT
BRANCH   5   7
HETATM    7  O1  UNL     1      21.503   3.051  52.313  1.00  0.00    -0.348 OA
BRANCH   7   8
HETATM    8  C10 UNL     1      21.504   3.616  51.016  1.00  0.00     0.200 C 
BRANCH   8   9
HETATM    9  C11 UNL     1      22.481   4.774  50.963  1.00  0.00     0.102 C 
BRANCH   9  10
HETATM   10  N5  UNL     1      21.918   5.948  51.564  1.00  0.00    -0.424 N 
HETATM   11  H13 UNL     1      20.995   5.817  51.986  1.00  0.00     0.150 HD
HETATM   12  H14 UNL     1      22.614   6.484  52.093  1.00  0.00     0.150 HD
ENDBRANCH   9  10
BRANCH   9  13
HETATM   13  C12 UNL     1      23.067   4.989  49.619  1.00  0.00     0.065 C 
BRANCH  13  14
HETATM   14  C13 UNL     1      24.486   4.647  49.467  1.00  0.00    -0.056 A 
HETATM   15  C14 UNL     1      25.236   5.704  48.959  1.00  0.00     0.007 A 
HETATM   16  C15 UNL     1      26.610   5.550  48.750  1.00  0.00     0.001 A 
HETATM   17  C16 UNL     1      27.189   4.328  49.063  1.00  0.00     0.000 A 
HETATM   18  C17 UNL     1      26.432   3.293  49.567  1.00  0.00     0.001 A 
HETATM   19  C18 UNL     1      25.077   3.437  49.775  1.00  0.00     0.007 A 
ENDBRANCH  13  14
ENDBRANCH   9  13
ENDBRANCH   8   9
ENDBRANCH   7   8
ENDBRANCH   5   7
BRANCH   1  20
HETATM   20  C5  UNL     1      25.767   0.912  53.174  1.00  0.00    -0.024 A 
HETATM   21  C4  UNL     1      26.450   2.026  53.355  1.00  0.00     0.007 A 
HETATM   22  C3  UNL     1      27.903   2.242  53.526  1.00  0.00     0.179 A 
HETATM   23  N3  UNL     1      28.569   0.973  53.469  1.00  0.00    -0.271 N 
HETATM   24  N2  UNL     1      29.954   0.705  53.583  1.00  0.00    -0.217 N 
HETATM   25  C21 UNL     1      27.907  -0.292  53.273  1.00  0.00     0.079 A 
HETATM   26  N1  UNL     1      30.127  -0.695  53.461  1.00  0.00    -0.162 NA
HETATM   27  H4  UNL     1      30.800   1.308  53.731  1.00  0.00     0.210 HD
HETATM   28  C2  UNL     1      28.988  -1.273  53.287  1.00  0.00     0.080 A 
HETATM   29  C1  UNL     1      28.708  -2.742  53.111  1.00  0.00     0.075 C 
HETATM   30  C20 UNL     1      26.587  -0.290  53.138  1.00  0.00     0.045 A 
ENDBRANCH   1  20
TORSDOF 7
ENDMDL
MODEL 2
REMARK VINA RESULT:      -8.7      1.827      2.764
REMARK  7 active torsions:
REMARK  status: ('A' for Active; 'I' for Inactive)
REMARK    1  A    between atoms: C5_8  and  C6_9 
REMARK    2  A    between atoms: C9_13  and  O1_14 
REMARK    3  A    between atoms: O1_14  and  C10_15 
REMARK    4  A    between atoms: C10_15  and  C11_16 
REMARK    5  A    between atoms: C11_16  and  N5_17 
REMARK    6  A    between atoms: C11_16  and  C12_18 
REMARK    7  A    between atoms: C12_18  and  C13_19 
ROOT
HETATM    1  C6  UNL     1      23.315   2.006  52.167  1.00  0.00    -0.006 A 
HETATM    2  C7  UNL     1      22.471   1.428  51.248  1.00  0.00     0.128 A 
HETATM    3  N4  UNL     1      21.507   2.075  50.564  1.00  0.00    -0.269 NA
HETATM    4  C8  UNL     1      21.315   3.407  50.765  1.00  0.00     0.152 A 
HETATM    5  C9  UNL     1      22.152   4.009  51.683  1.00  0.00     0.087 A 
HETATM    6  C19 UNL     1      23.133   3.354  52.380  1.00  0.00     0.052 A 
ENDROOT
BRANCH   5   7
HETATM    7  O1  UNL     1      21.930   5.369  51.865  1.00  0.00    -0.348 OA
BRANCH   7   8
HETATM    8  C10 UNL     1      22.347   6.307  50.891  1.00  0.00     0.200 C 
BRANCH   8   9
HETATM    9  C11 UNL     1      23.862   6.353  50.841  1.00  0.00     0.102 C 
BRANCH   9  10
HETATM   10  N5  UNL     1      24.391   7.065  51.967  1.00  0.00    -0.424 N 
HETATM   11  H13 UNL     1      25.122   6.572  52.486  1.00  0.00     0.150 HD
HETATM   12  H14 UNL     1      24.539   8.059  51.762  1.00  0.00     0.150 HD
ENDBRANCH   9  10
BRANCH   9  13
HETATM   13  C12 UNL     1      24.394   6.790  49.529  1.00  0.00     0.065 C 
BRANCH  13  14
HETATM   14  C13 UNL     1      25.696   6.236  49.140  1.00  0.00    -0.056 A 
HETATM   15  C14 UNL     1      25.814   4.884  49.449  1.00  0.00     0.007 A 
HETATM   16  C15 UNL     1      26.993   4.196  49.146  1.00  0.00     0.001 A 
HETATM   17  C16 UNL     1      28.024   4.898  48.536  1.00  0.00     0.000 A 
HETATM   18  C17 UNL     1      27.890   6.236  48.236  1.00  0.00     0.001 A 
HETATM   19  C18 UNL     1      26.731   6.920  48.532  1.00  0.00     0.007 A 
ENDBRANCH  13  14
ENDBRANCH   9  13
ENDBRANCH   8   9
ENDBRANCH   7   8
ENDBRANCH   5   7
BRANCH   1  20
HETATM   20  C5  UNL     1      24.337   1.286  52.882  1.00  0.00    -0.024 A 
HETATM   21  C4  UNL     1      24.143   0.119  53.466  1.00  0.00     0.007 A 
HETATM   22  C3  UNL     1      25.077  -0.738  54.229  1.00  0.00     0.179 A 
HETATM   23  N3  UNL     1      26.360  -0.098  54.274  1.00  0.00    -0.271 N 
HETATM   24  N2  UNL     1      27.545  -0.556  54.896  1.00  0.00    -0.217 N 
HETATM   25  C21 UNL     1      26.663   1.174  53.667  1.00  0.00     0.079 A 
HETATM   26  N1  UNL     1      28.547   0.419  54.671  1.00  0.00    -0.162 NA
HETATM   27  H4  UNL     1      27.790  -1.415  55.446  1.00  0.00     0.210 HD
HETATM   28  C2  UNL     1      28.070   1.399  53.982  1.00  0.00     0.080 A 
HETATM   29  C1  UNL     1      28.782   2.642  53.517  1.00  0.00     0.075 C 
HETATM   30  C20 UNL     1      25.691   1.802  53.019  1.00  0.00     0.045 A 
ENDBRANCH   1  20
TORSDOF 7
ENDMDL
MODEL 3
REMARK VINA RESULT:      -8.7      2.700      6.736
REMARK  7 active torsions:
REMARK  status: ('A' for Active; 'I' for Inactive)
REMARK    1  A    between atoms: C5_8  and  C6_9 
REMARK    2  A    between atoms: C9_13  and  O1_14 
REMARK    3  A    between atoms: O1_14  and  C10_15 
REMARK    4  A    between atoms: C10_15  and  C11_16 
REMARK    5  A    between atoms: C11_16  and  N5_17 
REMARK    6  A    between atoms: C11_16  and  C12_18 
REMARK    7  A    between atoms: C12_18  and  C13_19 
ROOT
HETATM    1  C6  UNL     1      21.693  -0.353  53.105  1.00  0.00    -0.006 A 
HETATM    2  C7  UNL     1      21.099  -0.945  54.196  1.00  0.00     0.128 A 
HETATM    3  N4  UNL     1      21.756  -1.472  55.248  1.00  0.00    -0.269 NA
HETATM    4  C8  UNL     1      23.116  -1.440  55.278  1.00  0.00     0.152 A 
HETATM    5  C9  UNL     1      23.735  -0.850  54.194  1.00  0.00     0.087 A 
HETATM    6  C19 UNL     1      23.069  -0.313  53.123  1.00  0.00     0.052 A 
ENDROOT
BRANCH   5   7
HETATM    7  O1  UNL     1      25.122  -0.834  54.256  1.00  0.00    -0.348 OA
BRANCH   7   8
HETATM    8  C10 UNL     1      25.900  -0.786  53.074  1.00  0.00     0.200 C 
BRANCH   8   9
HETATM    9  C11 UNL     1      27.162   0.015  53.325  1.00  0.00     0.102 C 
BRANCH   9  10
HETATM   10  N5  UNL     1      28.046  -0.684  54.211  1.00  0.00    -0.424 N 
HETATM   11  H13 UNL     1      27.659  -1.536  54.623  1.00  0.00     0.150 HD
HETATM   12  H14 UNL     1      29.006  -0.721  53.851  1.00  0.00     0.150 HD
ENDBRANCH   9  10
BRANCH   9  13
HETATM   13  C12 UNL     1      26.899   1.424  53.701  1.00  0.00     0.065 C 
BRANCH  13  14
HETATM   14  C13 UNL     1      26.044   2.191  52.788  1.00  0.00    -0.056 A 
HETATM   15  C14 UNL     1      24.925   2.721  53.424  1.00  0.00     0.007 A 
HETATM   16  C15 UNL     1      24.001   3.481  52.701  1.00  0.00     0.001 A 
HETATM   17  C16 UNL     1      24.236   3.685  51.348  1.00  0.00     0.000 A 
HETATM   18  C17 UNL     1      25.349   3.154  50.733  1.00  0.00     0.001 A 
HETATM   19  C18 UNL     1      26.263   2.404  51.441  1.00  0.00     0.007 A 
ENDBRANCH  13  14
ENDBRANCH   9  13
ENDBRANCH   8   9
ENDBRANCH   7   8
ENDBRANCH   5   7
BRANCH   1  20
HETATM   20  C5  UNL     1      20.961   0.202  51.997  1.00  0.00    -0.024 A 
HETATM   21  C4  UNL     1      19.648   0.151  51.883  1.00  0.00     0.007 A 
HETATM   22  C3  UNL     1      18.757   0.667  50.820  1.00  0.00     0.179 A 
HETATM   23  N3  UNL     1      19.558   1.298  49.811  1.00  0.00    -0.271 N 
HETATM   24  N2  UNL     1      19.129   1.924  48.618  1.00  0.00    -0.217 N 
HETATM   25  C21 UNL     1      20.996   1.398  49.850  1.00  0.00     0.079 A 
HETATM   26  N1  UNL     1      20.283   2.397  47.946  1.00  0.00    -0.162 NA
HETATM   27  H4  UNL     1      18.188   2.087  48.181  1.00  0.00     0.210 HD
HETATM   28  C2  UNL     1      21.342   2.111  48.624  1.00  0.00     0.080 A 
HETATM   29  C1  UNL     1      22.776   2.423  48.285  1.00  0.00     0.075 C 
HETATM   30  C20 UNL     1      21.628   0.874  50.892  1.00  0.00     0.045 A 
ENDBRANCH   1  20
TORSDOF 7
ENDMDL
MODEL 4
REMARK VINA RESULT:      -8.6      1.066      1.176
REMARK  7 active torsions:
REMARK  status: ('A' for Active; 'I' for Inactive)
REMARK    1  A    between atoms: C5_8  and  C6_9 
REMARK    2  A    between atoms: C9_13  and  O1_14 
REMARK    3  A    between atoms: O1_14  and  C10_15 
REMARK    4  A    between atoms: C10_15  and  C11_16 
REMARK    5  A    between atoms: C11_16  and  N5_17 
REMARK    6  A    between atoms: C11_16  and  C12_18 
REMARK    7  A    between atoms: C12_18  and  C13_19 
ROOT
HETATM    1  C6  UNL     1      24.205   0.413  53.043  1.00  0.00    -0.006 A 
HETATM    2  C7  UNL     1      23.523  -0.613  53.658  1.00  0.00     0.128 A 
HETATM    3  N4  UNL     1      22.202  -0.849  53.537  1.00  0.00    -0.269 NA
HETATM    4  C8  UNL     1      21.440  -0.035  52.758  1.00  0.00     0.152 A 
HETATM    5  C9  UNL     1      22.102   1.001  52.131  1.00  0.00     0.087 A 
HETATM    6  C19 UNL     1      23.445   1.244  52.250  1.00  0.00     0.052 A 
ENDROOT
BRANCH   5   7
HETATM    7  O1  UNL     1      21.295   1.812  51.343  1.00  0.00    -0.348 OA
BRANCH   7   8
HETATM    8  C10 UNL     1      21.558   3.198  51.222  1.00  0.00     0.200 C 
BRANCH   8   9
HETATM    9  C11 UNL     1      21.712   3.564  49.759  1.00  0.00     0.102 C 
BRANCH   9  10
HETATM   10  N5  UNL     1      20.469   3.422  49.061  1.00  0.00    -0.424 N 
HETATM   11  H13 UNL     1      19.707   4.007  49.412  1.00  0.00     0.150 HD
HETATM   12  H14 UNL     1      20.599   3.367  48.045  1.00  0.00     0.150 HD
ENDBRANCH   9  10
BRANCH   9  13
HETATM   13  C12 UNL     1      22.866   2.901  49.107  1.00  0.00     0.065 C 
BRANCH  13  14
HETATM   14  C13 UNL     1      24.154   3.598  49.202  1.00  0.00    -0.056 A 
HETATM   15  C14 UNL     1      24.061   4.940  48.843  1.00  0.00     0.007 A 
HETATM   16  C15 UNL     1      25.198   5.754  48.875  1.00  0.00     0.001 A 
HETATM   17  C16 UNL     1      26.400   5.186  49.273  1.00  0.00     0.000 A 
HETATM   18  C17 UNL     1      26.475   3.856  49.626  1.00  0.00     0.001 A 
HETATM   19  C18 UNL     1      25.359   3.048  49.595  1.00  0.00     0.007 A 
ENDBRANCH  13  14
ENDBRANCH   9  13
ENDBRANCH   8   9
ENDBRANCH   7   8
ENDBRANCH   5   7
BRANCH   1  20
HETATM   20  C5  UNL     1      25.619   0.637  53.192  1.00  0.00    -0.024 A 
HETATM   21  C4  UNL     1      26.163   1.830  53.341  1.00  0.00     0.007 A 
HETATM   22  C3  UNL     1      27.580   2.223  53.504  1.00  0.00     0.179 A 
HETATM   23  N3  UNL     1      28.394   1.042  53.479  1.00  0.00    -0.271 N 
HETATM   24  N2  UNL     1      29.800   0.945  53.598  1.00  0.00    -0.217 N 
HETATM   25  C21 UNL     1      27.888  -0.298  53.319  1.00  0.00     0.079 A 
HETATM   26  N1  UNL     1      30.141  -0.427  53.513  1.00  0.00    -0.162 NA
HETATM   27  H4  UNL     1      30.568   1.649  53.728  1.00  0.00     0.210 HD
HETATM   28  C2  UNL     1      29.079  -1.141  53.356  1.00  0.00     0.080 A 
HETATM   29  C1  UNL     1      28.977  -2.638  53.220  1.00  0.00     0.075 C 
HETATM   30  C20 UNL     1      26.578  -0.458  53.186  1.00  0.00     0.045 A 
ENDBRANCH   1  20
TORSDOF 7
ENDMDL
MODEL 5
REMARK VINA RESULT:      -8.5      0.967      1.981
REMARK  7 active torsions:
REMARK  status: ('A' for Active; 'I' for Inactive)
REMARK    1  A    between atoms: C5_8  and  C6_9 
REMARK    2  A    between atoms: C9_13  and  O1_14 
REMARK    3  A    between atoms: O1_14  and  C10_15 
REMARK    4  A    between atoms: C10_15  and  C11_16 
REMARK    5  A    between atoms: C11_16  and  N5_17 
REMARK    6  A    between atoms: C11_16  and  C12_18 
REMARK    7  A    between atoms: C12_18  and  C13_19 
ROOT
HETATM    1  C6  UNL     1      24.199   0.280  53.068  1.00  0.00    -0.006 A 
HETATM    2  C7  UNL     1      23.180  -0.260  53.818  1.00  0.00     0.128 A 
HETATM    3  N4  UNL     1      21.904   0.175  53.823  1.00  0.00    -0.269 NA
HETATM    4  C8  UNL     1      21.549   1.231  53.041  1.00  0.00     0.152 A 
HETATM    5  C9  UNL     1      22.555   1.789  52.279  1.00  0.00     0.087 A 
HETATM    6  C19 UNL     1      23.853   1.348  52.271  1.00  0.00     0.052 A 
ENDROOT
BRANCH   5   7
HETATM    7  O1  UNL     1      22.159   2.863  51.492  1.00  0.00    -0.348 OA
BRANCH   7   8
HETATM    8  C10 UNL     1      21.964   4.145  52.061  1.00  0.00     0.200 C 
BRANCH   8   9
HETATM    9  C11 UNL     1      22.794   5.168  51.312  1.00  0.00     0.102 C 
BRANCH   9  10
HETATM   10  N5  UNL     1      22.223   6.478  51.430  1.00  0.00    -0.424 N 
HETATM   11  H13 UNL     1      21.226   6.495  51.661  1.00  0.00     0.150 HD
HETATM   12  H14 UNL     1      22.840   7.126  51.931  1.00  0.00     0.150 HD
ENDBRANCH   9  10
BRANCH   9  13
HETATM   13  C12 UNL     1      23.119   4.760  49.925  1.00  0.00     0.065 C 
BRANCH  13  14
HETATM   14  C13 UNL     1      24.542   4.757  49.566  1.00  0.00    -0.056 A 
HETATM   15  C14 UNL     1      25.143   3.519  49.781  1.00  0.00     0.007 A 
HETATM   16  C15 UNL     1      26.499   3.339  49.492  1.00  0.00     0.001 A 
HETATM   17  C16 UNL     1      27.212   4.419  48.991  1.00  0.00     0.000 A 
HETATM   18  C17 UNL     1      26.602   5.637  48.783  1.00  0.00     0.001 A 
HETATM   19  C18 UNL     1      25.266   5.822  49.066  1.00  0.00     0.007 A 
ENDBRANCH  13  14
ENDBRANCH   9  13
ENDBRANCH   8   9
ENDBRANCH   7   8
ENDBRANCH   5   7
BRANCH   1  20
HETATM   20  C5  UNL     1      25.553  -0.210  53.085  1.00  0.00    -0.024 A 
HETATM   21  C4  UNL     1      25.894  -1.442  52.760  1.00  0.00     0.007 A 
HETATM   22  C3  UNL     1      27.223  -2.092  52.727  1.00  0.00     0.179 A 
HETATM   23  N3  UNL     1      28.214  -1.137  53.131  1.00  0.00    -0.271 N 
HETATM   24  N2  UNL     1      29.612  -1.322  53.245  1.00  0.00    -0.217 N 
HETATM   25  C21 UNL     1      27.935   0.227  53.504  1.00  0.00     0.079 A 
HETATM   26  N1  UNL     1      30.170  -0.094  53.678  1.00  0.00    -0.162 NA
HETATM   27  H4  UNL     1      30.252  -2.137  53.080  1.00  0.00     0.210 HD
HETATM   28  C2  UNL     1      29.242   0.789  53.829  1.00  0.00     0.080 A 
HETATM   29  C1  UNL     1      29.385   2.221  54.272  1.00  0.00     0.075 C 
HETATM   30  C20 UNL     1      26.673   0.635  53.472  1.00  0.00     0.045 A 
ENDBRANCH   1  20
TORSDOF 7
ENDMDL
MODEL 6
REMARK VINA RESULT:      -8.4      2.678      4.072
REMARK  7 active torsions:
REMARK  status: ('A' for Active; 'I' for Inactive)
REMARK    1  A    between atoms: C5_8  and  C6_9 
REMARK    2  A    between atoms: C9_13  and  O1_14 
REMARK    3  A    between atoms: O1_14  and  C10_15 
REMARK    4  A    between atoms: C10_15  and  C11_16 
REMARK    5  A    between atoms: C11_16  and  N5_17 
REMARK    6  A    between atoms: C11_16  and  C12_18 
REMARK    7  A    between atoms: C12_18  and  C13_19 
ROOT
HETATM    1  C6  UNL     1      20.928   0.119  52.176  1.00  0.00    -0.006 A 
HETATM    2  C7  UNL     1      19.595  -0.054  52.472  1.00  0.00     0.128 A 
HETATM    3  N4  UNL     1      18.570   0.278  51.661  1.00  0.00    -0.269 NA
HETATM    4  C8  UNL     1      18.824   0.831  50.445  1.00  0.00     0.152 A 
HETATM    5  C9  UNL     1      20.155   1.015  50.126  1.00  0.00     0.087 A 
HETATM    6  C19 UNL     1      21.199   0.678  50.947  1.00  0.00     0.052 A 
ENDROOT
BRANCH   5   7
HETATM    7  O1  UNL     1      20.379   1.582  48.878  1.00  0.00    -0.348 OA
BRANCH   7   8
HETATM    8  C10 UNL     1      21.685   1.648  48.336  1.00  0.00     0.200 C 
BRANCH   8   9
HETATM    9  C11 UNL     1      22.000   3.075  47.933  1.00  0.00     0.102 C 
BRANCH   9  10
HETATM   10  N5  UNL     1      21.932   3.233  46.510  1.00  0.00    -0.424 N 
HETATM   11  H13 UNL     1      21.322   3.989  46.188  1.00  0.00     0.150 HD
HETATM   12  H14 UNL     1      22.851   3.139  46.066  1.00  0.00     0.150 HD
ENDBRANCH   9  10
BRANCH   9  13
HETATM   13  C12 UNL     1      23.238   3.602  48.554  1.00  0.00     0.065 C 
BRANCH  13  14
HETATM   14  C13 UNL     1      23.261   3.645  50.021  1.00  0.00    -0.056 A 
HETATM   15  C14 UNL     1      24.427   3.100  50.552  1.00  0.00     0.007 A 
HETATM   16  C15 UNL     1      24.614   3.059  51.937  1.00  0.00     0.001 A 
HETATM   17  C16 UNL     1      23.614   3.574  52.750  1.00  0.00     0.000 A 
HETATM   18  C17 UNL     1      22.466   4.111  52.208  1.00  0.00     0.001 A 
HETATM   19  C18 UNL     1      22.274   4.153  50.844  1.00  0.00     0.007 A 
ENDBRANCH  13  14
ENDBRANCH   9  13
ENDBRANCH   8   9
ENDBRANCH   7   8
ENDBRANCH   5   7
BRANCH   1  20
HETATM   20  C5  UNL     1      22.000  -0.247  53.065  1.00  0.00    -0.024 A 
HETATM   21  C4  UNL     1      21.818  -0.708  54.287  1.00  0.00     0.007 A 
HETATM   22  C3  UNL     1      22.801  -1.124  55.311  1.00  0.00     0.179 A 
HETATM   23  N3  UNL     1      24.122  -0.953  54.779  1.00  0.00    -0.271 N 
HETATM   24  N2  UNL     1      25.361  -1.222  55.409  1.00  0.00    -0.217 N 
HETATM   25  C21 UNL     1      24.417  -0.454  53.459  1.00  0.00     0.079 A 
HETATM   26  N1  UNL     1      26.386  -0.894  54.487  1.00  0.00    -0.162 NA
HETATM   27  H4  UNL     1      25.630  -1.590  56.354  1.00  0.00     0.210 HD
HETATM   28  C2  UNL     1      25.874  -0.462  53.386  1.00  0.00     0.080 A 
HETATM   29  C1  UNL     1      26.593  -0.005  52.144  1.00  0.00     0.075 C 
HETATM   30  C20 UNL     1      23.397  -0.130  52.675  1.00  0.00     0.045 A 
ENDBRANCH   1  20
TORSDOF 7
ENDMDL
MODEL 7
REMARK VINA RESULT:      -8.3      2.304      5.739
REMARK  7 active torsions:
REMARK  status: ('A' for Active; 'I' for Inactive)
REMARK    1  A    between atoms: C5_8  and  C6_9 
REMARK    2  A    between atoms: C9_13  and  O1_14 
REMARK    3  A    between atoms: O1_14  and  C10_15 
REMARK    4  A    between atoms: C10_15  and  C11_16 
REMARK    5  A    between atoms: C11_16  and  N5_17 
REMARK    6  A    between atoms: C11_16  and  C12_18 
REMARK    7  A    between atoms: C12_18  and  C13_19 
ROOT
HETATM    1  C6  UNL     1      24.524   0.394  53.090  1.00  0.00    -0.006 A 
HETATM    2  C7  UNL     1      25.592   0.109  53.910  1.00  0.00     0.128 A 
HETATM    3  N4  UNL     1      26.856   0.532  53.713  1.00  0.00    -0.269 NA
HETATM    4  C8  UNL     1      27.149   1.303  52.631  1.00  0.00     0.152 A 
HETATM    5  C9  UNL     1      26.092   1.602  51.794  1.00  0.00     0.087 A 
HETATM    6  C19 UNL     1      24.806   1.174  51.991  1.00  0.00     0.052 A 
ENDROOT
BRANCH   5   7
HETATM    7  O1  UNL     1      26.425   2.391  50.700  1.00  0.00    -0.348 OA
BRANCH   7   8
HETATM    8  C10 UNL     1      25.427   3.094  49.983  1.00  0.00     0.200 C 
BRANCH   8   9
HETATM    9  C11 UNL     1      25.561   4.581  50.245  1.00  0.00     0.102 C 
BRANCH   9  10
HETATM   10  N5  UNL     1      24.593   5.022  51.205  1.00  0.00    -0.424 N 
HETATM   11  H13 UNL     1      24.872   4.910  52.183  1.00  0.00     0.150 HD
HETATM   12  H14 UNL     1      24.153   5.907  50.933  1.00  0.00     0.150 HD
ENDBRANCH   9  10
BRANCH   9  13
HETATM   13  C12 UNL     1      25.617   5.393  49.007  1.00  0.00     0.065 C 
BRANCH  13  14
HETATM   14  C13 UNL     1      26.955   5.781  48.545  1.00  0.00    -0.056 A 
HETATM   15  C14 UNL     1      26.997   7.091  48.077  1.00  0.00     0.007 A 
HETATM   16  C15 UNL     1      28.197   7.625  47.597  1.00  0.00     0.001 A 
HETATM   17  C16 UNL     1      29.325   6.817  47.604  1.00  0.00     0.000 A 
HETATM   18  C17 UNL     1      29.266   5.522  48.072  1.00  0.00     0.001 A 
HETATM   19  C18 UNL     1      28.087   4.989  48.546  1.00  0.00     0.007 A 
ENDBRANCH  13  14
ENDBRANCH   9  13
ENDBRANCH   8   9
ENDBRANCH   7   8
ENDBRANCH   5   7
BRANCH   1  20
HETATM   20  C5  UNL     1      23.183  -0.073  53.329  1.00  0.00    -0.024 A 
HETATM   21  C4  UNL     1      22.853  -0.890  54.311  1.00  0.00     0.007 A 
HETATM   22  C3  UNL     1      21.538  -1.456  54.686  1.00  0.00     0.179 A 
HETATM   23  N3  UNL     1      20.547  -0.970  53.769  1.00  0.00    -0.271 N 
HETATM   24  N2  UNL     1      19.161  -1.251  53.748  1.00  0.00    -0.217 N 
HETATM   25  C21 UNL     1      20.816  -0.078  52.669  1.00  0.00     0.079 A 
HETATM   26  N1  UNL     1      18.600  -0.543  52.657  1.00  0.00    -0.162 NA
HETATM   27  H4  UNL     1      18.531  -1.840  54.347  1.00  0.00     0.210 HD
HETATM   28  C2  UNL     1      19.515   0.122  52.039  1.00  0.00     0.080 A 
HETATM   29  C1  UNL     1      19.363   1.008  50.830  1.00  0.00     0.075 C 
HETATM   30  C20 UNL     1      22.066   0.327  52.487  1.00  0.00     0.045 A 
ENDBRANCH   1  20
TORSDOF 7
ENDMDL
MODEL 8
REMARK VINA RESULT:      -8.2      1.762      4.615
REMARK  7 active torsions:
REMARK  status: ('A' for Active; 'I' for Inactive)
REMARK    1  A    between atoms: C5_8  and  C6_9 
REMARK    2  A    between atoms: C9_13  and  O1_14 
REMARK    3  A    between atoms: O1_14  and  C10_15 
REMARK    4  A    between atoms: C10_15  and  C11_16 
REMARK    5  A    between atoms: C11_16  and  N5_17 
REMARK    6  A    between atoms: C11_16  and  C12_18 
REMARK    7  A    between atoms: C12_18  and  C13_19 
ROOT
HETATM    1  C6  UNL     1      25.841   2.888  51.126  1.00  0.00    -0.006 A 
HETATM    2  C7  UNL     1      26.241   3.604  50.020  1.00  0.00     0.128 A 
HETATM    3  N4  UNL     1      25.429   4.342  49.238  1.00  0.00    -0.269 NA
HETATM    4  C8  UNL     1      24.101   4.416  49.524  1.00  0.00     0.152 A 
HETATM    5  C9  UNL     1      23.677   3.706  50.629  1.00  0.00     0.087 A 
HETATM    6  C19 UNL     1      24.499   2.955  51.426  1.00  0.00     0.052 A 
ENDROOT
BRANCH   5   7
HETATM    7  O1  UNL     1      22.316   3.803  50.893  1.00  0.00    -0.348 OA
BRANCH   7   8
HETATM    8  C10 UNL     1      21.395   2.920  50.280  1.00  0.00     0.200 C 
BRANCH   8   9
HETATM    9  C11 UNL     1      20.886   1.923  51.303  1.00  0.00     0.102 C 
BRANCH   9  10
HETATM   10  N5  UNL     1      20.821   2.513  52.607  1.00  0.00    -0.424 N 
HETATM   11  H13 UNL     1      20.076   2.152  53.208  1.00  0.00     0.150 HD
HETATM   12  H14 UNL     1      21.751   2.638  53.023  1.00  0.00     0.150 HD
ENDBRANCH   9  10
BRANCH   9  13
HETATM   13  C12 UNL     1      21.586   0.617  51.250  1.00  0.00     0.065 C 
BRANCH  13  14
HETATM   14  C13 UNL     1      21.836  -0.038  52.539  1.00  0.00    -0.056 A 
HETATM   15  C14 UNL     1      23.182  -0.021  52.893  1.00  0.00     0.007 A 
HETATM   16  C15 UNL     1      23.598  -0.604  54.094  1.00  0.00     0.001 A 
HETATM   17  C16 UNL     1      22.637  -1.190  54.906  1.00  0.00     0.000 A 
HETATM   18  C17 UNL     1      21.309  -1.198  54.541  1.00  0.00     0.001 A 
HETATM   19  C18 UNL     1      20.892  -0.625  53.358  1.00  0.00     0.007 A 
ENDBRANCH  13  14
ENDBRANCH   9  13
ENDBRANCH   8   9
ENDBRANCH   7   8
ENDBRANCH   5   7
BRANCH   1  20
HETATM   20  C5  UNL     1      26.735   2.109  51.942  1.00  0.00    -0.024 A 
HETATM   21  C4  UNL     1      27.659   2.630  52.725  1.00  0.00     0.007 A 
HETATM   22  C3  UNL     1      28.643   1.974  53.615  1.00  0.00     0.179 A 
HETATM   23  N3  UNL     1      28.470   0.553  53.527  1.00  0.00    -0.271 N 
HETATM   24  N2  UNL     1      29.192  -0.460  54.201  1.00  0.00    -0.217 N 
HETATM   25  C21 UNL     1      27.490  -0.104  52.699  1.00  0.00     0.079 A 
HETATM   26  N1  UNL     1      28.659  -1.707  53.791  1.00  0.00    -0.162 NA
HETATM   27  H4  UNL     1      29.982  -0.451  54.892  1.00  0.00     0.210 HD
HETATM   28  C2  UNL     1      27.702  -1.527  52.946  1.00  0.00     0.080 A 
HETATM   29  C1  UNL     1      26.861  -2.570  52.258  1.00  0.00     0.075 C 
HETATM   30  C20 UNL     1      26.687   0.654  51.964  1.00  0.00     0.045 A 
ENDBRANCH   1  20
TORSDOF 7
ENDMDL
MODEL 9
REMARK VINA RESULT:      -8.2      2.596      4.862
REMARK  7 active torsions:
REMARK  status: ('A' for Active; 'I' for Inactive)
REMARK    1  A    between atoms: C5_8  and  C6_9 
REMARK    2  A    between atoms: C9_13  and  O1_14 
REMARK    3  A    between atoms: O1_14  and  C10_15 
REMARK    4  A    between atoms: C10_15  and  C11_16 
REMARK    5  A    between atoms: C11_16  and  N5_17 
REMARK    6  A    between atoms: C11_16  and  C12_18 
REMARK    7  A    between atoms: C12_18  and  C13_19 
ROOT
HETATM    1  C6  UNL     1      25.379   1.979  51.958  1.00  0.00    -0.006 A 
HETATM    2  C7  UNL     1      26.468   1.838  51.129  1.00  0.00     0.128 A 
HETATM    3  N4  UNL     1      26.852   2.727  50.193  1.00  0.00    -0.269 NA
HETATM    4  C8  UNL     1      26.138   3.871  50.016  1.00  0.00     0.152 A 
HETATM    5  C9  UNL     1      25.040   4.036  50.837  1.00  0.00     0.087 A 
HETATM    6  C19 UNL     1      24.647   3.134  51.790  1.00  0.00     0.052 A 
ENDROOT
BRANCH   5   7
HETATM    7  O1  UNL     1      24.333   5.214  50.631  1.00  0.00    -0.348 OA
BRANCH   7   8
HETATM    8  C10 UNL     1      23.374   5.658  51.573  1.00  0.00     0.200 C 
BRANCH   8   9
HETATM    9  C11 UNL     1      22.036   5.850  50.887  1.00  0.00     0.102 C 
BRANCH   9  10
HETATM   10  N5  UNL     1      21.509   7.158  51.148  1.00  0.00    -0.424 N 
HETATM   11  H13 UNL     1      20.519   7.278  50.920  1.00  0.00     0.150 HD
HETATM   12  H14 UNL     1      21.844   7.540  52.039  1.00  0.00     0.150 HD
ENDBRANCH   9  10
BRANCH   9  13
HETATM   13  C12 UNL     1      21.084   4.741  51.134  1.00  0.00     0.065 C 
BRANCH  13  14
HETATM   14  C13 UNL     1      21.289   3.522  50.343  1.00  0.00    -0.056 A 
HETATM   15  C14 UNL     1      21.003   2.366  51.063  1.00  0.00     0.007 A 
HETATM   16  C15 UNL     1      21.145   1.112  50.461  1.00  0.00     0.001 A 
HETATM   17  C16 UNL     1      21.573   1.063  49.141  1.00  0.00     0.000 A 
HETATM   18  C17 UNL     1      21.850   2.217  48.442  1.00  0.00     0.001 A 
HETATM   19  C18 UNL     1      21.713   3.456  49.030  1.00  0.00     0.007 A 
ENDBRANCH  13  14
ENDBRANCH   9  13
ENDBRANCH   8   9
ENDBRANCH   7   8
ENDBRANCH   5   7
BRANCH   1  20
HETATM   20  C5  UNL     1      24.996   1.009  52.950  1.00  0.00    -0.024 A 
HETATM   21  C4  UNL     1      25.835   0.463  53.809  1.00  0.00     0.007 A 
HETATM   22  C3  UNL     1      25.601  -0.536  54.875  1.00  0.00     0.179 A 
HETATM   23  N3  UNL     1      24.211  -0.889  54.880  1.00  0.00    -0.271 N 
HETATM   24  N2  UNL     1      23.544  -1.805  55.728  1.00  0.00    -0.217 N 
HETATM   25  C21 UNL     1      23.224  -0.347  53.981  1.00  0.00     0.079 A 
HETATM   26  N1  UNL     1      22.179  -1.817  55.350  1.00  0.00    -0.162 NA
HETATM   27  H4  UNL     1      23.855  -2.423  56.517  1.00  0.00     0.210 HD
HETATM   28  C2  UNL     1      21.980  -1.003  54.370  1.00  0.00     0.080 A 
HETATM   29  C1  UNL     1      20.686  -0.703  53.660  1.00  0.00     0.075 C 
HETATM   30  C20 UNL     1      23.623   0.545  53.084  1.00  0.00     0.045 A 
ENDBRANCH   1  20
TORSDOF 7
ENDMDL
