MODEL 1
REMARK VINA RESULT:      -7.2      0.000      0.000
REMARK  10 active torsions:
REMARK  status: ('A' for Active; 'I' for Inactive)
REMARK    1  A    between atoms: C2_2  and  N1_3 
REMARK    2  A    between atoms: N1_3  and  C3_4 
REMARK    3  A    between atoms: N1_3  and  C5_6 
REMARK    4  A    between atoms: C5_6  and  C6_7 
REMARK    5  A    between atoms: C6_7  and  C7_8 
REMARK    6  A    between atoms: C7_8  and  O1_9 
REMARK    7  A    between atoms: O1_9  and  C8_10 
REMARK    8  A    between atoms: C11_13  and  N2_14 
REMARK    9  A    between atoms: N2_14  and  C12_15 
REMARK   10  A    between atoms: C20_26  and  O2_27 
ROOT
HETATM    1  C8  UNL     1      24.036  -0.030  53.296  1.00  0.00     0.103 C 
HETATM    2  C9  UNL     1      23.497   1.226  52.993  1.00  0.00     0.051 C 
HETATM    3  C10 UNL     1      24.574   2.143  52.611  1.00  0.00    -0.005 C 
HETATM    4  C11 UNL     1      24.945   2.800  51.515  1.00  0.00     0.134 C 
HETATM    5  N3  UNL     1      26.248   2.398  50.927  1.00  0.00    -0.242 NA
HETATM    6  C18 UNL     1      26.831   1.382  51.624  1.00  0.00     0.129 C 
HETATM    7  C19 UNL     1      26.116   0.927  52.812  1.00  0.00    -0.000 C 
HETATM    8  C20 UNL     1      25.550  -0.192  53.179  1.00  0.00     0.109 C 
HETATM    9  C22 UNL     1      25.729   2.156  53.707  1.00  0.00     0.085 C 
ENDROOT
BRANCH   4  10
HETATM   10  N2  UNL     1      23.751   3.603  51.307  1.00  0.00    -0.341 N 
HETATM   11  H18 UNL     1      23.294   4.154  52.036  1.00  0.00     0.167 HD
BRANCH  10  12
HETATM   12  C12 UNL     1      23.275   3.511  49.959  1.00  0.00     0.035 A 
HETATM   13  C13 UNL     1      22.890   2.313  49.448  1.00  0.00     0.032 A 
HETATM   14  C14 UNL     1      22.436   2.320  48.127  1.00  0.00     0.046 A 
HETATM   15  C15 UNL     1      22.381   3.478  47.381  1.00  0.00     0.138 A 
HETATM   16  F1  UNL     1      21.929   3.431  46.086  1.00  0.00    -0.204 F 
HETATM   17  C16 UNL     1      22.792   4.649  47.982  1.00  0.00     0.074 A 
HETATM   18 CL1  UNL     1      22.703   6.098  47.006  1.00  0.00    -0.081 Cl
HETATM   19  C17 UNL     1      23.257   4.714  49.297  1.00  0.00     0.056 A 
ENDBRANCH  10  12
ENDBRANCH   4  10
BRANCH   1  20
HETATM   20  O1  UNL     1      23.218  -1.003  53.661  1.00  0.00    -0.348 OA
BRANCH  20  21
HETATM   21  C7  UNL     1      22.570  -1.082  54.959  1.00  0.00     0.177 C 
BRANCH  21  22
HETATM   22  C6  UNL     1      21.182  -0.634  54.754  1.00  0.00     0.046 C 
BRANCH  22  23
HETATM   23  C5  UNL     1      20.236  -1.314  53.873  1.00  0.00     0.119 C 
BRANCH  23  24
HETATM   24  N1  UNL     1      19.286  -0.706  53.090  1.00  0.00    -0.413 N 
BRANCH  24  25
HETATM   25  C2  UNL     1      17.923  -1.159  53.292  1.00  0.00     0.112 C 
HETATM   26  C1  UNL     1      17.851  -2.612  53.628  1.00  0.00     0.026 C 
ENDBRANCH  24  25
BRANCH  24  27
HETATM   27  C3  UNL     1      19.411   0.506  52.435  1.00  0.00     0.112 C 
HETATM   28  C4  UNL     1      20.361   0.312  51.239  1.00  0.00     0.026 C 
ENDBRANCH  24  27
ENDBRANCH  23  24
ENDBRANCH  22  23
ENDBRANCH  21  22
ENDBRANCH  20  21
ENDBRANCH   1  20
BRANCH   8  29
HETATM   29  O2  UNL     1      26.297  -1.239  53.373  1.00  0.00    -0.352 OA
HETATM   30  C21 UNL     1      26.991  -2.073  52.535  1.00  0.00     0.210 C 
ENDBRANCH   8  29
TORSDOF 10
ENDMDL
MODEL 2
REMARK VINA RESULT:      -7.2      2.640      5.718
REMARK  10 active torsions:
REMARK  status: ('A' for Active; 'I' for Inactive)
REMARK    1  A    between atoms: C2_2  and  N1_3 
REMARK    2  A    between atoms: N1_3  and  C3_4 
REMARK    3  A    between atoms: N1_3  and  C5_6 
REMARK    4  A    between atoms: C5_6  and  C6_7 
REMARK    5  A    between atoms: C6_7  and  C7_8 
REMARK    6  A    between atoms: C7_8  and  O1_9 
REMARK    7  A    between atoms: O1_9  and  C8_10 
REMARK    8  A    between atoms: C11_13  and  N2_14 
REMARK    9  A    between atoms: N2_14  and  C12_15 
REMARK   10  A    between atoms: C20_26  and  O2_27 
ROOT
HETATM    1  C8  UNL     1      23.444   1.001  52.607  1.00  0.00     0.103 C 
HETATM    2  C9  UNL     1      23.578   1.460  51.292  1.00  0.00     0.051 C 
HETATM    3  C10 UNL     1      22.251   1.664  50.706  1.00  0.00    -0.005 C 
HETATM    4  C11 UNL     1      21.532   2.693  50.265  1.00  0.00     0.134 C 
HETATM    5  N3  UNL     1      20.294   2.995  51.026  1.00  0.00    -0.242 NA
HETATM    6  C18 UNL     1      20.127   2.150  52.084  1.00  0.00     0.129 C 
HETATM    7  C19 UNL     1      21.136   1.108  52.238  1.00  0.00    -0.000 C 
HETATM    8  C20 UNL     1      22.027   0.809  53.145  1.00  0.00     0.109 C 
HETATM    9  C22 UNL     1      21.347   0.363  50.872  1.00  0.00     0.085 C 
ENDROOT
BRANCH   4  10
HETATM   10  N2  UNL     1      22.422   3.169  49.219  1.00  0.00    -0.341 N 
HETATM   11  H18 UNL     1      22.473   2.768  48.280  1.00  0.00     0.167 HD
BRANCH  10  12
HETATM   12  C12 UNL     1      23.240   4.256  49.667  1.00  0.00     0.035 A 
HETATM   13  C13 UNL     1      22.763   5.142  50.580  1.00  0.00     0.032 A 
HETATM   14  C14 UNL     1      23.632   6.167  50.962  1.00  0.00     0.046 A 
HETATM   15  C15 UNL     1      24.904   6.276  50.442  1.00  0.00     0.138 A 
HETATM   16  F1  UNL     1      25.718   7.303  50.848  1.00  0.00    -0.204 F 
HETATM   17  C16 UNL     1      25.304   5.332  49.520  1.00  0.00     0.074 A 
HETATM   18 CL1  UNL     1      26.926   5.499  48.887  1.00  0.00    -0.081 Cl
HETATM   19  C17 UNL     1      24.488   4.282  49.094  1.00  0.00     0.056 A 
ENDBRANCH  10  12
ENDBRANCH   4  10
BRANCH   1  20
HETATM   20  O1  UNL     1      24.537   0.760  53.313  1.00  0.00    -0.348 OA
BRANCH  20  21
HETATM   21  C7  UNL     1      24.958  -0.562  53.743  1.00  0.00     0.177 C 
BRANCH  21  22
HETATM   22  C6  UNL     1      25.998  -0.992  52.794  1.00  0.00     0.046 C 
BRANCH  22  23
HETATM   23  C5  UNL     1      27.197  -0.211  52.501  1.00  0.00     0.119 C 
BRANCH  23  24
HETATM   24  N1  UNL     1      27.797   0.689  53.345  1.00  0.00    -0.413 N 
BRANCH  24  25
HETATM   25  C2  UNL     1      28.758   0.131  54.277  1.00  0.00     0.112 C 
HETATM   26  C1  UNL     1      29.809  -0.680  53.592  1.00  0.00     0.026 C 
ENDBRANCH  24  25
BRANCH  24  27
HETATM   27  C3  UNL     1      27.880   2.058  53.166  1.00  0.00     0.112 C 
HETATM   28  C4  UNL     1      27.155   2.418  51.857  1.00  0.00     0.026 C 
ENDBRANCH  24  27
ENDBRANCH  23  24
ENDBRANCH  22  23
ENDBRANCH  21  22
ENDBRANCH  20  21
ENDBRANCH   1  20
BRANCH   8  29
HETATM   29  O2  UNL     1      21.623   0.425  54.320  1.00  0.00    -0.352 OA
HETATM   30  C21 UNL     1      21.441  -0.803  54.901  1.00  0.00     0.210 C 
ENDBRANCH   8  29
TORSDOF 10
ENDMDL
MODEL 3
REMARK VINA RESULT:      -7.2      2.512      5.726
REMARK  10 active torsions:
REMARK  status: ('A' for Active; 'I' for Inactive)
REMARK    1  A    between atoms: C2_2  and  N1_3 
REMARK    2  A    between atoms: N1_3  and  C3_4 
REMARK    3  A    between atoms: N1_3  and  C5_6 
REMARK    4  A    between atoms: C5_6  and  C6_7 
REMARK    5  A    between atoms: C6_7  and  C7_8 
REMARK    6  A    between atoms: C7_8  and  O1_9 
REMARK    7  A    between atoms: O1_9  and  C8_10 
REMARK    8  A    between atoms: C11_13  and  N2_14 
REMARK    9  A    between atoms: N2_14  and  C12_15 
REMARK   10  A    between atoms: C20_26  and  O2_27 
ROOT
HETATM    1  C8  UNL     1      24.033   0.564  52.584  1.00  0.00     0.103 C 
HETATM    2  C9  UNL     1      24.640   1.764  52.198  1.00  0.00     0.051 C 
HETATM    3  C10 UNL     1      23.627   2.676  51.660  1.00  0.00    -0.005 C 
HETATM    4  C11 UNL     1      23.098   3.849  52.000  1.00  0.00     0.134 C 
HETATM    5  N3  UNL     1      21.656   3.835  52.352  1.00  0.00    -0.242 NA
HETATM    6  C18 UNL     1      21.127   2.580  52.283  1.00  0.00     0.129 C 
HETATM    7  C19 UNL     1      22.033   1.525  51.841  1.00  0.00    -0.000 C 
HETATM    8  C20 UNL     1      22.524   0.441  52.380  1.00  0.00     0.109 C 
HETATM    9  C22 UNL     1      22.764   1.967  50.525  1.00  0.00     0.085 C 
ENDROOT
BRANCH   4  10
HETATM   10  N2  UNL     1      24.303   4.662  51.984  1.00  0.00    -0.341 N 
HETATM   11  H18 UNL     1      24.984   4.697  52.745  1.00  0.00     0.167 HD
BRANCH  10  12
HETATM   12  C12 UNL     1      24.412   5.430  50.779  1.00  0.00     0.035 A 
HETATM   13  C13 UNL     1      25.327   5.096  49.833  1.00  0.00     0.032 A 
HETATM   14  C14 UNL     1      25.358   5.897  48.690  1.00  0.00     0.046 A 
HETATM   15  C15 UNL     1      24.507   6.970  48.528  1.00  0.00     0.138 A 
HETATM   16  F1  UNL     1      24.580   7.729  47.388  1.00  0.00    -0.204 F 
HETATM   17  C16 UNL     1      23.609   7.236  49.541  1.00  0.00     0.074 A 
HETATM   18 CL1  UNL     1      22.543   8.601  49.298  1.00  0.00    -0.081 Cl
HETATM   19  C17 UNL     1      23.524   6.476  50.709  1.00  0.00     0.056 A 
ENDBRANCH  10  12
ENDBRANCH   4  10
BRANCH   1  20
HETATM   20  O1  UNL     1      24.785  -0.393  53.102  1.00  0.00    -0.348 OA
BRANCH  20  21
HETATM   21  C7  UNL     1      25.049  -0.547  54.522  1.00  0.00     0.177 C 
BRANCH  21  22
HETATM   22  C6  UNL     1      26.466  -0.199  54.717  1.00  0.00     0.046 C 
BRANCH  22  23
HETATM   23  C5  UNL     1      27.460  -0.231  53.647  1.00  0.00     0.119 C 
BRANCH  23  24
HETATM   24  N1  UNL     1      28.802   0.021  53.788  1.00  0.00    -0.413 N 
BRANCH  24  25
HETATM   25  C2  UNL     1      29.142   1.298  54.386  1.00  0.00     0.112 C 
HETATM   26  C1  UNL     1      28.659   2.453  53.572  1.00  0.00     0.026 C 
ENDBRANCH  24  25
BRANCH  24  27
HETATM   27  C3  UNL     1      29.821  -0.915  53.784  1.00  0.00     0.112 C 
HETATM   28  C4  UNL     1      29.265  -2.231  53.212  1.00  0.00     0.026 C 
ENDBRANCH  24  27
ENDBRANCH  23  24
ENDBRANCH  22  23
ENDBRANCH  21  22
ENDBRANCH  20  21
ENDBRANCH   1  20
BRANCH   8  29
HETATM   29  O2  UNL     1      21.717  -0.537  52.669  1.00  0.00    -0.352 OA
HETATM   30  C21 UNL     1      21.138  -0.972  53.833  1.00  0.00     0.210 C 
ENDBRANCH   8  29
TORSDOF 10
ENDMDL
MODEL 4
REMARK VINA RESULT:      -7.1      3.778      5.940
REMARK  10 active torsions:
REMARK  status: ('A' for Active; 'I' for Inactive)
REMARK    1  A    between atoms: C2_2  and  N1_3 
REMARK    2  A    between atoms: N1_3  and  C3_4 
REMARK    3  A    between atoms: N1_3  and  C5_6 
REMARK    4  A    between atoms: C5_6  and  C6_7 
REMARK    5  A    between atoms: C6_7  and  C7_8 
REMARK    6  A    between atoms: C7_8  and  O1_9 
REMARK    7  A    between atoms: O1_9  and  C8_10 
REMARK    8  A    between atoms: C11_13  and  N2_14 
REMARK    9  A    between atoms: N2_14  and  C12_15 
REMARK   10  A    between atoms: C20_26  and  O2_27 
ROOT
HETATM    1  C8  UNL     1      21.731   2.012  50.427  1.00  0.00     0.103 C 
HETATM    2  C9  UNL     1      22.603   1.156  51.109  1.00  0.00     0.051 C 
HETATM    3  C10 UNL     1      23.719   1.929  51.660  1.00  0.00    -0.005 C 
HETATM    4  C11 UNL     1      24.178   2.243  52.869  1.00  0.00     0.134 C 
HETATM    5  N3  UNL     1      24.130   3.683  53.229  1.00  0.00    -0.242 NA
HETATM    6  C18 UNL     1      23.586   4.439  52.234  1.00  0.00     0.129 C 
HETATM    7  C19 UNL     1      23.211   3.726  51.018  1.00  0.00    -0.000 C 
HETATM    8  C20 UNL     1      22.089   3.496  50.389  1.00  0.00     0.109 C 
HETATM    9  C22 UNL     1      24.403   2.826  50.537  1.00  0.00     0.085 C 
ENDROOT
BRANCH   4  10
HETATM   10  N2  UNL     1      24.433   0.905  53.377  1.00  0.00    -0.341 N 
HETATM   11  H18 UNL     1      23.709   0.274  53.724  1.00  0.00     0.167 HD
BRANCH  10  12
HETATM   12  C12 UNL     1      25.829   0.584  53.357  1.00  0.00     0.035 A 
HETATM   13  C13 UNL     1      26.757   1.544  53.609  1.00  0.00     0.032 A 
HETATM   14  C14 UNL     1      28.093   1.138  53.572  1.00  0.00     0.046 A 
HETATM   15  C15 UNL     1      28.453  -0.164  53.295  1.00  0.00     0.138 A 
HETATM   16  F1  UNL     1      29.780  -0.511  53.268  1.00  0.00    -0.204 F 
HETATM   17  C16 UNL     1      27.443  -1.071  53.052  1.00  0.00     0.074 A 
HETATM   18 CL1  UNL     1      27.937  -2.714  52.710  1.00  0.00    -0.081 Cl
HETATM   19  C17 UNL     1      26.088  -0.734  53.073  1.00  0.00     0.056 A 
ENDBRANCH  10  12
ENDBRANCH   4  10
BRANCH   1  20
HETATM   20  O1  UNL     1      20.652   1.501  49.858  1.00  0.00    -0.348 OA
BRANCH  20  21
HETATM   21  C7  UNL     1      19.316   1.575  50.425  1.00  0.00     0.177 C 
BRANCH  21  22
HETATM   22  C6  UNL     1      18.996   0.219  50.902  1.00  0.00     0.046 C 
BRANCH  22  23
HETATM   23  C5  UNL     1      18.504  -0.069  52.247  1.00  0.00     0.119 C 
BRANCH  23  24
HETATM   24  N1  UNL     1      19.269  -0.465  53.316  1.00  0.00    -0.413 N 
BRANCH  24  25
HETATM   25  C2  UNL     1      19.178  -1.870  53.666  1.00  0.00     0.112 C 
HETATM   26  C1  UNL     1      17.783  -2.393  53.562  1.00  0.00     0.026 C 
ENDBRANCH  24  25
BRANCH  24  27
HETATM   27  C3  UNL     1      20.363   0.200  53.838  1.00  0.00     0.112 C 
HETATM   28  C4  UNL     1      21.347  -0.848  54.387  1.00  0.00     0.026 C 
ENDBRANCH  24  27
ENDBRANCH  23  24
ENDBRANCH  22  23
ENDBRANCH  21  22
ENDBRANCH  20  21
ENDBRANCH   1  20
BRANCH   8  29
HETATM   29  O2  UNL     1      21.452   4.497  49.855  1.00  0.00    -0.352 OA
HETATM   30  C21 UNL     1      20.358   5.230  50.234  1.00  0.00     0.210 C 
ENDBRANCH   8  29
TORSDOF 10
ENDMDL
MODEL 5
REMARK VINA RESULT:      -7.0      2.739      3.437
REMARK  10 active torsions:
REMARK  status: ('A' for Active; 'I' for Inactive)
REMARK    1  A    between atoms: C2_2  and  N1_3 
REMARK    2  A    between atoms: N1_3  and  C3_4 
REMARK    3  A    between atoms: N1_3  and  C5_6 
REMARK    4  A    between atoms: C5_6  and  C6_7 
REMARK    5  A    between atoms: C6_7  and  C7_8 
REMARK    6  A    between atoms: C7_8  and  O1_9 
REMARK    7  A    between atoms: O1_9  and  C8_10 
REMARK    8  A    between atoms: C11_13  and  N2_14 
REMARK    9  A    between atoms: N2_14  and  C12_15 
REMARK   10  A    between atoms: C20_26  and  O2_27 
ROOT
HETATM    1  C8  UNL     1      23.640   0.436  52.684  1.00  0.00     0.103 C 
HETATM    2  C9  UNL     1      23.574   1.558  51.850  1.00  0.00     0.051 C 
HETATM    3  C10 UNL     1      24.797   2.350  51.995  1.00  0.00    -0.005 C 
HETATM    4  C11 UNL     1      25.829   2.692  51.227  1.00  0.00     0.134 C 
HETATM    5  N3  UNL     1      27.152   2.162  51.640  1.00  0.00    -0.242 NA
HETATM    6  C18 UNL     1      27.061   1.378  52.752  1.00  0.00     0.129 C 
HETATM    7  C19 UNL     1      25.733   1.250  53.341  1.00  0.00    -0.000 C 
HETATM    8  C20 UNL     1      24.897   0.266  53.535  1.00  0.00     0.109 C 
HETATM    9  C22 UNL     1      25.093   2.671  53.526  1.00  0.00     0.085 C 
ENDROOT
BRANCH   4  10
HETATM   10  N2  UNL     1      25.113   3.396  50.175  1.00  0.00    -0.341 N 
HETATM   11  H18 UNL     1      24.210   3.103  49.797  1.00  0.00     0.167 HD
BRANCH  10  12
HETATM   12  C12 UNL     1      25.839   4.541  49.710  1.00  0.00     0.035 A 
HETATM   13  C13 UNL     1      26.966   4.384  48.968  1.00  0.00     0.032 A 
HETATM   14  C14 UNL     1      27.604   5.556  48.555  1.00  0.00     0.046 A 
HETATM   15  C15 UNL     1      27.119   6.805  48.883  1.00  0.00     0.138 A 
HETATM   16  F1  UNL     1      27.785   7.926  48.455  1.00  0.00    -0.204 F 
HETATM   17  C16 UNL     1      25.968   6.869  49.640  1.00  0.00     0.074 A 
HETATM   18 CL1  UNL     1      25.380   8.469  50.030  1.00  0.00    -0.081 Cl
HETATM   19  C17 UNL     1      25.280   5.738  50.085  1.00  0.00     0.056 A 
ENDBRANCH  10  12
ENDBRANCH   4  10
BRANCH   1  20
HETATM   20  O1  UNL     1      22.625  -0.412  52.693  1.00  0.00    -0.348 OA
BRANCH  20  21
HETATM   21  C7  UNL     1      21.589  -0.436  53.712  1.00  0.00     0.177 C 
BRANCH  21  22
HETATM   22  C6  UNL     1      20.330  -0.100  53.027  1.00  0.00     0.046 C 
BRANCH  22  23
HETATM   23  C5  UNL     1      20.246   0.225  51.606  1.00  0.00     0.119 C 
BRANCH  23  24
HETATM   24  N1  UNL     1      19.877   1.438  51.078  1.00  0.00    -0.413 N 
BRANCH  24  25
HETATM   25  C2  UNL     1      19.551   2.469  52.045  1.00  0.00     0.112 C 
HETATM   26  C1  UNL     1      20.479   3.636  51.967  1.00  0.00     0.026 C 
ENDBRANCH  24  25
BRANCH  24  27
HETATM   27  C3  UNL     1      20.140   1.895  49.799  1.00  0.00     0.112 C 
HETATM   28  C4  UNL     1      21.227   0.997  49.181  1.00  0.00     0.026 C 
ENDBRANCH  24  27
ENDBRANCH  23  24
ENDBRANCH  22  23
ENDBRANCH  21  22
ENDBRANCH  20  21
ENDBRANCH   1  20
BRANCH   8  29
HETATM   29  O2  UNL     1      25.224  -0.682  54.363  1.00  0.00    -0.352 OA
HETATM   30  C21 UNL     1      25.129  -0.823  55.723  1.00  0.00     0.210 C 
ENDBRANCH   8  29
TORSDOF 10
ENDMDL
MODEL 6
REMARK VINA RESULT:      -7.0      2.897      5.983
REMARK  10 active torsions:
REMARK  status: ('A' for Active; 'I' for Inactive)
REMARK    1  A    between atoms: C2_2  and  N1_3 
REMARK    2  A    between atoms: N1_3  and  C3_4 
REMARK    3  A    between atoms: N1_3  and  C5_6 
REMARK    4  A    between atoms: C5_6  and  C6_7 
REMARK    5  A    between atoms: C6_7  and  C7_8 
REMARK    6  A    between atoms: C7_8  and  O1_9 
REMARK    7  A    between atoms: O1_9  and  C8_10 
REMARK    8  A    between atoms: C11_13  and  N2_14 
REMARK    9  A    between atoms: N2_14  and  C12_15 
REMARK   10  A    between atoms: C20_26  and  O2_27 
ROOT
HETATM    1  C8  UNL     1      23.427   1.635  52.919  1.00  0.00     0.103 C 
HETATM    2  C9  UNL     1      24.131   2.813  52.644  1.00  0.00     0.051 C 
HETATM    3  C10 UNL     1      23.338   3.662  51.753  1.00  0.00    -0.005 C 
HETATM    4  C11 UNL     1      22.739   4.849  51.822  1.00  0.00     0.134 C 
HETATM    5  N3  UNL     1      21.258   4.837  51.716  1.00  0.00    -0.242 NA
HETATM    6  C18 UNL     1      20.767   3.572  51.587  1.00  0.00     0.129 C 
HETATM    7  C19 UNL     1      21.757   2.502  51.527  1.00  0.00    -0.000 C 
HETATM    8  C20 UNL     1      22.052   1.471  52.274  1.00  0.00     0.109 C 
HETATM    9  C22 UNL     1      22.860   2.854  50.467  1.00  0.00     0.085 C 
ENDROOT
BRANCH   4  10
HETATM   10  N2  UNL     1      23.897   5.679  52.110  1.00  0.00    -0.341 N 
HETATM   11  H18 UNL     1      24.409   5.666  52.995  1.00  0.00     0.167 HD
BRANCH  10  12
HETATM   12  C12 UNL     1      24.223   6.539  51.012  1.00  0.00     0.035 A 
HETATM   13  C13 UNL     1      23.479   7.649  50.765  1.00  0.00     0.032 A 
HETATM   14  C14 UNL     1      23.874   8.430  49.677  1.00  0.00     0.046 A 
HETATM   15  C15 UNL     1      24.960   8.095  48.894  1.00  0.00     0.138 A 
HETATM   16  F1  UNL     1      25.305   8.894  47.834  1.00  0.00    -0.204 F 
HETATM   17  C16 UNL     1      25.657   6.951  49.219  1.00  0.00     0.074 A 
HETATM   18 CL1  UNL     1      27.030   6.562  48.208  1.00  0.00    -0.081 Cl
HETATM   19  C17 UNL     1      25.317   6.125  50.293  1.00  0.00     0.056 A 
ENDBRANCH  10  12
ENDBRANCH   4  10
BRANCH   1  20
HETATM   20  O1  UNL     1      23.978   0.734  53.715  1.00  0.00    -0.348 OA
BRANCH  20  21
HETATM   21  C7  UNL     1      24.426  -0.578  53.278  1.00  0.00     0.177 C 
BRANCH  21  22
HETATM   22  C6  UNL     1      25.893  -0.501  53.185  1.00  0.00     0.046 C 
BRANCH  22  23
HETATM   23  C5  UNL     1      26.729   0.208  54.150  1.00  0.00     0.119 C 
BRANCH  23  24
HETATM   24  N1  UNL     1      28.093   0.103  54.263  1.00  0.00    -0.413 N 
BRANCH  24  25
HETATM   25  C2  UNL     1      28.679  -1.096  53.696  1.00  0.00     0.112 C 
HETATM   26  C1  UNL     1      30.167  -1.013  53.606  1.00  0.00     0.026 C 
ENDBRANCH  24  25
BRANCH  24  27
HETATM   27  C3  UNL     1      28.982   1.136  54.499  1.00  0.00     0.112 C 
HETATM   28  C4  UNL     1      28.556   2.343  53.644  1.00  0.00     0.026 C 
ENDBRANCH  24  27
ENDBRANCH  23  24
ENDBRANCH  22  23
ENDBRANCH  21  22
ENDBRANCH  20  21
ENDBRANCH   1  20
BRANCH   8  29
HETATM   29  O2  UNL     1      21.189   0.504  52.378  1.00  0.00    -0.352 OA
HETATM   30  C21 UNL     1      20.395   0.053  53.400  1.00  0.00     0.210 C 
ENDBRANCH   8  29
TORSDOF 10
ENDMDL
MODEL 7
REMARK VINA RESULT:      -6.9      4.431      8.298
REMARK  10 active torsions:
REMARK  status: ('A' for Active; 'I' for Inactive)
REMARK    1  A    between atoms: C2_2  and  N1_3 
REMARK    2  A    between atoms: N1_3  and  C3_4 
REMARK    3  A    between atoms: N1_3  and  C5_6 
REMARK    4  A    between atoms: C5_6  and  C6_7 
REMARK    5  A    between atoms: C6_7  and  C7_8 
REMARK    6  A    between atoms: C7_8  and  O1_9 
REMARK    7  A    between atoms: O1_9  and  C8_10 
REMARK    8  A    between atoms: C11_13  and  N2_14 
REMARK    9  A    between atoms: N2_14  and  C12_15 
REMARK   10  A    between atoms: C20_26  and  O2_27 
ROOT
HETATM    1  C8  UNL     1      24.789   3.312  50.145  1.00  0.00     0.103 C 
HETATM    2  C9  UNL     1      25.345   3.117  51.414  1.00  0.00     0.051 C 
HETATM    3  C10 UNL     1      24.358   2.483  52.291  1.00  0.00    -0.005 C 
HETATM    4  C11 UNL     1      24.227   1.319  52.923  1.00  0.00     0.134 C 
HETATM    5  N3  UNL     1      23.105   0.456  52.472  1.00  0.00    -0.242 NA
HETATM    6  C18 UNL     1      22.409   1.022  51.445  1.00  0.00     0.129 C 
HETATM    7  C19 UNL     1      22.847   2.349  51.027  1.00  0.00    -0.000 C 
HETATM    8  C20 UNL     1      23.347   2.856  49.932  1.00  0.00     0.109 C 
HETATM    9  C22 UNL     1      22.982   3.285  52.279  1.00  0.00     0.085 C 
ENDROOT
BRANCH   4  10
HETATM   10  N2  UNL     1      25.412   1.374  53.762  1.00  0.00    -0.341 N 
HETATM   11  H18 UNL     1      25.591   2.099  54.459  1.00  0.00     0.167 HD
BRANCH  10  12
HETATM   12  C12 UNL     1      26.316   0.299  53.478  1.00  0.00     0.035 A 
HETATM   13  C13 UNL     1      25.845  -0.897  53.041  1.00  0.00     0.032 A 
HETATM   14  C14 UNL     1      26.799  -1.884  52.786  1.00  0.00     0.046 A 
HETATM   15  C15 UNL     1      28.147  -1.659  52.967  1.00  0.00     0.138 A 
HETATM   16  F1  UNL     1      29.045  -2.663  52.705  1.00  0.00    -0.204 F 
HETATM   17  C16 UNL     1      28.536  -0.414  53.414  1.00  0.00     0.074 A 
HETATM   18 CL1  UNL     1      30.254  -0.164  53.627  1.00  0.00    -0.081 Cl
HETATM   19  C17 UNL     1      27.636   0.618  53.688  1.00  0.00     0.056 A 
ENDBRANCH  10  12
ENDBRANCH   4  10
BRANCH   1  20
HETATM   20  O1  UNL     1      25.530   3.872  49.203  1.00  0.00    -0.348 OA
BRANCH  20  21
HETATM   21  C7  UNL     1      26.961   4.096  49.315  1.00  0.00     0.177 C 
BRANCH  21  22
HETATM   22  C6  UNL     1      27.243   5.331  48.566  1.00  0.00     0.046 C 
BRANCH  22  23
HETATM   23  C5  UNL     1      26.371   6.503  48.581  1.00  0.00     0.119 C 
BRANCH  23  24
HETATM   24  N1  UNL     1      26.444   7.549  49.467  1.00  0.00    -0.413 N 
BRANCH  24  25
HETATM   25  C2  UNL     1      27.586   8.429  49.305  1.00  0.00     0.112 C 
HETATM   26  C1  UNL     1      27.186   9.862  49.175  1.00  0.00     0.026 C 
ENDBRANCH  24  25
BRANCH  24  27
HETATM   27  C3  UNL     1      25.405   8.069  50.216  1.00  0.00     0.112 C 
HETATM   28  C4  UNL     1      24.627   6.896  50.839  1.00  0.00     0.026 C 
ENDBRANCH  24  27
ENDBRANCH  23  24
ENDBRANCH  22  23
ENDBRANCH  21  22
ENDBRANCH  20  21
ENDBRANCH   1  20
BRANCH   8  29
HETATM   29  O2  UNL     1      22.606   2.894  48.863  1.00  0.00    -0.352 OA
HETATM   30  C21 UNL     1      22.500   2.089  47.758  1.00  0.00     0.210 C 
ENDBRANCH   8  29
TORSDOF 10
ENDMDL
MODEL 8
REMARK VINA RESULT:      -6.9      4.296      6.510
REMARK  10 active torsions:
REMARK  status: ('A' for Active; 'I' for Inactive)
REMARK    1  A    between atoms: C2_2  and  N1_3 
REMARK    2  A    between atoms: N1_3  and  C3_4 
REMARK    3  A    between atoms: N1_3  and  C5_6 
REMARK    4  A    between atoms: C5_6  and  C6_7 
REMARK    5  A    between atoms: C6_7  and  C7_8 
REMARK    6  A    between atoms: C7_8  and  O1_9 
REMARK    7  A    between atoms: O1_9  and  C8_10 
REMARK    8  A    between atoms: C11_13  and  N2_14 
REMARK    9  A    between atoms: N2_14  and  C12_15 
REMARK   10  A    between atoms: C20_26  and  O2_27 
ROOT
HETATM    1  C8  UNL     1      23.457   4.790  51.101  1.00  0.00     0.103 C 
HETATM    2  C9  UNL     1      23.951   3.816  51.976  1.00  0.00     0.051 C 
HETATM    3  C10 UNL     1      25.006   3.048  51.312  1.00  0.00    -0.005 C 
HETATM    4  C11 UNL     1      26.316   2.865  51.464  1.00  0.00     0.134 C 
HETATM    5  N3  UNL     1      27.174   3.363  50.359  1.00  0.00    -0.242 NA
HETATM    6  C18 UNL     1      26.443   3.954  49.372  1.00  0.00     0.129 C 
HETATM    7  C19 UNL     1      24.995   3.945  49.553  1.00  0.00    -0.000 C 
HETATM    8  C20 UNL     1      24.075   4.860  49.706  1.00  0.00     0.109 C 
HETATM    9  C22 UNL     1      24.510   2.494  49.903  1.00  0.00     0.085 C 
ENDROOT
BRANCH   4  10
HETATM   10  N2  UNL     1      26.321   2.319  52.811  1.00  0.00    -0.341 N 
HETATM   11  H18 UNL     1      26.057   2.845  53.646  1.00  0.00     0.167 HD
BRANCH  10  12
HETATM   12  C12 UNL     1      26.765   0.957  52.832  1.00  0.00     0.035 A 
HETATM   13  C13 UNL     1      25.924  -0.044  52.463  1.00  0.00     0.032 A 
HETATM   14  C14 UNL     1      26.445  -1.339  52.510  1.00  0.00     0.046 A 
HETATM   15  C15 UNL     1      27.740  -1.591  52.910  1.00  0.00     0.138 A 
HETATM   16  F1  UNL     1      28.203  -2.882  52.943  1.00  0.00    -0.204 F 
HETATM   17  C16 UNL     1      28.522  -0.513  53.268  1.00  0.00     0.074 A 
HETATM   18 CL1  UNL     1      30.161  -0.870  53.764  1.00  0.00    -0.081 Cl
HETATM   19  C17 UNL     1      28.067   0.807  53.243  1.00  0.00     0.056 A 
ENDBRANCH  10  12
ENDBRANCH   4  10
BRANCH   1  20
HETATM   20  O1  UNL     1      22.495   5.595  51.520  1.00  0.00    -0.348 OA
BRANCH  20  21
HETATM   21  C7  UNL     1      21.135   5.579  51.007  1.00  0.00     0.177 C 
BRANCH  21  22
HETATM   22  C6  UNL     1      20.590   4.249  51.328  1.00  0.00     0.046 C 
BRANCH  22  23
HETATM   23  C5  UNL     1      20.074   3.323  50.324  1.00  0.00     0.119 C 
BRANCH  23  24
HETATM   24  N1  UNL     1      20.264   1.963  50.310  1.00  0.00    -0.413 N 
BRANCH  24  25
HETATM   25  C2  UNL     1      20.797   1.417  49.077  1.00  0.00     0.112 C 
HETATM   26  C1  UNL     1      21.312   2.477  48.161  1.00  0.00     0.026 C 
ENDBRANCH  24  25
BRANCH  24  27
HETATM   27  C3  UNL     1      20.369   1.134  51.413  1.00  0.00     0.112 C 
HETATM   28  C4  UNL     1      21.810   0.596  51.475  1.00  0.00     0.026 C 
ENDBRANCH  24  27
ENDBRANCH  23  24
ENDBRANCH  22  23
ENDBRANCH  21  22
ENDBRANCH  20  21
ENDBRANCH   1  20
BRANCH   8  29
HETATM   29  O2  UNL     1      23.827   5.671  48.720  1.00  0.00    -0.352 OA
HETATM   30  C21 UNL     1      23.963   7.025  48.554  1.00  0.00     0.210 C 
ENDBRANCH   8  29
TORSDOF 10
ENDMDL
MODEL 9
REMARK VINA RESULT:      -6.9      5.592      7.849
REMARK  10 active torsions:
REMARK  status: ('A' for Active; 'I' for Inactive)
REMARK    1  A    between atoms: C2_2  and  N1_3 
REMARK    2  A    between atoms: N1_3  and  C3_4 
REMARK    3  A    between atoms: N1_3  and  C5_6 
REMARK    4  A    between atoms: C5_6  and  C6_7 
REMARK    5  A    between atoms: C6_7  and  C7_8 
REMARK    6  A    between atoms: C7_8  and  O1_9 
REMARK    7  A    between atoms: O1_9  and  C8_10 
REMARK    8  A    between atoms: C11_13  and  N2_14 
REMARK    9  A    between atoms: N2_14  and  C12_15 
REMARK   10  A    between atoms: C20_26  and  O2_27 
ROOT
HETATM    1  C8  UNL     1      26.424   3.967  49.876  1.00  0.00     0.103 C 
HETATM    2  C9  UNL     1      27.221   4.630  48.937  1.00  0.00     0.051 C 
HETATM    3  C10 UNL     1      26.704   5.984  48.724  1.00  0.00    -0.005 C 
HETATM    4  C11 UNL     1      27.125   7.229  48.941  1.00  0.00     0.134 C 
HETATM    5  N3  UNL     1      26.344   8.015  49.929  1.00  0.00    -0.242 NA
HETATM    6  C18 UNL     1      25.323   7.289  50.466  1.00  0.00     0.129 C 
HETATM    7  C19 UNL     1      25.159   5.934  49.952  1.00  0.00    -0.000 C 
HETATM    8  C20 UNL     1      25.240   4.734  50.462  1.00  0.00     0.109 C 
HETATM    9  C22 UNL     1      25.149   5.957  48.383  1.00  0.00     0.085 C 
ENDROOT
BRANCH   4  10
HETATM   10  N2  UNL     1      28.330   7.213  48.128  1.00  0.00    -0.341 N 
HETATM   11  H18 UNL     1      28.605   6.439  47.521  1.00  0.00     0.167 HD
BRANCH  10  12
HETATM   12  C12 UNL     1      29.103   8.407  48.299  1.00  0.00     0.035 A 
HETATM   13  C13 UNL     1      30.178   8.416  49.130  1.00  0.00     0.032 A 
HETATM   14  C14 UNL     1      30.874   9.623  49.230  1.00  0.00     0.046 A 
HETATM   15  C15 UNL     1      30.493  10.745  48.525  1.00  0.00     0.138 A 
HETATM   16  F1  UNL     1      31.209  11.908  48.661  1.00  0.00    -0.204 F 
HETATM   17  C16 UNL     1      29.389  10.645  47.705  1.00  0.00     0.074 A 
HETATM   18 CL1  UNL     1      28.940  12.087  46.823  1.00  0.00    -0.081 Cl
HETATM   19  C17 UNL     1      28.648   9.470  47.558  1.00  0.00     0.056 A 
ENDBRANCH  10  12
ENDBRANCH   4  10
BRANCH   1  20
HETATM   20  O1  UNL     1      26.732   2.724  50.209  1.00  0.00    -0.348 OA
BRANCH  20  21
HETATM   21  C7  UNL     1      26.909   2.264  51.576  1.00  0.00     0.177 C 
BRANCH  21  22
HETATM   22  C6  UNL     1      26.637   0.818  51.562  1.00  0.00     0.046 C 
BRANCH  22  23
HETATM   23  C5  UNL     1      26.997  -0.084  52.654  1.00  0.00     0.119 C 
BRANCH  23  24
HETATM   24  N1  UNL     1      27.455   0.295  53.891  1.00  0.00    -0.413 N 
BRANCH  24  25
HETATM   25  C2  UNL     1      26.507   0.153  54.980  1.00  0.00     0.112 C 
HETATM   26  C1  UNL     1      25.294  -0.621  54.582  1.00  0.00     0.026 C 
ENDBRANCH  24  25
BRANCH  24  27
HETATM   27  C3  UNL     1      28.777   0.426  54.277  1.00  0.00     0.112 C 
HETATM   28  C4  UNL     1      29.552  -0.800  53.761  1.00  0.00     0.026 C 
ENDBRANCH  24  27
ENDBRANCH  23  24
ENDBRANCH  22  23
ENDBRANCH  21  22
ENDBRANCH  20  21
ENDBRANCH   1  20
BRANCH   8  29
HETATM   29  O2  UNL     1      24.368   4.372  51.356  1.00  0.00    -0.352 OA
HETATM   30  C21 UNL     1      23.110   3.832  51.285  1.00  0.00     0.210 C 
ENDBRANCH   8  29
TORSDOF 10
ENDMDL
