MODEL 1
REMARK VINA RESULT:      -8.5      0.000      0.000
REMARK  7 active torsions:
REMARK  status: ('A' for Active; 'I' for Inactive)
REMARK    1  A    between atoms: C3_3  and  N1_4 
REMARK    2  A    between atoms: C7_8  and  N2_9 
REMARK    3  A    between atoms: N2_9  and  C8_10 
REMARK    4  A    between atoms: C10_13  and  C11_14 
REMARK    5  A    between atoms: C11_14  and  N4_15 
REMARK    6  A    between atoms: N4_15  and  C12_16 
REMARK    7  A    between atoms: C12_16  and  C14_18 
ROOT
HETATM    1  C8  UNL     1      25.627   1.726  52.090  1.00  0.00     0.112 C 
HETATM    2  C9  UNL     1      26.339   2.491  51.073  1.00  0.00     0.117 C 
HETATM    3  N3  UNL     1      26.911   3.096  50.237  1.00  0.00    -0.190 NA
HETATM    4  C10 UNL     1      24.296   1.550  51.995  1.00  0.00     0.044 C 
ENDROOT
BRANCH   1   5
HETATM    5  N2  UNL     1      26.484   1.237  53.099  1.00  0.00    -0.347 N 
HETATM    6  H9  UNL     1      25.999   1.754  53.866  1.00  0.00     0.167 HD
BRANCH   5   7
HETATM    7  C7  UNL     1      27.590   0.398  53.231  1.00  0.00     0.041 A 
HETATM    8  C2  UNL     1      27.474  -0.958  53.077  1.00  0.00    -0.009 A 
HETATM    9  C1  UNL     1      26.209  -1.641  52.757  1.00  0.00     0.053 C 
HETATM   10  C3  UNL     1      28.661  -1.679  53.244  1.00  0.00     0.034 A 
HETATM   11  C4  UNL     1      29.880  -1.103  53.543  1.00  0.00     0.029 A 
HETATM   12  C5  UNL     1      29.920   0.282  53.686  1.00  0.00     0.004 A 
HETATM   13  C6  UNL     1      28.775   1.028  53.529  1.00  0.00     0.030 A 
BRANCH  10  14
HETATM   14  N1  UNL     1      28.674  -3.111  53.108  1.00  0.00    -0.399 N 
HETATM   15  H4  UNL     1      29.078  -3.865  52.530  1.00  0.00     0.156 HD
HETATM   16  H5  UNL     1      28.052  -3.506  53.873  1.00  0.00     0.156 HD
ENDBRANCH  10  14
ENDBRANCH   5   7
ENDBRANCH   1   5
BRANCH   4  17
HETATM   17  C11 UNL     1      23.616   0.754  53.060  1.00  0.00     0.300 C 
BRANCH  17  18
HETATM   18  N4  UNL     1      22.457   0.075  52.585  1.00  0.00     0.095 N 
HETATM   19  H13 UNL     1      22.185   0.448  51.662  1.00  0.00     0.317 HD
BRANCH  18  20
HETATM   20  C12 UNL     1      21.350   0.201  53.502  1.00  0.00     0.249 C 
HETATM   21  C13 UNL     1      21.597  -0.542  54.769  1.00  0.00     0.048 C 
BRANCH  20  22
HETATM   22  C14 UNL     1      20.048  -0.083  52.846  1.00  0.00    -0.026 A 
HETATM   23  C15 UNL     1      18.958  -0.816  53.265  1.00  0.00     0.012 A 
HETATM   24  C16 UNL     1      17.809  -0.970  52.531  1.00  0.00     0.043 A 
HETATM   25  C17 UNL     1      17.678  -0.380  51.291  1.00  0.00     0.116 A 
HETATM   26  F1  UNL     1      16.520  -0.569  50.618  1.00  0.00    -0.206 F 
HETATM   27  C18 UNL     1      18.758   0.362  50.847  1.00  0.00     0.043 A 
HETATM   28  C19 UNL     1      19.905   0.511  51.589  1.00  0.00     0.012 A 
ENDBRANCH  20  22
ENDBRANCH  18  20
ENDBRANCH  17  18
ENDBRANCH   4  17
TORSDOF 7
ENDMDL
MODEL 2
REMARK VINA RESULT:      -8.5      3.931      6.095
REMARK  7 active torsions:
REMARK  status: ('A' for Active; 'I' for Inactive)
REMARK    1  A    between atoms: C3_3  and  N1_4 
REMARK    2  A    between atoms: C7_8  and  N2_9 
REMARK    3  A    between atoms: N2_9  and  C8_10 
REMARK    4  A    between atoms: C10_13  and  C11_14 
REMARK    5  A    between atoms: C11_14  and  N4_15 
REMARK    6  A    between atoms: N4_15  and  C12_16 
REMARK    7  A    between atoms: C12_16  and  C14_18 
ROOT
HETATM    1  C8  UNL     1      24.485  -0.194  53.437  1.00  0.00     0.112 C 
HETATM    2  C9  UNL     1      24.505  -0.883  54.723  1.00  0.00     0.117 C 
HETATM    3  N3  UNL     1      24.516  -1.422  55.772  1.00  0.00    -0.190 NA
HETATM    4  C10 UNL     1      23.345   0.359  52.985  1.00  0.00     0.044 C 
ENDROOT
BRANCH   1   5
HETATM    5  N2  UNL     1      25.745  -0.197  52.802  1.00  0.00    -0.347 N 
HETATM    6  H9  UNL     1      25.347  -0.349  51.849  1.00  0.00     0.167 HD
BRANCH   5   7
HETATM    7  C7  UNL     1      27.095  -0.068  53.131  1.00  0.00     0.041 A 
HETATM    8  C2  UNL     1      27.613   1.131  53.542  1.00  0.00    -0.009 A 
HETATM    9  C1  UNL     1      26.818   2.363  53.681  1.00  0.00     0.053 C 
HETATM   10  C3  UNL     1      28.981   1.119  53.831  1.00  0.00     0.034 A 
HETATM   11  C4  UNL     1      29.784   0.001  53.723  1.00  0.00     0.029 A 
HETATM   12  C5  UNL     1      29.186  -1.183  53.298  1.00  0.00     0.004 A 
HETATM   13  C6  UNL     1      27.843  -1.213  53.004  1.00  0.00     0.030 A 
BRANCH  10  14
HETATM   14  N1  UNL     1      29.647   2.315  54.273  1.00  0.00    -0.399 N 
HETATM   15  H4  UNL     1      30.535   2.640  54.687  1.00  0.00     0.156 HD
HETATM   16  H5  UNL     1      28.983   3.127  54.104  1.00  0.00     0.156 HD
ENDBRANCH  10  14
ENDBRANCH   5   7
ENDBRANCH   1   5
BRANCH   4  17
HETATM   17  C11 UNL     1      23.380   1.058  51.664  1.00  0.00     0.300 C 
BRANCH  17  18
HETATM   18  N4  UNL     1      23.575   2.463  51.790  1.00  0.00     0.095 N 
HETATM   19  H13 UNL     1      22.935   2.845  52.504  1.00  0.00     0.317 HD
BRANCH  18  20
HETATM   20  C12 UNL     1      23.363   3.147  50.536  1.00  0.00     0.249 C 
HETATM   21  C13 UNL     1      22.578   2.317  49.582  1.00  0.00     0.048 C 
BRANCH  20  22
HETATM   22  C14 UNL     1      24.622   3.716  49.991  1.00  0.00    -0.026 A 
HETATM   23  C15 UNL     1      25.895   3.194  49.906  1.00  0.00     0.012 A 
HETATM   24  C16 UNL     1      26.962   3.858  49.353  1.00  0.00     0.043 A 
HETATM   25  C17 UNL     1      26.811   5.127  48.835  1.00  0.00     0.116 A 
HETATM   26  F1  UNL     1      27.901   5.727  48.303  1.00  0.00    -0.206 F 
HETATM   27  C18 UNL     1      25.543   5.675  48.909  1.00  0.00     0.043 A 
HETATM   28  C19 UNL     1      24.481   5.003  49.465  1.00  0.00     0.012 A 
ENDBRANCH  20  22
ENDBRANCH  18  20
ENDBRANCH  17  18
ENDBRANCH   4  17
TORSDOF 7
ENDMDL
MODEL 3
REMARK VINA RESULT:      -8.3      2.581      3.464
REMARK  7 active torsions:
REMARK  status: ('A' for Active; 'I' for Inactive)
REMARK    1  A    between atoms: C3_3  and  N1_4 
REMARK    2  A    between atoms: C7_8  and  N2_9 
REMARK    3  A    between atoms: N2_9  and  C8_10 
REMARK    4  A    between atoms: C10_13  and  C11_14 
REMARK    5  A    between atoms: C11_14  and  N4_15 
REMARK    6  A    between atoms: N4_15  and  C12_16 
REMARK    7  A    between atoms: C12_16  and  C14_18 
ROOT
HETATM    1  C8  UNL     1      25.727   3.425  50.700  1.00  0.00     0.112 C 
HETATM    2  C9  UNL     1      26.732   3.878  49.745  1.00  0.00     0.117 C 
HETATM    3  N3  UNL     1      27.538   4.231  48.959  1.00  0.00    -0.190 NA
HETATM    4  C10 UNL     1      24.418   3.589  50.432  1.00  0.00     0.044 C 
ENDROOT
BRANCH   1   5
HETATM    5  N2  UNL     1      26.297   2.834  51.847  1.00  0.00    -0.347 N 
HETATM    6  H9  UNL     1      26.295   3.722  52.396  1.00  0.00     0.167 HD
BRANCH   5   7
HETATM    7  C7  UNL     1      26.753   1.589  52.278  1.00  0.00     0.041 A 
HETATM    8  C2  UNL     1      27.870   1.474  53.061  1.00  0.00    -0.009 A 
HETATM    9  C1  UNL     1      28.672   2.623  53.518  1.00  0.00     0.053 C 
HETATM   10  C3  UNL     1      28.218   0.166  53.414  1.00  0.00     0.034 A 
HETATM   11  C4  UNL     1      27.512  -0.954  53.021  1.00  0.00     0.029 A 
HETATM   12  C5  UNL     1      26.386  -0.759  52.225  1.00  0.00     0.004 A 
HETATM   13  C6  UNL     1      26.010   0.512  51.856  1.00  0.00     0.030 A 
BRANCH  10  14
HETATM   14  N1  UNL     1      29.372  -0.090  54.234  1.00  0.00    -0.399 N 
HETATM   15  H4  UNL     1      30.106  -0.796  54.399  1.00  0.00     0.156 HD
HETATM   16  H5  UNL     1      29.492   0.746  54.878  1.00  0.00     0.156 HD
ENDBRANCH  10  14
ENDBRANCH   5   7
ENDBRANCH   1   5
BRANCH   4  17
HETATM   17  C11 UNL     1      23.429   3.103  51.441  1.00  0.00     0.300 C 
BRANCH  17  18
HETATM   18  N4  UNL     1      22.485   2.189  50.890  1.00  0.00     0.095 N 
HETATM   19  H13 UNL     1      22.203   2.501  49.947  1.00  0.00     0.317 HD
BRANCH  18  20
HETATM   20  C12 UNL     1      21.315   2.060  51.726  1.00  0.00     0.249 C 
HETATM   21  C13 UNL     1      20.885   3.374  52.278  1.00  0.00     0.048 C 
BRANCH  20  22
HETATM   22  C14 UNL     1      21.462   0.972  52.726  1.00  0.00    -0.026 A 
HETATM   23  C15 UNL     1      20.877   0.784  53.960  1.00  0.00     0.012 A 
HETATM   24  C16 UNL     1      21.115  -0.301  54.766  1.00  0.00     0.043 A 
HETATM   25  C17 UNL     1      21.984  -1.296  54.370  1.00  0.00     0.116 A 
HETATM   26  F1  UNL     1      22.176  -2.340  55.209  1.00  0.00    -0.206 F 
HETATM   27  C18 UNL     1      22.586  -1.132  53.135  1.00  0.00     0.043 A 
HETATM   28  C19 UNL     1      22.341  -0.042  52.335  1.00  0.00     0.012 A 
ENDBRANCH  20  22
ENDBRANCH  18  20
ENDBRANCH  17  18
ENDBRANCH   4  17
TORSDOF 7
ENDMDL
MODEL 4
REMARK VINA RESULT:      -8.2      4.146      6.879
REMARK  7 active torsions:
REMARK  status: ('A' for Active; 'I' for Inactive)
REMARK    1  A    between atoms: C3_3  and  N1_4 
REMARK    2  A    between atoms: C7_8  and  N2_9 
REMARK    3  A    between atoms: N2_9  and  C8_10 
REMARK    4  A    between atoms: C10_13  and  C11_14 
REMARK    5  A    between atoms: C11_14  and  N4_15 
REMARK    6  A    between atoms: N4_15  and  C12_16 
REMARK    7  A    between atoms: C12_16  and  C14_18 
ROOT
HETATM    1  C8  UNL     1      24.147   1.100  52.305  1.00  0.00     0.112 C 
HETATM    2  C9  UNL     1      23.646   0.174  53.315  1.00  0.00     0.117 C 
HETATM    3  N3  UNL     1      23.238  -0.559  54.145  1.00  0.00    -0.190 NA
HETATM    4  C10 UNL     1      23.344   2.059  51.811  1.00  0.00     0.044 C 
ENDROOT
BRANCH   1   5
HETATM    5  N2  UNL     1      25.494   0.852  51.965  1.00  0.00    -0.347 N 
HETATM    6  H9  UNL     1      25.285   0.684  50.956  1.00  0.00     0.167 HD
BRANCH   5   7
HETATM    7  C7  UNL     1      26.746   0.802  52.576  1.00  0.00     0.041 A 
HETATM    8  C2  UNL     1      27.358  -0.393  52.843  1.00  0.00    -0.009 A 
HETATM    9  C1  UNL     1      26.774  -1.705  52.512  1.00  0.00     0.053 C 
HETATM   10  C3  UNL     1      28.607  -0.297  53.466  1.00  0.00     0.034 A 
HETATM   11  C4  UNL     1      29.212   0.898  53.802  1.00  0.00     0.029 A 
HETATM   12  C5  UNL     1      28.529   2.074  53.500  1.00  0.00     0.004 A 
HETATM   13  C6  UNL     1      27.298   2.022  52.887  1.00  0.00     0.030 A 
BRANCH  10  14
HETATM   14  N1  UNL     1      29.354  -1.480  53.799  1.00  0.00    -0.399 N 
HETATM   15  H4  UNL     1      30.220  -1.985  53.555  1.00  0.00     0.156 HD
HETATM   16  H5  UNL     1      28.813  -1.990  54.558  1.00  0.00     0.156 HD
ENDBRANCH  10  14
ENDBRANCH   5   7
ENDBRANCH   1   5
BRANCH   4  17
HETATM   17  C11 UNL     1      23.908   2.985  50.782  1.00  0.00     0.300 C 
BRANCH  17  18
HETATM   18  N4  UNL     1      24.565   4.111  51.357  1.00  0.00     0.095 N 
HETATM   19  H13 UNL     1      24.123   4.355  52.256  1.00  0.00     0.317 HD
BRANCH  18  20
HETATM   20  C12 UNL     1      24.534   5.255  50.477  1.00  0.00     0.249 C 
HETATM   21  C13 UNL     1      23.289   5.289  49.662  1.00  0.00     0.048 C 
BRANCH  20  22
HETATM   22  C14 UNL     1      25.797   5.402  49.709  1.00  0.00    -0.026 A 
HETATM   23  C15 UNL     1      26.723   4.470  49.292  1.00  0.00     0.012 A 
HETATM   24  C16 UNL     1      27.848   4.776  48.568  1.00  0.00     0.043 A 
HETATM   25  C17 UNL     1      28.121   6.078  48.206  1.00  0.00     0.116 A 
HETATM   26  F1  UNL     1      29.246   6.315  47.491  1.00  0.00    -0.206 F 
HETATM   27  C18 UNL     1      27.207   7.034  48.611  1.00  0.00     0.043 A 
HETATM   28  C19 UNL     1      26.084   6.719  49.337  1.00  0.00     0.012 A 
ENDBRANCH  20  22
ENDBRANCH  18  20
ENDBRANCH  17  18
ENDBRANCH   4  17
TORSDOF 7
ENDMDL
MODEL 5
REMARK VINA RESULT:      -8.2      4.110      8.043
REMARK  7 active torsions:
REMARK  status: ('A' for Active; 'I' for Inactive)
REMARK    1  A    between atoms: C3_3  and  N1_4 
REMARK    2  A    between atoms: C7_8  and  N2_9 
REMARK    3  A    between atoms: N2_9  and  C8_10 
REMARK    4  A    between atoms: C10_13  and  C11_14 
REMARK    5  A    between atoms: C11_14  and  N4_15 
REMARK    6  A    between atoms: N4_15  and  C12_16 
REMARK    7  A    between atoms: C12_16  and  C14_18 
ROOT
HETATM    1  C8  UNL     1      26.117   0.277  52.568  1.00  0.00     0.112 C 
HETATM    2  C9  UNL     1      26.564  -1.086  52.834  1.00  0.00     0.117 C 
HETATM    3  N3  UNL     1      26.924  -2.192  53.031  1.00  0.00    -0.190 NA
HETATM    4  C10 UNL     1      26.863   1.094  51.802  1.00  0.00     0.044 C 
ENDROOT
BRANCH   1   5
HETATM    5  N2  UNL     1      24.882   0.572  53.183  1.00  0.00    -0.347 N 
HETATM    6  H9  UNL     1      25.319   1.073  53.989  1.00  0.00     0.167 HD
BRANCH   5   7
HETATM    7  C7  UNL     1      23.519   0.368  52.969  1.00  0.00     0.041 A 
HETATM    8  C2  UNL     1      22.779  -0.420  53.809  1.00  0.00    -0.009 A 
HETATM    9  C1  UNL     1      23.333  -1.105  54.991  1.00  0.00     0.053 C 
HETATM   10  C3  UNL     1      21.428  -0.544  53.472  1.00  0.00     0.034 A 
HETATM   11  C4  UNL     1      20.844   0.070  52.380  1.00  0.00     0.029 A 
HETATM   12  C5  UNL     1      21.661   0.857  51.571  1.00  0.00     0.004 A 
HETATM   13  C6  UNL     1      22.996   1.004  51.869  1.00  0.00     0.030 A 
BRANCH  10  14
HETATM   14  N1  UNL     1      20.542  -1.345  54.274  1.00  0.00    -0.399 N 
HETATM   15  H4  UNL     1      20.088  -1.368  55.200  1.00  0.00     0.156 HD
HETATM   16  H5  UNL     1      20.275  -2.195  53.695  1.00  0.00     0.156 HD
ENDBRANCH  10  14
ENDBRANCH   5   7
ENDBRANCH   1   5
BRANCH   4  17
HETATM   17  C11 UNL     1      26.357   2.478  51.555  1.00  0.00     0.300 C 
BRANCH  17  18
HETATM   18  N4  UNL     1      26.418   2.850  50.181  1.00  0.00     0.095 N 
HETATM   19  H13 UNL     1      27.389   3.081  49.921  1.00  0.00     0.317 HD
BRANCH  18  20
HETATM   20  C12 UNL     1      25.560   3.974  49.892  1.00  0.00     0.249 C 
HETATM   21  C13 UNL     1      24.269   3.541  49.288  1.00  0.00     0.048 C 
BRANCH  20  22
HETATM   22  C14 UNL     1      26.275   5.046  49.154  1.00  0.00    -0.026 A 
HETATM   23  C15 UNL     1      25.859   6.287  48.722  1.00  0.00     0.012 A 
HETATM   24  C16 UNL     1      26.662   7.177  48.053  1.00  0.00     0.043 A 
HETATM   25  C17 UNL     1      27.975   6.865  47.769  1.00  0.00     0.116 A 
HETATM   26  F1  UNL     1      28.716   7.785  47.108  1.00  0.00    -0.206 F 
HETATM   27  C18 UNL     1      28.418   5.625  48.192  1.00  0.00     0.043 A 
HETATM   28  C19 UNL     1      27.607   4.741  48.860  1.00  0.00     0.012 A 
ENDBRANCH  20  22
ENDBRANCH  18  20
ENDBRANCH  17  18
ENDBRANCH   4  17
TORSDOF 7
ENDMDL
MODEL 6
REMARK VINA RESULT:      -8.1      3.351      7.594
REMARK  7 active torsions:
REMARK  status: ('A' for Active; 'I' for Inactive)
REMARK    1  A    between atoms: C3_3  and  N1_4 
REMARK    2  A    between atoms: C7_8  and  N2_9 
REMARK    3  A    between atoms: N2_9  and  C8_10 
REMARK    4  A    between atoms: C10_13  and  C11_14 
REMARK    5  A    between atoms: C11_14  and  N4_15 
REMARK    6  A    between atoms: N4_15  and  C12_16 
REMARK    7  A    between atoms: C12_16  and  C14_18 
ROOT
HETATM    1  C8  UNL     1      21.686   3.020  52.069  1.00  0.00     0.112 C 
HETATM    2  C9  UNL     1      20.332   3.527  51.882  1.00  0.00     0.117 C 
HETATM    3  N3  UNL     1      19.236   3.945  51.750  1.00  0.00    -0.190 NA
HETATM    4  C10 UNL     1      22.706   3.875  52.269  1.00  0.00     0.044 C 
ENDROOT
BRANCH   1   5
HETATM    5  N2  UNL     1      21.749   1.611  52.018  1.00  0.00    -0.347 N 
HETATM    6  H9  UNL     1      21.996   1.585  51.004  1.00  0.00     0.167 HD
BRANCH   5   7
HETATM    7  C7  UNL     1      21.581   0.515  52.864  1.00  0.00     0.041 A 
HETATM    8  C2  UNL     1      20.380  -0.135  52.953  1.00  0.00    -0.009 A 
HETATM    9  C1  UNL     1      19.183   0.244  52.182  1.00  0.00     0.053 C 
HETATM   10  C3  UNL     1      20.351  -1.212  53.845  1.00  0.00     0.034 A 
HETATM   11  C4  UNL     1      21.434  -1.622  54.597  1.00  0.00     0.029 A 
HETATM   12  C5  UNL     1      22.624  -0.911  54.453  1.00  0.00     0.004 A 
HETATM   13  C6  UNL     1      22.693   0.154  53.586  1.00  0.00     0.030 A 
BRANCH  10  14
HETATM   14  N1  UNL     1      19.147  -1.978  54.031  1.00  0.00    -0.399 N 
HETATM   15  H4  UNL     1      18.586  -2.435  54.766  1.00  0.00     0.156 HD
HETATM   16  H5  UNL     1      18.701  -2.100  53.075  1.00  0.00     0.156 HD
ENDBRANCH  10  14
ENDBRANCH   5   7
ENDBRANCH   1   5
BRANCH   4  17
HETATM   17  C11 UNL     1      24.073   3.304  52.460  1.00  0.00     0.300 C 
BRANCH  17  18
HETATM   18  N4  UNL     1      24.602   2.730  51.269  1.00  0.00     0.095 N 
HETATM   19  H13 UNL     1      24.419   1.714  51.256  1.00  0.00     0.317 HD
BRANCH  18  20
HETATM   20  C12 UNL     1      26.020   2.967  51.144  1.00  0.00     0.249 C 
HETATM   21  C13 UNL     1      26.433   3.101  49.720  1.00  0.00     0.048 C 
BRANCH  20  22
HETATM   22  C14 UNL     1      26.819   2.007  51.947  1.00  0.00    -0.026 A 
HETATM   23  C15 UNL     1      27.854   2.203  52.836  1.00  0.00     0.012 A 
HETATM   24  C16 UNL     1      28.486   1.192  53.514  1.00  0.00     0.043 A 
HETATM   25  C17 UNL     1      28.106  -0.122  53.337  1.00  0.00     0.116 A 
HETATM   26  F1  UNL     1      28.767  -1.073  54.036  1.00  0.00    -0.206 F 
HETATM   27  C18 UNL     1      27.069  -0.347  52.449  1.00  0.00     0.043 A 
HETATM   28  C19 UNL     1      26.443   0.672  51.774  1.00  0.00     0.012 A 
ENDBRANCH  20  22
ENDBRANCH  18  20
ENDBRANCH  17  18
ENDBRANCH   4  17
TORSDOF 7
ENDMDL
MODEL 7
REMARK VINA RESULT:      -8.0      4.053      7.452
REMARK  7 active torsions:
REMARK  status: ('A' for Active; 'I' for Inactive)
REMARK    1  A    between atoms: C3_3  and  N1_4 
REMARK    2  A    between atoms: C7_8  and  N2_9 
REMARK    3  A    between atoms: N2_9  and  C8_10 
REMARK    4  A    between atoms: C10_13  and  C11_14 
REMARK    5  A    between atoms: C11_14  and  N4_15 
REMARK    6  A    between atoms: N4_15  and  C12_16 
REMARK    7  A    between atoms: C12_16  and  C14_18 
ROOT
HETATM    1  C8  UNL     1      22.865   2.547  49.628  1.00  0.00     0.112 C 
HETATM    2  C9  UNL     1      22.558   2.548  48.202  1.00  0.00     0.117 C 
HETATM    3  N3  UNL     1      22.322   2.532  47.046  1.00  0.00    -0.190 NA
HETATM    4  C10 UNL     1      22.450   1.531  50.407  1.00  0.00     0.044 C 
ENDROOT
BRANCH   1   5
HETATM    5  N2  UNL     1      23.607   3.681  50.023  1.00  0.00    -0.347 N 
HETATM    6  H9  UNL     1      23.232   3.678  50.997  1.00  0.00     0.167 HD
BRANCH   5   7
HETATM    7  C7  UNL     1      24.523   4.584  49.485  1.00  0.00     0.041 A 
HETATM    8  C2  UNL     1      25.869   4.337  49.523  1.00  0.00    -0.009 A 
HETATM    9  C1  UNL     1      26.463   3.124  50.112  1.00  0.00     0.053 C 
HETATM   10  C3  UNL     1      26.673   5.330  48.955  1.00  0.00     0.034 A 
HETATM   11  C4  UNL     1      26.182   6.490  48.386  1.00  0.00     0.029 A 
HETATM   12  C5  UNL     1      24.801   6.672  48.385  1.00  0.00     0.004 A 
HETATM   13  C6  UNL     1      23.976   5.718  48.934  1.00  0.00     0.030 A 
BRANCH  10  14
HETATM   14  N1  UNL     1      28.104   5.191  48.932  1.00  0.00    -0.399 N 
HETATM   15  H4  UNL     1      28.969   5.746  48.836  1.00  0.00     0.156 HD
HETATM   16  H5  UNL     1      28.323   4.160  49.062  1.00  0.00     0.156 HD
ENDBRANCH  10  14
ENDBRANCH   5   7
ENDBRANCH   1   5
BRANCH   4  17
HETATM   17  C11 UNL     1      22.795   1.576  51.860  1.00  0.00     0.300 C 
BRANCH  17  18
HETATM   18  N4  UNL     1      23.945   0.796  52.177  1.00  0.00     0.095 N 
HETATM   19  H13 UNL     1      23.660  -0.160  52.439  1.00  0.00     0.317 HD
BRANCH  18  20
HETATM   20  C12 UNL     1      24.711   1.384  53.250  1.00  0.00     0.249 C 
HETATM   21  C13 UNL     1      24.598   2.868  53.258  1.00  0.00     0.048 C 
BRANCH  20  22
HETATM   22  C14 UNL     1      26.097   0.855  53.301  1.00  0.00    -0.026 A 
HETATM   23  C15 UNL     1      27.280   1.437  53.702  1.00  0.00     0.012 A 
HETATM   24  C16 UNL     1      28.493   0.795  53.698  1.00  0.00     0.043 A 
HETATM   25  C17 UNL     1      28.596  -0.514  53.277  1.00  0.00     0.116 A 
HETATM   26  F1  UNL     1      29.820  -1.092  53.298  1.00  0.00    -0.206 F 
HETATM   27  C18 UNL     1      27.423  -1.123  52.869  1.00  0.00     0.043 A 
HETATM   28  C19 UNL     1      26.214  -0.472  52.876  1.00  0.00     0.012 A 
ENDBRANCH  20  22
ENDBRANCH  18  20
ENDBRANCH  17  18
ENDBRANCH   4  17
TORSDOF 7
ENDMDL
MODEL 8
REMARK VINA RESULT:      -8.0      1.357      2.277
REMARK  7 active torsions:
REMARK  status: ('A' for Active; 'I' for Inactive)
REMARK    1  A    between atoms: C3_3  and  N1_4 
REMARK    2  A    between atoms: C7_8  and  N2_9 
REMARK    3  A    between atoms: N2_9  and  C8_10 
REMARK    4  A    between atoms: C10_13  and  C11_14 
REMARK    5  A    between atoms: C11_14  and  N4_15 
REMARK    6  A    between atoms: N4_15  and  C12_16 
REMARK    7  A    between atoms: C12_16  and  C14_18 
ROOT
HETATM    1  C8  UNL     1      25.580   3.082  51.068  1.00  0.00     0.112 C 
HETATM    2  C9  UNL     1      26.457   3.622  50.036  1.00  0.00     0.117 C 
HETATM    3  N3  UNL     1      27.160   4.046  49.188  1.00  0.00    -0.190 NA
HETATM    4  C10 UNL     1      24.243   3.155  50.925  1.00  0.00     0.044 C 
ENDROOT
BRANCH   1   5
HETATM    5  N2  UNL     1      26.295   2.514  52.144  1.00  0.00    -0.347 N 
HETATM    6  H9  UNL     1      26.263   3.384  52.721  1.00  0.00     0.167 HD
BRANCH   5   7
HETATM    7  C7  UNL     1      26.892   1.303  52.494  1.00  0.00     0.041 A 
HETATM    8  C2  UNL     1      28.064   1.269  53.201  1.00  0.00    -0.009 A 
HETATM    9  C1  UNL     1      28.784   2.471  53.654  1.00  0.00     0.053 C 
HETATM   10  C3  UNL     1      28.554  -0.012  53.477  1.00  0.00     0.034 A 
HETATM   11  C4  UNL     1      27.930  -1.180  53.084  1.00  0.00     0.029 A 
HETATM   12  C5  UNL     1      26.741  -1.065  52.367  1.00  0.00     0.004 A 
HETATM   13  C6  UNL     1      26.225   0.177  52.076  1.00  0.00     0.030 A 
BRANCH  10  14
HETATM   14  N1  UNL     1      29.778  -0.185  54.212  1.00  0.00    -0.399 N 
HETATM   15  H4  UNL     1      30.295   0.191  55.022  1.00  0.00     0.156 HD
HETATM   16  H5  UNL     1      30.315  -0.976  53.749  1.00  0.00     0.156 HD
ENDBRANCH  10  14
ENDBRANCH   5   7
ENDBRANCH   1   5
BRANCH   4  17
HETATM   17  C11 UNL     1      23.390   2.581  52.009  1.00  0.00     0.300 C 
BRANCH  17  18
HETATM   18  N4  UNL     1      22.523   1.552  51.540  1.00  0.00     0.095 N 
HETATM   19  H13 UNL     1      21.779   1.959  50.953  1.00  0.00     0.317 HD
BRANCH  18  20
HETATM   20  C12 UNL     1      21.929   0.815  52.630  1.00  0.00     0.249 C 
HETATM   21  C13 UNL     1      22.840  -0.248  53.136  1.00  0.00     0.048 C 
BRANCH  20  22
HETATM   22  C14 UNL     1      20.549   0.369  52.315  1.00  0.00    -0.026 A 
HETATM   23  C15 UNL     1      19.756   0.573  51.205  1.00  0.00     0.012 A 
HETATM   24  C16 UNL     1      18.487   0.072  51.065  1.00  0.00     0.043 A 
HETATM   25  C17 UNL     1      17.915  -0.690  52.062  1.00  0.00     0.116 A 
HETATM   26  F1  UNL     1      16.660  -1.156  51.864  1.00  0.00    -0.206 F 
HETATM   27  C18 UNL     1      18.689  -0.911  53.187  1.00  0.00     0.043 A 
HETATM   28  C19 UNL     1      19.959  -0.405  53.319  1.00  0.00     0.012 A 
ENDBRANCH  20  22
ENDBRANCH  18  20
ENDBRANCH  17  18
ENDBRANCH   4  17
TORSDOF 7
ENDMDL
MODEL 9
REMARK VINA RESULT:      -7.9      2.921      6.401
REMARK  7 active torsions:
REMARK  status: ('A' for Active; 'I' for Inactive)
REMARK    1  A    between atoms: C3_3  and  N1_4 
REMARK    2  A    between atoms: C7_8  and  N2_9 
REMARK    3  A    between atoms: N2_9  and  C8_10 
REMARK    4  A    between atoms: C10_13  and  C11_14 
REMARK    5  A    between atoms: C11_14  and  N4_15 
REMARK    6  A    between atoms: N4_15  and  C12_16 
REMARK    7  A    between atoms: C12_16  and  C14_18 
ROOT
HETATM    1  C8  UNL     1      26.302   0.755  52.946  1.00  0.00     0.112 C 
HETATM    2  C9  UNL     1      26.776   0.214  54.214  1.00  0.00     0.117 C 
HETATM    3  N3  UNL     1      27.175  -0.234  55.230  1.00  0.00    -0.190 NA
HETATM    4  C10 UNL     1      27.063   1.626  52.256  1.00  0.00     0.044 C 
ENDROOT
BRANCH   1   5
HETATM    5  N2  UNL     1      25.030   0.259  52.587  1.00  0.00    -0.347 N 
HETATM    6  H9  UNL     1      25.414  -0.574  52.089  1.00  0.00     0.167 HD
BRANCH   5   7
HETATM    7  C7  UNL     1      23.685   0.594  52.735  1.00  0.00     0.041 A 
HETATM    8  C2  UNL     1      22.912   0.012  53.703  1.00  0.00    -0.009 A 
HETATM    9  C1  UNL     1      23.412  -0.991  54.659  1.00  0.00     0.053 C 
HETATM   10  C3  UNL     1      21.579   0.435  53.734  1.00  0.00     0.034 A 
HETATM   11  C4  UNL     1      21.045   1.370  52.870  1.00  0.00     0.029 A 
HETATM   12  C5  UNL     1      21.893   1.919  51.910  1.00  0.00     0.004 A 
HETATM   13  C6  UNL     1      23.211   1.530  51.847  1.00  0.00     0.030 A 
BRANCH  10  14
HETATM   14  N1  UNL     1      20.662  -0.101  54.704  1.00  0.00    -0.399 N 
HETATM   15  H4  UNL     1      20.068   0.183  55.499  1.00  0.00     0.156 HD
HETATM   16  H5  UNL     1      20.581  -1.144  54.519  1.00  0.00     0.156 HD
ENDBRANCH  10  14
ENDBRANCH   5   7
ENDBRANCH   1   5
BRANCH   4  17
HETATM   17  C11 UNL     1      26.533   2.146  50.960  1.00  0.00     0.300 C 
BRANCH  17  18
HETATM   18  N4  UNL     1      26.695   3.555  50.825  1.00  0.00     0.095 N 
HETATM   19  H13 UNL     1      26.337   4.033  51.667  1.00  0.00     0.317 HD
BRANCH  18  20
HETATM   20  C12 UNL     1      26.016   4.062  49.656  1.00  0.00     0.249 C 
HETATM   21  C13 UNL     1      26.845   5.063  48.929  1.00  0.00     0.048 C 
BRANCH  20  22
HETATM   22  C14 UNL     1      24.628   4.492  49.960  1.00  0.00    -0.026 A 
HETATM   23  C15 UNL     1      24.097   5.159  51.043  1.00  0.00     0.012 A 
HETATM   24  C16 UNL     1      22.772   5.496  51.164  1.00  0.00     0.043 A 
HETATM   25  C17 UNL     1      21.869   5.173  50.173  1.00  0.00     0.116 A 
HETATM   26  F1  UNL     1      20.577   5.533  50.352  1.00  0.00    -0.206 F 
HETATM   27  C18 UNL     1      22.375   4.502  49.075  1.00  0.00     0.043 A 
HETATM   28  C19 UNL     1      23.703   4.168  48.962  1.00  0.00     0.012 A 
ENDBRANCH  20  22
ENDBRANCH  18  20
ENDBRANCH  17  18
ENDBRANCH   4  17
TORSDOF 7
ENDMDL
