MODEL 1
REMARK VINA RESULT:      -6.7      0.000      0.000
REMARK  7 active torsions:
REMARK  status: ('A' for Active; 'I' for Inactive)
REMARK    1  A    between atoms: C2_2  and  C12_16 
REMARK    2  A    between atoms: N1_3  and  C3_4 
REMARK    3  A    between atoms: C4_5  and  N2_6 
REMARK    4  A    between atoms: N2_6  and  C6_8 
REMARK    5  A    between atoms: C12_16  and  N3_17 
REMARK    6  A    between atoms: C12_16  and  C14_20 
REMARK    7  A    between atoms: C14_20  and  O1_21 
ROOT
HETATM    1  C12 UNL     1      28.257   1.051  53.508  1.00  0.00     0.302 C 
HETATM    2  C13 UNL     1      27.504   0.508  54.640  1.00  0.00     0.110 C 
HETATM    3  N4  UNL     1      26.917   0.063  55.551  1.00  0.00    -0.194 NA
ENDROOT
BRANCH   1   4
HETATM    4  C2  UNL     1      27.342   1.286  52.376  1.00  0.00     0.063 C 
HETATM    5  C1  UNL     1      26.759   0.088  51.708  1.00  0.00     0.069 C 
HETATM    6  N1  UNL     1      27.018   2.454  51.931  1.00  0.00    -0.265 NA
BRANCH   6   7
HETATM    7  C3  UNL     1      26.120   2.503  50.828  1.00  0.00     0.134 C 
HETATM    8  C4  UNL     1      24.808   2.591  50.682  1.00  0.00     0.110 C 
BRANCH   8   9
HETATM    9  N2  UNL     1      24.033   2.658  51.854  1.00  0.00    -0.360 N 
HETATM   10  C5  UNL     1      23.918   3.920  52.558  1.00  0.00     0.155 C 
BRANCH   9  11
HETATM   11  C6  UNL     1      23.377   1.488  52.326  1.00  0.00     0.035 A 
HETATM   12  C7  UNL     1      22.260   0.965  51.666  1.00  0.00     0.033 A 
HETATM   13  C8  UNL     1      21.598  -0.175  52.103  1.00  0.00     0.046 A 
HETATM   14  C9  UNL     1      22.051  -0.835  53.241  1.00  0.00     0.138 A 
HETATM   15  F1  UNL     1      21.394  -1.946  53.652  1.00  0.00    -0.204 F 
HETATM   16  C10 UNL     1      23.167  -0.329  53.916  1.00  0.00     0.074 A 
HETATM   17 CL1  UNL     1      23.655  -1.222  55.323  1.00  0.00    -0.081 Cl
HETATM   18  C11 UNL     1      23.796   0.806  53.450  1.00  0.00     0.056 A 
ENDBRANCH   9  11
ENDBRANCH   8   9
ENDBRANCH   6   7
ENDBRANCH   1   4
BRANCH   1  19
HETATM   19  N3  UNL     1      29.283   0.072  53.146  1.00  0.00     0.110 N 
HETATM   20  H12 UNL     1      29.647  -0.329  54.038  1.00  0.00     0.315 HD
HETATM   21  H13 UNL     1      30.001   0.561  52.602  1.00  0.00     0.315 HD
ENDBRANCH   1  19
BRANCH   1  22
HETATM   22  C14 UNL     1      29.007   2.316  53.907  1.00  0.00     0.227 C 
BRANCH  22  23
HETATM   23  O1  UNL     1      29.462   2.145  55.212  1.00  0.00    -0.397 OA
HETATM   24  H16 UNL     1      28.978   1.380  55.657  1.00  0.00     0.209 HD
ENDBRANCH  22  23
ENDBRANCH   1  22
TORSDOF 7
ENDMDL
MODEL 2
REMARK VINA RESULT:      -6.7      1.703      2.102
REMARK  7 active torsions:
REMARK  status: ('A' for Active; 'I' for Inactive)
REMARK    1  A    between atoms: C2_2  and  C12_16 
REMARK    2  A    between atoms: N1_3  and  C3_4 
REMARK    3  A    between atoms: C4_5  and  N2_6 
REMARK    4  A    between atoms: N2_6  and  C6_8 
REMARK    5  A    between atoms: C12_16  and  N3_17 
REMARK    6  A    between atoms: C12_16  and  C14_20 
REMARK    7  A    between atoms: C14_20  and  O1_21 
ROOT
HETATM    1  C12 UNL     1      28.522  -0.095  53.533  1.00  0.00     0.302 C 
HETATM    2  C13 UNL     1      28.807  -1.525  53.413  1.00  0.00     0.110 C 
HETATM    3  N4  UNL     1      29.054  -2.667  53.321  1.00  0.00    -0.194 NA
ENDROOT
BRANCH   1   4
HETATM    4  C2  UNL     1      27.471   0.280  52.568  1.00  0.00     0.063 C 
HETATM    5  C1  UNL     1      26.722  -0.826  51.909  1.00  0.00     0.069 C 
HETATM    6  N1  UNL     1      27.163   1.496  52.262  1.00  0.00    -0.265 NA
BRANCH   6   7
HETATM    7  C3  UNL     1      26.122   1.683  51.311  1.00  0.00     0.134 C 
HETATM    8  C4  UNL     1      24.822   1.927  51.369  1.00  0.00     0.110 C 
BRANCH   8   9
HETATM    9  N2  UNL     1      24.247   2.049  52.647  1.00  0.00    -0.360 N 
HETATM   10  C5  UNL     1      24.542   3.220  53.450  1.00  0.00     0.155 C 
BRANCH   9  11
HETATM   11  C6  UNL     1      23.387   1.023  53.127  1.00  0.00     0.035 A 
HETATM   12  C7  UNL     1      23.867   0.002  53.952  1.00  0.00     0.033 A 
HETATM   13  C8  UNL     1      23.053  -1.013  54.437  1.00  0.00     0.046 A 
HETATM   14  C9  UNL     1      21.703  -1.028  54.098  1.00  0.00     0.138 A 
HETATM   15  F1  UNL     1      20.923  -2.025  54.581  1.00  0.00    -0.204 F 
HETATM   16  C10 UNL     1      21.203  -0.015  53.275  1.00  0.00     0.074 A 
HETATM   17 CL1  UNL     1      19.509  -0.120  52.909  1.00  0.00    -0.081 Cl
HETATM   18  C11 UNL     1      22.045   0.975  52.813  1.00  0.00     0.056 A 
ENDBRANCH   9  11
ENDBRANCH   8   9
ENDBRANCH   6   7
ENDBRANCH   1   4
BRANCH   1  19
HETATM   19  N3  UNL     1      29.762   0.631  53.252  1.00  0.00     0.110 N 
HETATM   20  H12 UNL     1      29.636   1.097  52.327  1.00  0.00     0.315 HD
HETATM   21  H13 UNL     1      30.528  -0.049  53.259  1.00  0.00     0.315 HD
ENDBRANCH   1  19
BRANCH   1  22
HETATM   22  C14 UNL     1      28.138   0.268  54.962  1.00  0.00     0.227 C 
BRANCH  22  23
HETATM   23  O1  UNL     1      28.942   1.333  55.359  1.00  0.00    -0.397 OA
HETATM   24  H16 UNL     1      29.616   1.031  56.046  1.00  0.00     0.209 HD
ENDBRANCH  22  23
ENDBRANCH   1  22
TORSDOF 7
ENDMDL
MODEL 3
REMARK VINA RESULT:      -6.6      3.089      3.792
REMARK  7 active torsions:
REMARK  status: ('A' for Active; 'I' for Inactive)
REMARK    1  A    between atoms: C2_2  and  C12_16 
REMARK    2  A    between atoms: N1_3  and  C3_4 
REMARK    3  A    between atoms: C4_5  and  N2_6 
REMARK    4  A    between atoms: N2_6  and  C6_8 
REMARK    5  A    between atoms: C12_16  and  N3_17 
REMARK    6  A    between atoms: C12_16  and  C14_20 
REMARK    7  A    between atoms: C14_20  and  O1_21 
ROOT
HETATM    1  C12 UNL     1      27.621  -0.494  53.490  1.00  0.00     0.302 C 
HETATM    2  C13 UNL     1      29.047  -0.799  53.619  1.00  0.00     0.110 C 
HETATM    3  N4  UNL     1      30.184  -1.053  53.739  1.00  0.00    -0.194 NA
ENDROOT
BRANCH   1   4
HETATM    4  C2  UNL     1      27.456   0.813  52.828  1.00  0.00     0.063 C 
HETATM    5  C1  UNL     1      28.087   1.994  53.481  1.00  0.00     0.069 C 
HETATM    6  N1  UNL     1      26.804   0.996  51.728  1.00  0.00    -0.265 NA
BRANCH   6   7
HETATM    7  C3  UNL     1      26.741   2.325  51.224  1.00  0.00     0.134 C 
HETATM    8  C4  UNL     1      25.820   3.274  51.175  1.00  0.00     0.110 C 
BRANCH   8   9
HETATM    9  N2  UNL     1      24.564   2.981  51.737  1.00  0.00    -0.360 N 
HETATM   10  C5  UNL     1      24.345   3.222  53.150  1.00  0.00     0.155 C 
BRANCH   9  11
HETATM   11  C6  UNL     1      23.533   2.455  50.911  1.00  0.00     0.035 A 
HETATM   12  C7  UNL     1      22.635   1.498  51.392  1.00  0.00     0.033 A 
HETATM   13  C8  UNL     1      21.618   0.966  50.610  1.00  0.00     0.046 A 
HETATM   14  C9  UNL     1      21.474   1.392  49.293  1.00  0.00     0.138 A 
HETATM   15  F1  UNL     1      20.476   0.863  48.545  1.00  0.00    -0.204 F 
HETATM   16  C10 UNL     1      22.362   2.349  48.792  1.00  0.00     0.074 A 
HETATM   17 CL1  UNL     1      22.101   2.816  47.140  1.00  0.00    -0.081 Cl
HETATM   18  C11 UNL     1      23.359   2.853  49.601  1.00  0.00     0.056 A 
ENDBRANCH   9  11
ENDBRANCH   8   9
ENDBRANCH   6   7
ENDBRANCH   1   4
BRANCH   1  19
HETATM   19  N3  UNL     1      27.049  -0.465  54.838  1.00  0.00     0.110 N 
HETATM   20  H12 UNL     1      27.493   0.336  55.337  1.00  0.00     0.315 HD
HETATM   21  H13 UNL     1      27.242  -1.370  55.276  1.00  0.00     0.315 HD
ENDBRANCH   1  19
BRANCH   1  22
HETATM   22  C14 UNL     1      26.889  -1.605  52.748  1.00  0.00     0.227 C 
BRANCH  22  23
HETATM   23  O1  UNL     1      27.577  -2.793  52.979  1.00  0.00    -0.397 OA
HETATM   24  H16 UNL     1      27.614  -2.994  53.967  1.00  0.00     0.209 HD
ENDBRANCH  22  23
ENDBRANCH   1  22
TORSDOF 7
ENDMDL
MODEL 4
REMARK VINA RESULT:      -6.6      2.683      4.751
REMARK  7 active torsions:
REMARK  status: ('A' for Active; 'I' for Inactive)
REMARK    1  A    between atoms: C2_2  and  C12_16 
REMARK    2  A    between atoms: N1_3  and  C3_4 
REMARK    3  A    between atoms: C4_5  and  N2_6 
REMARK    4  A    between atoms: N2_6  and  C6_8 
REMARK    5  A    between atoms: C12_16  and  N3_17 
REMARK    6  A    between atoms: C12_16  and  C14_20 
REMARK    7  A    between atoms: C14_20  and  O1_21 
ROOT
HETATM    1  C12 UNL     1      23.549   4.925  51.861  1.00  0.00     0.302 C 
HETATM    2  C13 UNL     1      22.109   4.778  51.644  1.00  0.00     0.110 C 
HETATM    3  N4  UNL     1      20.953   4.672  51.485  1.00  0.00    -0.194 NA
ENDROOT
BRANCH   1   4
HETATM    4  C2  UNL     1      24.235   3.678  51.476  1.00  0.00     0.063 C 
HETATM    5  C1  UNL     1      23.990   3.161  50.100  1.00  0.00     0.069 C 
HETATM    6  N1  UNL     1      25.027   3.013  52.249  1.00  0.00    -0.265 NA
BRANCH   6   7
HETATM    7  C3  UNL     1      25.609   1.828  51.717  1.00  0.00     0.134 C 
HETATM    8  C4  UNL     1      25.773   0.585  52.141  1.00  0.00     0.110 C 
BRANCH   8   9
HETATM    9  N2  UNL     1      25.280   0.271  53.421  1.00  0.00    -0.360 N 
HETATM   10  C5  UNL     1      26.154   0.405  54.570  1.00  0.00     0.155 C 
BRANCH   9  11
HETATM   11  C6  UNL     1      23.936  -0.170  53.565  1.00  0.00     0.035 A 
HETATM   12  C7  UNL     1      23.548  -0.977  54.639  1.00  0.00     0.033 A 
HETATM   13  C8  UNL     1      22.244  -1.424  54.806  1.00  0.00     0.046 A 
HETATM   14  C9  UNL     1      21.273  -1.062  53.877  1.00  0.00     0.138 A 
HETATM   15  F1  UNL     1      20.005  -1.506  54.057  1.00  0.00    -0.204 F 
HETATM   16  C10 UNL     1      21.640  -0.255  52.796  1.00  0.00     0.074 A 
HETATM   17 CL1  UNL     1      20.358   0.142  51.694  1.00  0.00    -0.081 Cl
HETATM   18  C11 UNL     1      22.946   0.168  52.666  1.00  0.00     0.056 A 
ENDBRANCH   9  11
ENDBRANCH   8   9
ENDBRANCH   6   7
ENDBRANCH   1   4
BRANCH   1  19
HETATM   19  N3  UNL     1      23.757   5.209  53.283  1.00  0.00     0.110 N 
HETATM   20  H12 UNL     1      24.437   5.997  53.337  1.00  0.00     0.315 HD
HETATM   21  H13 UNL     1      24.101   4.350  53.724  1.00  0.00     0.315 HD
ENDBRANCH   1  19
BRANCH   1  22
HETATM   22  C14 UNL     1      24.095   6.132  51.109  1.00  0.00     0.227 C 
BRANCH  22  23
HETATM   23  O1  UNL     1      24.541   7.053  52.053  1.00  0.00    -0.397 OA
HETATM   24  H16 UNL     1      23.810   7.710  52.279  1.00  0.00     0.209 HD
ENDBRANCH  22  23
ENDBRANCH   1  22
TORSDOF 7
ENDMDL
MODEL 5
REMARK VINA RESULT:      -6.5      2.116      2.735
REMARK  7 active torsions:
REMARK  status: ('A' for Active; 'I' for Inactive)
REMARK    1  A    between atoms: C2_2  and  C12_16 
REMARK    2  A    between atoms: N1_3  and  C3_4 
REMARK    3  A    between atoms: C4_5  and  N2_6 
REMARK    4  A    between atoms: N2_6  and  C6_8 
REMARK    5  A    between atoms: C12_16  and  N3_17 
REMARK    6  A    between atoms: C12_16  and  C14_20 
REMARK    7  A    between atoms: C14_20  and  O1_21 
ROOT
HETATM    1  C12 UNL     1      27.596  -0.531  53.445  1.00  0.00     0.302 C 
HETATM    2  C13 UNL     1      29.046  -0.715  53.527  1.00  0.00     0.110 C 
HETATM    3  N4  UNL     1      30.204  -0.870  53.611  1.00  0.00    -0.194 NA
ENDROOT
BRANCH   1   4
HETATM    4  C2  UNL     1      27.298   0.695  52.682  1.00  0.00     0.063 C 
HETATM    5  C1  UNL     1      27.984   1.948  53.105  1.00  0.00     0.069 C 
HETATM    6  N1  UNL     1      26.487   0.749  51.678  1.00  0.00    -0.265 NA
BRANCH   6   7
HETATM    7  C3  UNL     1      26.313   2.015  51.052  1.00  0.00     0.134 C 
HETATM    8  C4  UNL     1      25.441   3.006  51.151  1.00  0.00     0.110 C 
BRANCH   8   9
HETATM    9  N2  UNL     1      24.396   2.853  52.080  1.00  0.00    -0.360 N 
HETATM   10  C5  UNL     1      24.520   3.454  53.393  1.00  0.00     0.155 C 
BRANCH   9  11
HETATM   11  C6  UNL     1      23.238   2.112  51.715  1.00  0.00     0.035 A 
HETATM   12  C7  UNL     1      22.700   2.195  50.427  1.00  0.00     0.033 A 
HETATM   13  C8  UNL     1      21.570   1.485  50.041  1.00  0.00     0.046 A 
HETATM   14  C9  UNL     1      20.939   0.652  50.960  1.00  0.00     0.138 A 
HETATM   15  F1  UNL     1      19.839  -0.034  50.566  1.00  0.00    -0.204 F 
HETATM   16  C10 UNL     1      21.461   0.554  52.253  1.00  0.00     0.074 A 
HETATM   17 CL1  UNL     1      20.604  -0.509  53.325  1.00  0.00    -0.081 Cl
HETATM   18  C11 UNL     1      22.585   1.277  52.597  1.00  0.00     0.056 A 
ENDBRANCH   9  11
ENDBRANCH   8   9
ENDBRANCH   6   7
ENDBRANCH   1   4
BRANCH   1  19
HETATM   19  N3  UNL     1      27.084  -0.422  54.813  1.00  0.00     0.110 N 
HETATM   20  H12 UNL     1      26.359   0.327  54.805  1.00  0.00     0.315 HD
HETATM   21  H13 UNL     1      27.877  -0.209  55.426  1.00  0.00     0.315 HD
ENDBRANCH   1  19
BRANCH   1  22
HETATM   22  C14 UNL     1      26.923  -1.757  52.841  1.00  0.00     0.227 C 
BRANCH  22  23
HETATM   23  O1  UNL     1      27.787  -2.836  53.002  1.00  0.00    -0.397 OA
HETATM   24  H16 UNL     1      28.456  -2.869  52.248  1.00  0.00     0.209 HD
ENDBRANCH  22  23
ENDBRANCH   1  22
TORSDOF 7
ENDMDL
MODEL 6
REMARK VINA RESULT:      -6.5      3.959      5.293
REMARK  7 active torsions:
REMARK  status: ('A' for Active; 'I' for Inactive)
REMARK    1  A    between atoms: C2_2  and  C12_16 
REMARK    2  A    between atoms: N1_3  and  C3_4 
REMARK    3  A    between atoms: C4_5  and  N2_6 
REMARK    4  A    between atoms: N2_6  and  C6_8 
REMARK    5  A    between atoms: C12_16  and  N3_17 
REMARK    6  A    between atoms: C12_16  and  C14_20 
REMARK    7  A    between atoms: C14_20  and  O1_21 
ROOT
HETATM    1  C12 UNL     1      27.551   0.676  53.893  1.00  0.00     0.302 C 
HETATM    2  C13 UNL     1      28.378   1.864  53.685  1.00  0.00     0.110 C 
HETATM    3  N4  UNL     1      29.045   2.817  53.538  1.00  0.00    -0.194 NA
ENDROOT
BRANCH   1   4
HETATM    4  C2  UNL     1      26.422   0.690  52.945  1.00  0.00     0.063 C 
HETATM    5  C1  UNL     1      26.565  -0.116  51.700  1.00  0.00     0.069 C 
HETATM    6  N1  UNL     1      25.327   1.350  53.125  1.00  0.00    -0.265 NA
BRANCH   6   7
HETATM    7  C3  UNL     1      24.336   1.253  52.108  1.00  0.00     0.134 C 
HETATM    8  C4  UNL     1      23.700   2.110  51.324  1.00  0.00     0.110 C 
BRANCH   8   9
HETATM    9  N2  UNL     1      24.024   3.471  51.464  1.00  0.00    -0.360 N 
HETATM   10  C5  UNL     1      23.379   4.252  52.501  1.00  0.00     0.155 C 
BRANCH   9  11
HETATM   11  C6  UNL     1      24.977   4.057  50.586  1.00  0.00     0.035 A 
HETATM   12  C7  UNL     1      26.047   3.314  50.077  1.00  0.00     0.033 A 
HETATM   13  C8  UNL     1      26.994   3.858  49.218  1.00  0.00     0.046 A 
HETATM   14  C9  UNL     1      26.887   5.193  48.840  1.00  0.00     0.138 A 
HETATM   15  F1  UNL     1      27.819   5.707  48.001  1.00  0.00    -0.204 F 
HETATM   16  C10 UNL     1      25.824   5.953  49.337  1.00  0.00     0.074 A 
HETATM   17 CL1  UNL     1      25.778   7.606  48.807  1.00  0.00    -0.081 Cl
HETATM   18  C11 UNL     1      24.905   5.376  50.188  1.00  0.00     0.056 A 
ENDBRANCH   9  11
ENDBRANCH   8   9
ENDBRANCH   6   7
ENDBRANCH   1   4
BRANCH   1  19
HETATM   19  N3  UNL     1      27.064   0.709  55.274  1.00  0.00     0.110 N 
HETATM   20  H12 UNL     1      26.644  -0.226  55.468  1.00  0.00     0.315 HD
HETATM   21  H13 UNL     1      26.389   1.476  55.346  1.00  0.00     0.315 HD
ENDBRANCH   1  19
BRANCH   1  22
HETATM   22  C14 UNL     1      28.381  -0.596  53.772  1.00  0.00     0.227 C 
BRANCH  22  23
HETATM   23  O1  UNL     1      29.712  -0.219  53.613  1.00  0.00    -0.397 OA
HETATM   24  H16 UNL     1      30.119   0.023  54.503  1.00  0.00     0.209 HD
ENDBRANCH  22  23
ENDBRANCH   1  22
TORSDOF 7
ENDMDL
MODEL 7
REMARK VINA RESULT:      -6.3      4.166      5.511
REMARK  7 active torsions:
REMARK  status: ('A' for Active; 'I' for Inactive)
REMARK    1  A    between atoms: C2_2  and  C12_16 
REMARK    2  A    between atoms: N1_3  and  C3_4 
REMARK    3  A    between atoms: C4_5  and  N2_6 
REMARK    4  A    between atoms: N2_6  and  C6_8 
REMARK    5  A    between atoms: C12_16  and  N3_17 
REMARK    6  A    between atoms: C12_16  and  C14_20 
REMARK    7  A    between atoms: C14_20  and  O1_21 
ROOT
HETATM    1  C12 UNL     1      26.459   0.989  53.100  1.00  0.00     0.302 C 
HETATM    2  C13 UNL     1      26.459   0.240  54.357  1.00  0.00     0.110 C 
HETATM    3  N4  UNL     1      26.470  -0.373  55.356  1.00  0.00    -0.194 NA
ENDROOT
BRANCH   1   4
HETATM    4  C2  UNL     1      25.183   1.714  52.959  1.00  0.00     0.063 C 
HETATM    5  C1  UNL     1      23.928   0.923  53.099  1.00  0.00     0.069 C 
HETATM    6  N1  UNL     1      25.086   2.980  52.723  1.00  0.00    -0.265 NA
BRANCH   6   7
HETATM    7  C3  UNL     1      23.775   3.522  52.616  1.00  0.00     0.134 C 
HETATM    8  C4  UNL     1      22.964   3.842  51.620  1.00  0.00     0.110 C 
BRANCH   8   9
HETATM    9  N2  UNL     1      23.434   3.626  50.312  1.00  0.00    -0.360 N 
HETATM   10  C5  UNL     1      23.043   2.422  49.607  1.00  0.00     0.155 C 
BRANCH   9  11
HETATM   11  C6  UNL     1      24.285   4.592  49.706  1.00  0.00     0.035 A 
HETATM   12  C7  UNL     1      23.805   5.853  49.340  1.00  0.00     0.033 A 
HETATM   13  C8  UNL     1      24.610   6.816  48.746  1.00  0.00     0.046 A 
HETATM   14  C9  UNL     1      25.949   6.531  48.501  1.00  0.00     0.138 A 
HETATM   15  F1  UNL     1      26.721   7.483  47.922  1.00  0.00    -0.204 F 
HETATM   16  C10 UNL     1      26.450   5.276  48.860  1.00  0.00     0.074 A 
HETATM   17 CL1  UNL     1      28.131   5.016  48.513  1.00  0.00    -0.081 Cl
HETATM   18  C11 UNL     1      25.617   4.346  49.447  1.00  0.00     0.056 A 
ENDBRANCH   9  11
ENDBRANCH   8   9
ENDBRANCH   6   7
ENDBRANCH   1   4
BRANCH   1  19
HETATM   19  N3  UNL     1      26.628   0.026  52.009  1.00  0.00     0.110 N 
HETATM   20  H12 UNL     1      25.790   0.117  51.395  1.00  0.00     0.315 HD
HETATM   21  H13 UNL     1      26.722  -0.904  52.428  1.00  0.00     0.315 HD
ENDBRANCH   1  19
BRANCH   1  22
HETATM   22  C14 UNL     1      27.658   1.926  53.022  1.00  0.00     0.227 C 
BRANCH  22  23
HETATM   23  O1  UNL     1      27.601   2.779  54.121  1.00  0.00    -0.397 OA
HETATM   24  H16 UNL     1      27.382   3.719  53.827  1.00  0.00     0.209 HD
ENDBRANCH  22  23
ENDBRANCH   1  22
TORSDOF 7
ENDMDL
MODEL 8
REMARK VINA RESULT:      -6.2      4.558      6.569
REMARK  7 active torsions:
REMARK  status: ('A' for Active; 'I' for Inactive)
REMARK    1  A    between atoms: C2_2  and  C12_16 
REMARK    2  A    between atoms: N1_3  and  C3_4 
REMARK    3  A    between atoms: C4_5  and  N2_6 
REMARK    4  A    between atoms: N2_6  and  C6_8 
REMARK    5  A    between atoms: C12_16  and  N3_17 
REMARK    6  A    between atoms: C12_16  and  C14_20 
REMARK    7  A    between atoms: C14_20  and  O1_21 
ROOT
HETATM    1  C12 UNL     1      26.327   8.079  49.606  1.00  0.00     0.302 C 
HETATM    2  C13 UNL     1      25.457   8.691  48.601  1.00  0.00     0.110 C 
HETATM    3  N4  UNL     1      24.751   9.191  47.811  1.00  0.00    -0.194 NA
ENDROOT
BRANCH   1   4
HETATM    4  C2  UNL     1      26.692   6.716  49.177  1.00  0.00     0.063 C 
HETATM    5  C1  UNL     1      27.714   6.588  48.100  1.00  0.00     0.069 C 
HETATM    6  N1  UNL     1      26.185   5.636  49.671  1.00  0.00    -0.265 NA
BRANCH   6   7
HETATM    7  C3  UNL     1      26.649   4.399  49.142  1.00  0.00     0.134 C 
HETATM    8  C4  UNL     1      26.650   3.139  49.548  1.00  0.00     0.110 C 
BRANCH   8   9
HETATM    9  N2  UNL     1      26.067   2.866  50.799  1.00  0.00    -0.360 N 
HETATM   10  C5  UNL     1      24.807   3.493  51.147  1.00  0.00     0.155 C 
BRANCH   9  11
HETATM   11  C6  UNL     1      26.722   1.980  51.698  1.00  0.00     0.035 A 
HETATM   12  C7  UNL     1      27.645   2.452  52.637  1.00  0.00     0.033 A 
HETATM   13  C8  UNL     1      28.301   1.612  53.528  1.00  0.00     0.046 A 
HETATM   14  C9  UNL     1      28.040   0.246  53.498  1.00  0.00     0.138 A 
HETATM   15  F1  UNL     1      28.689  -0.559  54.375  1.00  0.00    -0.204 F 
HETATM   16  C10 UNL     1      27.121  -0.246  52.566  1.00  0.00     0.074 A 
HETATM   17 CL1  UNL     1      26.864  -1.963  52.607  1.00  0.00    -0.081 Cl
HETATM   18  C11 UNL     1      26.490   0.621  51.699  1.00  0.00     0.056 A 
ENDBRANCH   9  11
ENDBRANCH   8   9
ENDBRANCH   6   7
ENDBRANCH   1   4
BRANCH   1  19
HETATM   19  N3  UNL     1      25.589   8.040  50.870  1.00  0.00     0.110 N 
HETATM   20  H12 UNL     1      24.701   8.566  50.717  1.00  0.00     0.315 HD
HETATM   21  H13 UNL     1      26.185   8.457  51.591  1.00  0.00     0.315 HD
ENDBRANCH   1  19
BRANCH   1  22
HETATM   22  C14 UNL     1      27.556   8.942  49.864  1.00  0.00     0.227 C 
BRANCH  22  23
HETATM   23  O1  UNL     1      27.493   9.383  51.183  1.00  0.00    -0.397 OA
HETATM   24  H16 UNL     1      27.896   8.697  51.804  1.00  0.00     0.209 HD
ENDBRANCH  22  23
ENDBRANCH   1  22
TORSDOF 7
ENDMDL
MODEL 9
REMARK VINA RESULT:      -6.1      3.698      5.186
REMARK  7 active torsions:
REMARK  status: ('A' for Active; 'I' for Inactive)
REMARK    1  A    between atoms: C2_2  and  C12_16 
REMARK    2  A    between atoms: N1_3  and  C3_4 
REMARK    3  A    between atoms: C4_5  and  N2_6 
REMARK    4  A    between atoms: N2_6  and  C6_8 
REMARK    5  A    between atoms: C12_16  and  N3_17 
REMARK    6  A    between atoms: C12_16  and  C14_20 
REMARK    7  A    between atoms: C14_20  and  O1_21 
ROOT
HETATM    1  C12 UNL     1      25.687  -0.020  53.733  1.00  0.00     0.302 C 
HETATM    2  C13 UNL     1      26.525   1.140  54.037  1.00  0.00     0.110 C 
HETATM    3  N4  UNL     1      27.206   2.059  54.293  1.00  0.00    -0.194 NA
ENDROOT
BRANCH   1   4
HETATM    4  C2  UNL     1      24.314   0.427  53.437  1.00  0.00     0.063 C 
HETATM    5  C1  UNL     1      23.195  -0.405  53.963  1.00  0.00     0.069 C 
HETATM    6  N1  UNL     1      24.023   1.486  52.757  1.00  0.00    -0.265 NA
BRANCH   6   7
HETATM    7  C3  UNL     1      22.643   1.774  52.564  1.00  0.00     0.134 C 
HETATM    8  C4  UNL     1      21.903   2.226  51.563  1.00  0.00     0.110 C 
BRANCH   8   9
HETATM    9  N2  UNL     1      22.564   2.517  50.356  1.00  0.00    -0.360 N 
HETATM   10  C5  UNL     1      22.305   1.696  49.189  1.00  0.00     0.155 C 
BRANCH   9  11
HETATM   11  C6  UNL     1      23.471   3.611  50.301  1.00  0.00     0.035 A 
HETATM   12  C7  UNL     1      23.140   4.856  50.845  1.00  0.00     0.033 A 
HETATM   13  C8  UNL     1      24.005   5.942  50.807  1.00  0.00     0.046 A 
HETATM   14  C9  UNL     1      25.253   5.802  50.209  1.00  0.00     0.138 A 
HETATM   15  F1  UNL     1      26.085   6.872  50.182  1.00  0.00    -0.204 F 
HETATM   16  C10 UNL     1      25.604   4.565  49.660  1.00  0.00     0.074 A 
HETATM   17 CL1  UNL     1      27.181   4.491  48.937  1.00  0.00    -0.081 Cl
HETATM   18  C11 UNL     1      24.717   3.511  49.717  1.00  0.00     0.056 A 
ENDBRANCH   9  11
ENDBRANCH   8   9
ENDBRANCH   6   7
ENDBRANCH   1   4
BRANCH   1  19
HETATM   19  N3  UNL     1      25.701  -0.898  54.905  1.00  0.00     0.110 N 
HETATM   20  H12 UNL     1      26.292  -0.430  55.625  1.00  0.00     0.315 HD
HETATM   21  H13 UNL     1      26.071  -1.806  54.608  1.00  0.00     0.315 HD
ENDBRANCH   1  19
BRANCH   1  22
HETATM   22  C14 UNL     1      26.279  -0.837  52.590  1.00  0.00     0.227 C 
BRANCH  22  23
HETATM   23  O1  UNL     1      26.770   0.056  51.642  1.00  0.00    -0.397 OA
HETATM   24  H16 UNL     1      27.256  -0.438  50.909  1.00  0.00     0.209 HD
ENDBRANCH  22  23
ENDBRANCH   1  22
TORSDOF 7
ENDMDL
