MODEL 1
REMARK VINA RESULT:      -7.5      0.000      0.000
REMARK  9 active torsions:
REMARK  status: ('A' for Active; 'I' for Inactive)
REMARK    1  A    between atoms: C2_2  and  O1_3 
REMARK    2  A    between atoms: O1_3  and  C3_4 
REMARK    3  A    between atoms: C5_6  and  C6_7 
REMARK    4  A    between atoms: C7_8  and  N1_9 
REMARK    5  A    between atoms: C7_8  and  C8_10 
REMARK       I    between atoms: C8_10  and  N2_11 
REMARK    6  A    between atoms: C10_14  and  C11_15 
REMARK    7  A    between atoms: C11_15  and  S1_16 
REMARK    8  A    between atoms: S1_16  and  C12_17 
REMARK    9  A    between atoms: C18_24  and  O4_25 
ROOT
HETATM    1  C3  UNL     1      26.602   0.271  53.926  1.00  0.00     0.103 A 
HETATM    2  C4  UNL     1      26.780   1.178  52.904  1.00  0.00     0.051 A 
HETATM    3  C5  UNL     1      25.799   1.484  51.988  1.00  0.00    -0.030 A 
HETATM    4  C9  UNL     1      24.603   0.825  52.146  1.00  0.00     0.022 A 
HETATM    5  C10 UNL     1      24.316  -0.104  53.135  1.00  0.00    -0.012 A 
HETATM    6  C18 UNL     1      25.359  -0.364  54.029  1.00  0.00     0.106 A 
ENDROOT
BRANCH   3   7
HETATM    7  C6  UNL     1      26.042   2.445  50.934  1.00  0.00     0.046 C 
HETATM    8  C7  UNL     1      25.505   3.651  50.871  1.00  0.00     0.095 C 
BRANCH   8   9
HETATM    9  N1  UNL     1      24.614   4.096  51.885  1.00  0.00    -0.395 N 
HETATM   10  H8  UNL     1      24.366   4.091  52.898  1.00  0.00     0.156 HD
HETATM   11  H9  UNL     1      23.917   4.675  51.362  1.00  0.00     0.156 HD
ENDBRANCH   8   9
BRANCH   8  12
HETATM   12  C8  UNL     1      25.848   4.507  49.744  1.00  0.00     0.265 C 
HETATM   13  N2  UNL     1      27.206   4.872  49.552  1.00  0.00    -0.365 N 
HETATM   14  H10 UNL     1      28.197   5.152  49.413  1.00  0.00     0.159 HD
HETATM   15  H11 UNL     1      27.853   5.677  49.479  1.00  0.00     0.159 HD
HETATM   16  O2  UNL     1      24.978   4.926  48.942  1.00  0.00    -0.266 OA
ENDBRANCH   8  12
ENDBRANCH   3   7
BRANCH   1  17
HETATM   17  O1  UNL     1      27.512  -0.110  54.896  1.00  0.00    -0.349 OA
BRANCH  17  18
HETATM   18  C2  UNL     1      28.885   0.142  54.753  1.00  0.00     0.171 C 
HETATM   19  C1  UNL     1      29.573  -0.846  53.841  1.00  0.00     0.034 C 
ENDBRANCH  17  18
ENDBRANCH   1  17
BRANCH   5  20
HETATM   20  C11 UNL     1      23.008  -0.780  53.254  1.00  0.00     0.116 C 
BRANCH  20  21
HETATM   21  S1  UNL     1      21.713   0.255  53.950  1.00  0.00    -0.152 SA
BRANCH  21  22
HETATM   22  C12 UNL     1      20.677   0.866  52.565  1.00  0.00     0.094 C 
HETATM   23  C13 UNL     1      21.187   0.316  51.309  1.00  0.00    -0.010 C 
HETATM   24  C14 UNL     1      21.500   0.745  50.095  1.00  0.00    -0.003 C 
HETATM   25  C15 UNL     1      21.417   2.110  49.558  1.00  0.00     0.201 C 
HETATM   26  O3  UNL     1      21.853   3.037  50.552  1.00  0.00    -0.360 OA
HETATM   27  C16 UNL     1      21.243   3.221  51.780  1.00  0.00     0.132 C 
HETATM   28  C17 UNL     1      20.746   2.344  52.637  1.00  0.00     0.016 C 
ENDBRANCH  21  22
ENDBRANCH  20  21
ENDBRANCH   5  20
BRANCH   6  29
HETATM   29  O4  UNL     1      25.087  -1.301  55.035  1.00  0.00    -0.357 OA
HETATM   30  H22 UNL     1      24.691  -0.914  55.899  1.00  0.00     0.217 HD
ENDBRANCH   6  29
TORSDOF 9
ENDMDL
MODEL 2
REMARK VINA RESULT:      -7.4      3.126      6.304
REMARK  9 active torsions:
REMARK  status: ('A' for Active; 'I' for Inactive)
REMARK    1  A    between atoms: C2_2  and  O1_3 
REMARK    2  A    between atoms: O1_3  and  C3_4 
REMARK    3  A    between atoms: C5_6  and  C6_7 
REMARK    4  A    between atoms: C7_8  and  N1_9 
REMARK    5  A    between atoms: C7_8  and  C8_10 
REMARK       I    between atoms: C8_10  and  N2_11 
REMARK    6  A    between atoms: C10_14  and  C11_15 
REMARK    7  A    between atoms: C11_15  and  S1_16 
REMARK    8  A    between atoms: S1_16  and  C12_17 
REMARK    9  A    between atoms: C18_24  and  O4_25 
ROOT
HETATM    1  C3  UNL     1      23.555   0.233  53.373  1.00  0.00     0.103 A 
HETATM    2  C4  UNL     1      24.737  -0.475  53.397  1.00  0.00     0.051 A 
HETATM    3  C5  UNL     1      25.853  -0.108  52.680  1.00  0.00    -0.030 A 
HETATM    4  C9  UNL     1      25.728   1.030  51.918  1.00  0.00     0.022 A 
HETATM    5  C10 UNL     1      24.591   1.817  51.819  1.00  0.00    -0.012 A 
HETATM    6  C18 UNL     1      23.499   1.382  52.575  1.00  0.00     0.106 A 
ENDROOT
BRANCH   3   7
HETATM    7  C6  UNL     1      27.068  -0.891  52.744  1.00  0.00     0.046 C 
HETATM    8  C7  UNL     1      28.051  -0.693  53.604  1.00  0.00     0.095 C 
BRANCH   8   9
HETATM    9  N1  UNL     1      27.969   0.352  54.563  1.00  0.00    -0.395 N 
HETATM   10  H8  UNL     1      27.519   0.709  55.434  1.00  0.00     0.156 HD
HETATM   11  H9  UNL     1      28.672   1.050  54.226  1.00  0.00     0.156 HD
ENDBRANCH   8   9
BRANCH   8  12
HETATM   12  C8  UNL     1      29.214  -1.568  53.544  1.00  0.00     0.265 C 
HETATM   13  N2  UNL     1      29.018  -2.944  53.260  1.00  0.00    -0.365 N 
HETATM   14  H10 UNL     1      28.881  -3.955  53.063  1.00  0.00     0.159 HD
HETATM   15  H11 UNL     1      29.171  -3.903  53.621  1.00  0.00     0.159 HD
HETATM   16  O2  UNL     1      30.378  -1.137  53.735  1.00  0.00    -0.266 OA
ENDBRANCH   8  12
ENDBRANCH   3   7
BRANCH   1  17
HETATM   17  O1  UNL     1      22.381  -0.043  54.049  1.00  0.00    -0.349 OA
BRANCH  17  18
HETATM   18  C2  UNL     1      21.673  -1.235  53.831  1.00  0.00     0.171 C 
HETATM   19  C1  UNL     1      20.181  -1.023  53.723  1.00  0.00     0.034 C 
ENDBRANCH  17  18
ENDBRANCH   1  17
BRANCH   5  20
HETATM   20  C11 UNL     1      24.519   3.031  50.982  1.00  0.00     0.116 C 
BRANCH  20  21
HETATM   21  S1  UNL     1      26.097   3.528  50.279  1.00  0.00    -0.152 SA
BRANCH  21  22
HETATM   22  C12 UNL     1      25.790   4.946  49.156  1.00  0.00     0.094 C 
HETATM   23  C13 UNL     1      27.068   5.417  48.622  1.00  0.00    -0.010 C 
HETATM   24  C14 UNL     1      27.707   6.566  48.455  1.00  0.00    -0.003 C 
HETATM   25  C15 UNL     1      27.262   7.921  48.807  1.00  0.00     0.201 C 
HETATM   26  O3  UNL     1      26.600   7.888  50.071  1.00  0.00    -0.360 OA
HETATM   27  C16 UNL     1      25.445   7.175  50.339  1.00  0.00     0.132 C 
HETATM   28  C17 UNL     1      25.080   5.956  49.974  1.00  0.00     0.016 C 
ENDBRANCH  21  22
ENDBRANCH  20  21
ENDBRANCH   5  20
BRANCH   6  29
HETATM   29  O4  UNL     1      22.340   2.165  52.488  1.00  0.00    -0.357 OA
HETATM   30  H22 UNL     1      22.391   2.953  51.833  1.00  0.00     0.217 HD
ENDBRANCH   6  29
TORSDOF 9
ENDMDL
MODEL 3
REMARK VINA RESULT:      -7.3      2.064      2.503
REMARK  9 active torsions:
REMARK  status: ('A' for Active; 'I' for Inactive)
REMARK    1  A    between atoms: C2_2  and  O1_3 
REMARK    2  A    between atoms: O1_3  and  C3_4 
REMARK    3  A    between atoms: C5_6  and  C6_7 
REMARK    4  A    between atoms: C7_8  and  N1_9 
REMARK    5  A    between atoms: C7_8  and  C8_10 
REMARK       I    between atoms: C8_10  and  N2_11 
REMARK    6  A    between atoms: C10_14  and  C11_15 
REMARK    7  A    between atoms: C11_15  and  S1_16 
REMARK    8  A    between atoms: S1_16  and  C12_17 
REMARK    9  A    between atoms: C18_24  and  O4_25 
ROOT
HETATM    1  C3  UNL     1      26.162  -0.132  54.342  1.00  0.00     0.103 A 
HETATM    2  C4  UNL     1      26.062   0.769  53.304  1.00  0.00     0.051 A 
HETATM    3  C5  UNL     1      24.868   1.105  52.708  1.00  0.00    -0.030 A 
HETATM    4  C9  UNL     1      23.751   0.482  53.211  1.00  0.00     0.022 A 
HETATM    5  C10 UNL     1      23.735  -0.437  54.249  1.00  0.00    -0.012 A 
HETATM    6  C18 UNL     1      24.984  -0.728  54.805  1.00  0.00     0.106 A 
ENDROOT
BRANCH   3   7
HETATM    7  C6  UNL     1      24.824   2.057  51.619  1.00  0.00     0.046 C 
HETATM    8  C7  UNL     1      24.604   3.353  51.757  1.00  0.00     0.095 C 
BRANCH   8   9
HETATM    9  N1  UNL     1      24.388   3.913  53.045  1.00  0.00    -0.395 N 
HETATM   10  H8  UNL     1      24.732   4.557  53.789  1.00  0.00     0.156 HD
HETATM   11  H9  UNL     1      23.491   3.474  53.356  1.00  0.00     0.156 HD
ENDBRANCH   8   9
BRANCH   8  12
HETATM   12  C8  UNL     1      24.589   4.186  50.562  1.00  0.00     0.265 C 
HETATM   13  N2  UNL     1      25.670   5.078  50.339  1.00  0.00    -0.365 N 
HETATM   14  H10 UNL     1      26.453   5.741  50.175  1.00  0.00     0.159 HD
HETATM   15  H11 UNL     1      25.918   6.073  50.198  1.00  0.00     0.159 HD
HETATM   16  O2  UNL     1      23.650   4.134  49.730  1.00  0.00    -0.266 OA
ENDBRANCH   8  12
ENDBRANCH   3   7
BRANCH   1  17
HETATM   17  O1  UNL     1      27.302  -0.540  55.012  1.00  0.00    -0.349 OA
BRANCH  17  18
HETATM   18  C2  UNL     1      28.540   0.084  54.798  1.00  0.00     0.171 C 
HETATM   19  C1  UNL     1      29.442  -0.697  53.871  1.00  0.00     0.034 C 
ENDBRANCH  17  18
ENDBRANCH   1  17
BRANCH   5  20
HETATM   20  C11 UNL     1      22.499  -1.073  54.747  1.00  0.00     0.116 C 
BRANCH  20  21
HETATM   21  S1  UNL     1      21.011  -0.107  54.452  1.00  0.00    -0.152 SA
BRANCH  21  22
HETATM   22  C12 UNL     1      20.160  -0.819  52.991  1.00  0.00     0.094 C 
HETATM   23  C13 UNL     1      19.825   0.260  52.061  1.00  0.00    -0.010 C 
HETATM   24  C14 UNL     1      18.779   0.673  51.360  1.00  0.00    -0.003 C 
HETATM   25  C15 UNL     1      17.434   0.087  51.290  1.00  0.00     0.201 C 
HETATM   26  O3  UNL     1      17.036  -0.338  52.594  1.00  0.00    -0.360 OA
HETATM   27  C16 UNL     1      17.685  -1.304  53.342  1.00  0.00     0.132 C 
HETATM   28  C17 UNL     1      18.976  -1.529  53.526  1.00  0.00     0.016 C 
ENDBRANCH  21  22
ENDBRANCH  20  21
ENDBRANCH   5  20
BRANCH   6  29
HETATM   29  O4  UNL     1      24.987  -1.656  55.856  1.00  0.00    -0.357 OA
HETATM   30  H22 UNL     1      25.126  -2.633  55.579  1.00  0.00     0.217 HD
ENDBRANCH   6  29
TORSDOF 9
ENDMDL
MODEL 4
REMARK VINA RESULT:      -7.3      3.183      5.830
REMARK  9 active torsions:
REMARK  status: ('A' for Active; 'I' for Inactive)
REMARK    1  A    between atoms: C2_2  and  O1_3 
REMARK    2  A    between atoms: O1_3  and  C3_4 
REMARK    3  A    between atoms: C5_6  and  C6_7 
REMARK    4  A    between atoms: C7_8  and  N1_9 
REMARK    5  A    between atoms: C7_8  and  C8_10 
REMARK       I    between atoms: C8_10  and  N2_11 
REMARK    6  A    between atoms: C10_14  and  C11_15 
REMARK    7  A    between atoms: C11_15  and  S1_16 
REMARK    8  A    between atoms: S1_16  and  C12_17 
REMARK    9  A    between atoms: C18_24  and  O4_25 
ROOT
HETATM    1  C3  UNL     1      26.810   1.220  53.672  1.00  0.00     0.103 A 
HETATM    2  C4  UNL     1      25.763   0.411  54.057  1.00  0.00     0.051 A 
HETATM    3  C5  UNL     1      24.585   0.314  53.353  1.00  0.00    -0.030 A 
HETATM    4  C9  UNL     1      24.500   1.083  52.216  1.00  0.00     0.022 A 
HETATM    5  C10 UNL     1      25.488   1.929  51.736  1.00  0.00    -0.012 A 
HETATM    6  C18 UNL     1      26.656   1.975  52.503  1.00  0.00     0.106 A 
ENDROOT
BRANCH   3   7
HETATM    7  C6  UNL     1      23.518  -0.553  53.806  1.00  0.00     0.046 C 
HETATM    8  C7  UNL     1      22.243  -0.210  53.875  1.00  0.00     0.095 C 
BRANCH   8   9
HETATM    9  N1  UNL     1      21.826   1.093  53.491  1.00  0.00    -0.395 N 
HETATM   10  H8  UNL     1      21.589   1.743  52.710  1.00  0.00     0.156 HD
HETATM   11  H9  UNL     1      21.719   1.595  54.402  1.00  0.00     0.156 HD
ENDBRANCH   8   9
BRANCH   8  12
HETATM   12  C8  UNL     1      21.283  -1.196  54.354  1.00  0.00     0.265 C 
HETATM   13  N2  UNL     1      19.926  -1.072  53.962  1.00  0.00    -0.365 N 
HETATM   14  H10 UNL     1      18.927  -0.980  53.688  1.00  0.00     0.159 HD
HETATM   15  H11 UNL     1      18.959  -0.966  54.318  1.00  0.00     0.159 HD
HETATM   16  O2  UNL     1      21.627  -2.146  55.099  1.00  0.00    -0.266 OA
ENDBRANCH   8  12
ENDBRANCH   3   7
BRANCH   1  17
HETATM   17  O1  UNL     1      28.030   1.393  54.299  1.00  0.00    -0.349 OA
BRANCH  17  18
HETATM   18  C2  UNL     1      28.764   0.302  54.789  1.00  0.00     0.171 C 
HETATM   19  C1  UNL     1      29.565  -0.399  53.716  1.00  0.00     0.034 C 
ENDBRANCH  17  18
ENDBRANCH   1  17
BRANCH   5  20
HETATM   20  C11 UNL     1      25.339   2.730  50.505  1.00  0.00     0.116 C 
BRANCH  20  21
HETATM   21  S1  UNL     1      24.539   4.320  50.763  1.00  0.00    -0.152 SA
BRANCH  21  22
HETATM   22  C12 UNL     1      24.941   5.389  49.327  1.00  0.00     0.094 C 
HETATM   23  C13 UNL     1      26.320   5.131  48.910  1.00  0.00    -0.010 C 
HETATM   24  C14 UNL     1      27.406   5.824  48.602  1.00  0.00    -0.003 C 
HETATM   25  C15 UNL     1      27.587   7.281  48.579  1.00  0.00     0.201 C 
HETATM   26  O3  UNL     1      26.919   7.858  49.701  1.00  0.00    -0.360 OA
HETATM   27  C16 UNL     1      25.557   7.785  49.932  1.00  0.00     0.132 C 
HETATM   28  C17 UNL     1      24.711   6.778  49.787  1.00  0.00     0.016 C 
ENDBRANCH  21  22
ENDBRANCH  20  21
ENDBRANCH   5  20
BRANCH   6  29
HETATM   29  O4  UNL     1      27.666   2.826  52.034  1.00  0.00    -0.357 OA
HETATM   30  H22 UNL     1      28.206   2.468  51.239  1.00  0.00     0.217 HD
ENDBRANCH   6  29
TORSDOF 9
ENDMDL
MODEL 5
REMARK VINA RESULT:      -7.2      2.311      5.404
REMARK  9 active torsions:
REMARK  status: ('A' for Active; 'I' for Inactive)
REMARK    1  A    between atoms: C2_2  and  O1_3 
REMARK    2  A    between atoms: O1_3  and  C3_4 
REMARK    3  A    between atoms: C5_6  and  C6_7 
REMARK    4  A    between atoms: C7_8  and  N1_9 
REMARK    5  A    between atoms: C7_8  and  C8_10 
REMARK       I    between atoms: C8_10  and  N2_11 
REMARK    6  A    between atoms: C10_14  and  C11_15 
REMARK    7  A    between atoms: C11_15  and  S1_16 
REMARK    8  A    between atoms: S1_16  and  C12_17 
REMARK    9  A    between atoms: C18_24  and  O4_25 
ROOT
HETATM    1  C3  UNL     1      25.988   3.947  49.777  1.00  0.00     0.103 A 
HETATM    2  C4  UNL     1      26.748   3.029  50.469  1.00  0.00     0.051 A 
HETATM    3  C5  UNL     1      26.221   2.153  51.390  1.00  0.00    -0.030 A 
HETATM    4  C9  UNL     1      24.863   2.239  51.591  1.00  0.00     0.022 A 
HETATM    5  C10 UNL     1      24.005   3.120  50.952  1.00  0.00    -0.012 A 
HETATM    6  C18 UNL     1      24.612   3.979  50.031  1.00  0.00     0.106 A 
ENDROOT
BRANCH   3   7
HETATM    7  C6  UNL     1      27.068   1.211  52.088  1.00  0.00     0.046 C 
HETATM    8  C7  UNL     1      27.637   1.431  53.261  1.00  0.00     0.095 C 
BRANCH   8   9
HETATM    9  N1  UNL     1      27.440   2.665  53.937  1.00  0.00    -0.395 N 
HETATM   10  H8  UNL     1      26.968   3.171  54.717  1.00  0.00     0.156 HD
HETATM   11  H9  UNL     1      28.036   3.336  53.400  1.00  0.00     0.156 HD
ENDBRANCH   8   9
BRANCH   8  12
HETATM   12  C8  UNL     1      28.466   0.381  53.839  1.00  0.00     0.265 C 
HETATM   13  N2  UNL     1      29.873   0.456  53.674  1.00  0.00    -0.365 N 
HETATM   14  H10 UNL     1      30.904   0.499  53.548  1.00  0.00     0.159 HD
HETATM   15  H11 UNL     1      30.699  -0.045  53.300  1.00  0.00     0.159 HD
HETATM   16  O2  UNL     1      27.969  -0.580  54.475  1.00  0.00    -0.266 OA
ENDBRANCH   8  12
ENDBRANCH   3   7
BRANCH   1  17
HETATM   17  O1  UNL     1      26.410   4.868  48.836  1.00  0.00    -0.349 OA
BRANCH  17  18
HETATM   18  C2  UNL     1      27.772   5.063  48.560  1.00  0.00     0.171 C 
HETATM   19  C1  UNL     1      28.097   6.486  48.171  1.00  0.00     0.034 C 
ENDBRANCH  17  18
ENDBRANCH   1  17
BRANCH   5  20
HETATM   20  C11 UNL     1      22.552   3.164  51.211  1.00  0.00     0.116 C 
BRANCH  20  21
HETATM   21  S1  UNL     1      21.784   1.543  51.338  1.00  0.00    -0.152 SA
BRANCH  21  22
HETATM   22  C12 UNL     1      21.603   1.147  53.120  1.00  0.00     0.094 C 
HETATM   23  C13 UNL     1      22.697   0.265  53.527  1.00  0.00    -0.010 C 
HETATM   24  C14 UNL     1      22.859  -0.864  54.202  1.00  0.00    -0.003 C 
HETATM   25  C15 UNL     1      21.838  -1.701  54.845  1.00  0.00     0.201 C 
HETATM   26  O3  UNL     1      20.687  -1.774  54.003  1.00  0.00    -0.360 OA
HETATM   27  C16 UNL     1      19.913  -0.690  53.628  1.00  0.00     0.132 C 
HETATM   28  C17 UNL     1      20.262   0.531  53.257  1.00  0.00     0.016 C 
ENDBRANCH  21  22
ENDBRANCH  20  21
ENDBRANCH   5  20
BRANCH   6  29
HETATM   29  O4  UNL     1      23.759   4.878  49.375  1.00  0.00    -0.357 OA
HETATM   30  H22 UNL     1      23.161   5.443  49.988  1.00  0.00     0.217 HD
ENDBRANCH   6  29
TORSDOF 9
ENDMDL
MODEL 6
REMARK VINA RESULT:      -7.2      2.677      4.720
REMARK  9 active torsions:
REMARK  status: ('A' for Active; 'I' for Inactive)
REMARK    1  A    between atoms: C2_2  and  O1_3 
REMARK    2  A    between atoms: O1_3  and  C3_4 
REMARK    3  A    between atoms: C5_6  and  C6_7 
REMARK    4  A    between atoms: C7_8  and  N1_9 
REMARK    5  A    between atoms: C7_8  and  C8_10 
REMARK       I    between atoms: C8_10  and  N2_11 
REMARK    6  A    between atoms: C10_14  and  C11_15 
REMARK    7  A    between atoms: C11_15  and  S1_16 
REMARK    8  A    between atoms: S1_16  and  C12_17 
REMARK    9  A    between atoms: C18_24  and  O4_25 
ROOT
HETATM    1  C3  UNL     1      26.859   1.224  53.745  1.00  0.00     0.103 A 
HETATM    2  C4  UNL     1      25.804   0.421  54.119  1.00  0.00     0.051 A 
HETATM    3  C5  UNL     1      24.636   0.325  53.399  1.00  0.00    -0.030 A 
HETATM    4  C9  UNL     1      24.570   1.089  52.257  1.00  0.00     0.022 A 
HETATM    5  C10 UNL     1      25.569   1.929  51.787  1.00  0.00    -0.012 A 
HETATM    6  C18 UNL     1      26.726   1.974  52.571  1.00  0.00     0.106 A 
ENDROOT
BRANCH   3   7
HETATM    7  C6  UNL     1      23.559  -0.534  53.841  1.00  0.00     0.046 C 
HETATM    8  C7  UNL     1      22.281  -0.195  53.864  1.00  0.00     0.095 C 
BRANCH   8   9
HETATM    9  N1  UNL     1      21.872   1.096  53.436  1.00  0.00    -0.395 N 
HETATM   10  H8  UNL     1      22.149   2.081  53.231  1.00  0.00     0.156 HD
HETATM   11  H9  UNL     1      20.848   0.981  53.255  1.00  0.00     0.156 HD
ENDBRANCH   8   9
BRANCH   8  12
HETATM   12  C8  UNL     1      21.312  -1.174  54.338  1.00  0.00     0.265 C 
HETATM   13  N2  UNL     1      19.957  -1.039  53.939  1.00  0.00    -0.365 N 
HETATM   14  H10 UNL     1      18.961  -0.940  53.659  1.00  0.00     0.159 HD
HETATM   15  H11 UNL     1      18.989  -0.926  54.290  1.00  0.00     0.159 HD
HETATM   16  O2  UNL     1      21.644  -2.127  55.085  1.00  0.00    -0.266 OA
ENDBRANCH   8  12
ENDBRANCH   3   7
BRANCH   1  17
HETATM   17  O1  UNL     1      28.072   1.396  54.389  1.00  0.00    -0.349 OA
BRANCH  17  18
HETATM   18  C2  UNL     1      28.857   0.300  54.776  1.00  0.00     0.171 C 
HETATM   19  C1  UNL     1      29.582  -0.345  53.618  1.00  0.00     0.034 C 
ENDBRANCH  17  18
ENDBRANCH   1  17
BRANCH   5  20
HETATM   20  C11 UNL     1      25.440   2.724  50.550  1.00  0.00     0.116 C 
BRANCH  20  21
HETATM   21  S1  UNL     1      24.525   4.258  50.761  1.00  0.00    -0.152 SA
BRANCH  21  22
HETATM   22  C12 UNL     1      22.923   4.080  49.886  1.00  0.00     0.094 C 
HETATM   23  C13 UNL     1      21.833   4.318  50.832  1.00  0.00    -0.010 C 
HETATM   24  C14 UNL     1      20.690   3.750  51.189  1.00  0.00    -0.003 C 
HETATM   25  C15 UNL     1      20.074   2.524  50.663  1.00  0.00     0.201 C 
HETATM   26  O3  UNL     1      21.087   1.540  50.452  1.00  0.00    -0.360 OA
HETATM   27  C16 UNL     1      22.148   1.674  49.575  1.00  0.00     0.132 C 
HETATM   28  C17 UNL     1      22.928   2.712  49.318  1.00  0.00     0.016 C 
ENDBRANCH  21  22
ENDBRANCH  20  21
ENDBRANCH   5  20
BRANCH   6  29
HETATM   29  O4  UNL     1      27.746   2.818  52.111  1.00  0.00    -0.357 OA
HETATM   30  H22 UNL     1      27.990   3.593  52.738  1.00  0.00     0.217 HD
ENDBRANCH   6  29
TORSDOF 9
ENDMDL
MODEL 7
REMARK VINA RESULT:      -7.2      2.514      4.746
REMARK  9 active torsions:
REMARK  status: ('A' for Active; 'I' for Inactive)
REMARK    1  A    between atoms: C2_2  and  O1_3 
REMARK    2  A    between atoms: O1_3  and  C3_4 
REMARK    3  A    between atoms: C5_6  and  C6_7 
REMARK    4  A    between atoms: C7_8  and  N1_9 
REMARK    5  A    between atoms: C7_8  and  C8_10 
REMARK       I    between atoms: C8_10  and  N2_11 
REMARK    6  A    between atoms: C10_14  and  C11_15 
REMARK    7  A    between atoms: C11_15  and  S1_16 
REMARK    8  A    between atoms: S1_16  and  C12_17 
REMARK    9  A    between atoms: C18_24  and  O4_25 
ROOT
HETATM    1  C3  UNL     1      25.412   2.576  51.593  1.00  0.00     0.103 A 
HETATM    2  C4  UNL     1      26.347   1.570  51.700  1.00  0.00     0.051 A 
HETATM    3  C5  UNL     1      26.103   0.378  52.343  1.00  0.00    -0.030 A 
HETATM    4  C9  UNL     1      24.849   0.235  52.888  1.00  0.00     0.022 A 
HETATM    5  C10 UNL     1      23.834   1.178  52.840  1.00  0.00    -0.012 A 
HETATM    6  C18 UNL     1      24.154   2.363  52.171  1.00  0.00     0.106 A 
ENDROOT
BRANCH   3   7
HETATM    7  C6  UNL     1      27.125  -0.644  52.425  1.00  0.00     0.046 C 
HETATM    8  C7  UNL     1      27.926  -0.830  53.460  1.00  0.00     0.095 C 
BRANCH   8   9
HETATM    9  N1  UNL     1      27.826   0.002  54.607  1.00  0.00    -0.395 N 
HETATM   10  H8  UNL     1      28.118   0.886  55.076  1.00  0.00     0.156 HD
HETATM   11  H9  UNL     1      27.172  -0.522  55.234  1.00  0.00     0.156 HD
ENDBRANCH   8   9
BRANCH   8  12
HETATM   12  C8  UNL     1      28.908  -1.904  53.393  1.00  0.00     0.265 C 
HETATM   13  N2  UNL     1      28.471  -3.208  53.044  1.00  0.00    -0.365 N 
HETATM   14  H10 UNL     1      28.155  -4.167  52.800  1.00  0.00     0.159 HD
HETATM   15  H11 UNL     1      28.429  -4.191  53.367  1.00  0.00     0.159 HD
HETATM   16  O2  UNL     1      30.124  -1.705  53.635  1.00  0.00    -0.266 OA
ENDBRANCH   8  12
ENDBRANCH   3   7
BRANCH   1  17
HETATM   17  O1  UNL     1      25.547   3.805  50.974  1.00  0.00    -0.349 OA
BRANCH  17  18
HETATM   18  C2  UNL     1      25.575   3.923  49.576  1.00  0.00     0.171 C 
HETATM   19  C1  UNL     1      24.272   4.427  49.001  1.00  0.00     0.034 C 
ENDBRANCH  17  18
ENDBRANCH   1  17
BRANCH   5  20
HETATM   20  C11 UNL     1      22.504   0.966  53.444  1.00  0.00     0.116 C 
BRANCH  20  21
HETATM   21  S1  UNL     1      21.591  -0.410  52.733  1.00  0.00    -0.152 SA
BRANCH  21  22
HETATM   22  C12 UNL     1      20.528   0.254  51.393  1.00  0.00     0.094 C 
HETATM   23  C13 UNL     1      21.372   0.654  50.267  1.00  0.00    -0.010 C 
HETATM   24  C14 UNL     1      21.517   1.694  49.459  1.00  0.00    -0.003 C 
HETATM   25  C15 UNL     1      20.760   2.952  49.442  1.00  0.00     0.201 C 
HETATM   26  O3  UNL     1      20.525   3.381  50.783  1.00  0.00    -0.360 OA
HETATM   27  C16 UNL     1      19.799   2.672  51.723  1.00  0.00     0.132 C 
HETATM   28  C17 UNL     1      19.777   1.378  52.000  1.00  0.00     0.016 C 
ENDBRANCH  21  22
ENDBRANCH  20  21
ENDBRANCH   5  20
BRANCH   6  29
HETATM   29  O4  UNL     1      23.140   3.329  52.112  1.00  0.00    -0.357 OA
HETATM   30  H22 UNL     1      22.408   3.156  51.415  1.00  0.00     0.217 HD
ENDBRANCH   6  29
TORSDOF 9
ENDMDL
MODEL 8
REMARK VINA RESULT:      -7.0      2.490      5.137
REMARK  9 active torsions:
REMARK  status: ('A' for Active; 'I' for Inactive)
REMARK    1  A    between atoms: C2_2  and  O1_3 
REMARK    2  A    between atoms: O1_3  and  C3_4 
REMARK    3  A    between atoms: C5_6  and  C6_7 
REMARK    4  A    between atoms: C7_8  and  N1_9 
REMARK    5  A    between atoms: C7_8  and  C8_10 
REMARK       I    between atoms: C8_10  and  N2_11 
REMARK    6  A    between atoms: C10_14  and  C11_15 
REMARK    7  A    between atoms: C11_15  and  S1_16 
REMARK    8  A    between atoms: S1_16  and  C12_17 
REMARK    9  A    between atoms: C18_24  and  O4_25 
ROOT
HETATM    1  C3  UNL     1      25.664   3.327  49.946  1.00  0.00     0.103 A 
HETATM    2  C4  UNL     1      26.551   2.572  50.681  1.00  0.00     0.051 A 
HETATM    3  C5  UNL     1      26.157   1.647  51.621  1.00  0.00    -0.030 A 
HETATM    4  C9  UNL     1      24.800   1.510  51.796  1.00  0.00     0.022 A 
HETATM    5  C10 UNL     1      23.821   2.215  51.113  1.00  0.00    -0.012 A 
HETATM    6  C18 UNL     1      24.296   3.136  50.174  1.00  0.00     0.106 A 
ENDROOT
BRANCH   3   7
HETATM    7  C6  UNL     1      27.135   0.883  52.365  1.00  0.00     0.046 C 
HETATM    8  C7  UNL     1      27.778   1.316  53.436  1.00  0.00     0.095 C 
BRANCH   8   9
HETATM    9  N1  UNL     1      27.536   2.621  53.942  1.00  0.00    -0.395 N 
HETATM   10  H8  UNL     1      26.880   3.429  54.003  1.00  0.00     0.156 HD
HETATM   11  H9  UNL     1      28.405   2.840  54.481  1.00  0.00     0.156 HD
ENDBRANCH   8   9
BRANCH   8  12
HETATM   12  C8  UNL     1      28.736   0.426  54.078  1.00  0.00     0.265 C 
HETATM   13  N2  UNL     1      30.035   0.305  53.521  1.00  0.00    -0.365 N 
HETATM   14  H10 UNL     1      30.985   0.204  53.111  1.00  0.00     0.159 HD
HETATM   15  H11 UNL     1      30.716  -0.366  53.123  1.00  0.00     0.159 HD
HETATM   16  O2  UNL     1      28.442  -0.232  55.106  1.00  0.00    -0.266 OA
ENDBRANCH   8  12
ENDBRANCH   3   7
BRANCH   1  17
HETATM   17  O1  UNL     1      25.947   4.278  48.982  1.00  0.00    -0.349 OA
BRANCH  17  18
HETATM   18  C2  UNL     1      27.245   4.783  48.809  1.00  0.00     0.171 C 
HETATM   19  C1  UNL     1      27.275   6.283  48.633  1.00  0.00     0.034 C 
ENDBRANCH  17  18
ENDBRANCH   1  17
BRANCH   5  20
HETATM   20  C11 UNL     1      22.376   2.021  51.344  1.00  0.00     0.116 C 
BRANCH  20  21
HETATM   21  S1  UNL     1      21.990   0.646  52.435  1.00  0.00    -0.152 SA
BRANCH  21  22
HETATM   22  C12 UNL     1      20.245   0.828  52.972  1.00  0.00     0.094 C 
HETATM   23  C13 UNL     1      19.772  -0.451  53.501  1.00  0.00    -0.010 C 
HETATM   24  C14 UNL     1      18.720  -1.247  53.372  1.00  0.00    -0.003 C 
HETATM   25  C15 UNL     1      17.528  -1.060  52.534  1.00  0.00     0.201 C 
HETATM   26  O3  UNL     1      17.918  -0.525  51.269  1.00  0.00    -0.360 OA
HETATM   27  C16 UNL     1      18.539   0.698  51.086  1.00  0.00     0.132 C 
HETATM   28  C17 UNL     1      19.504   1.286  51.774  1.00  0.00     0.016 C 
ENDBRANCH  21  22
ENDBRANCH  20  21
ENDBRANCH   5  20
BRANCH   6  29
HETATM   29  O4  UNL     1      23.320   3.858  49.474  1.00  0.00    -0.357 OA
HETATM   30  H22 UNL     1      23.664   4.679  48.965  1.00  0.00     0.217 HD
ENDBRANCH   6  29
TORSDOF 9
ENDMDL
MODEL 9
REMARK VINA RESULT:      -6.8      3.393      7.246
REMARK  9 active torsions:
REMARK  status: ('A' for Active; 'I' for Inactive)
REMARK    1  A    between atoms: C2_2  and  O1_3 
REMARK    2  A    between atoms: O1_3  and  C3_4 
REMARK    3  A    between atoms: C5_6  and  C6_7 
REMARK    4  A    between atoms: C7_8  and  N1_9 
REMARK    5  A    between atoms: C7_8  and  C8_10 
REMARK       I    between atoms: C8_10  and  N2_11 
REMARK    6  A    between atoms: C10_14  and  C11_15 
REMARK    7  A    between atoms: C11_15  and  S1_16 
REMARK    8  A    between atoms: S1_16  and  C12_17 
REMARK    9  A    between atoms: C18_24  and  O4_25 
ROOT
HETATM    1  C3  UNL     1      23.575   1.901  51.206  1.00  0.00     0.103 A 
HETATM    2  C4  UNL     1      24.618   1.261  51.841  1.00  0.00     0.051 A 
HETATM    3  C5  UNL     1      25.937   1.617  51.672  1.00  0.00    -0.030 A 
HETATM    4  C9  UNL     1      26.170   2.669  50.818  1.00  0.00     0.022 A 
HETATM    5  C10 UNL     1      25.200   3.382  50.129  1.00  0.00    -0.012 A 
HETATM    6  C18 UNL     1      23.885   2.964  50.350  1.00  0.00     0.106 A 
ENDROOT
BRANCH   3   7
HETATM    7  C6  UNL     1      26.991   0.909  52.365  1.00  0.00     0.046 C 
HETATM    8  C7  UNL     1      27.630   1.357  53.432  1.00  0.00     0.095 C 
BRANCH   8   9
HETATM    9  N1  UNL     1      27.302   2.623  53.987  1.00  0.00    -0.395 N 
HETATM   10  H8  UNL     1      26.583   3.213  54.460  1.00  0.00     0.156 HD
HETATM   11  H9  UNL     1      28.174   3.184  53.850  1.00  0.00     0.156 HD
ENDBRANCH   8   9
BRANCH   8  12
HETATM   12  C8  UNL     1      28.672   0.525  54.018  1.00  0.00     0.265 C 
HETATM   13  N2  UNL     1      30.005   0.675  53.558  1.00  0.00    -0.365 N 
HETATM   14  H10 UNL     1      30.982   0.773  53.217  1.00  0.00     0.159 HD
HETATM   15  H11 UNL     1      30.802   0.175  53.126  1.00  0.00     0.159 HD
HETATM   16  O2  UNL     1      28.420  -0.316  54.916  1.00  0.00    -0.266 OA
ENDBRANCH   8  12
ENDBRANCH   3   7
BRANCH   1  17
HETATM   17  O1  UNL     1      22.222   1.629  51.302  1.00  0.00    -0.349 OA
BRANCH  17  18
HETATM   18  C2  UNL     1      21.505   1.886  52.480  1.00  0.00     0.171 C 
HETATM   19  C1  UNL     1      20.682   3.151  52.405  1.00  0.00     0.034 C 
ENDBRANCH  17  18
ENDBRANCH   1  17
BRANCH   5  20
HETATM   20  C11 UNL     1      25.514   4.506  49.225  1.00  0.00     0.116 C 
BRANCH  20  21
HETATM   21  S1  UNL     1      27.274   4.777  48.980  1.00  0.00    -0.152 SA
BRANCH  21  22
HETATM   22  C12 UNL     1      27.483   6.402  48.156  1.00  0.00     0.094 C 
HETATM   23  C13 UNL     1      28.896   6.780  48.195  1.00  0.00    -0.010 C 
HETATM   24  C14 UNL     1      29.629   7.839  48.505  1.00  0.00    -0.003 C 
HETATM   25  C15 UNL     1      29.181   9.158  48.973  1.00  0.00     0.201 C 
HETATM   26  O3  UNL     1      28.112   8.990  49.904  1.00  0.00    -0.360 OA
HETATM   27  C16 UNL     1      26.891   8.408  49.609  1.00  0.00     0.132 C 
HETATM   28  C17 UNL     1      26.599   7.338  48.888  1.00  0.00     0.016 C 
ENDBRANCH  21  22
ENDBRANCH  20  21
ENDBRANCH   5  20
BRANCH   6  29
HETATM   29  O4  UNL     1      22.891   3.674  49.662  1.00  0.00    -0.357 OA
HETATM   30  H22 UNL     1      23.163   4.025  48.738  1.00  0.00     0.217 HD
ENDBRANCH   6  29
TORSDOF 9
ENDMDL
