MODEL 1
REMARK VINA RESULT:      -8.6      0.000      0.000
REMARK  6 active torsions:
REMARK  status: ('A' for Active; 'I' for Inactive)
REMARK    1  A    between atoms: C3_3  and  C4_4 
REMARK       I    between atoms: C4_4  and  N1_6 
REMARK    2  A    between atoms: N1_6  and  C5_7 
REMARK    3  A    between atoms: C10_13  and  C11_14 
REMARK    4  A    between atoms: C11_14  and  N3_15 
REMARK    5  A    between atoms: C12_16  and  N4_17 
REMARK    6  A    between atoms: N4_17  and  C13_18 
ROOT
HETATM    1  C5  UNL     1      24.573   3.518  50.141  1.00  0.00     0.035 A 
HETATM    2  C6  UNL     1      23.467   3.325  49.313  1.00  0.00     0.032 A 
HETATM    3  C7  UNL     1      22.521   2.349  49.628  1.00  0.00     0.035 A 
HETATM    4  C8  UNL     1      22.734   1.605  50.772  1.00  0.00     0.069 A 
HETATM    5  N2  UNL     1      21.866   0.647  51.138  1.00  0.00    -0.260 NA
HETATM    6  C9  UNL     1      21.995  -0.121  52.234  1.00  0.00     0.128 A 
HETATM    7  C10 UNL     1      23.104   0.073  53.063  1.00  0.00     0.015 A 
HETATM    8  C12 UNL     1      24.038   1.039  52.751  1.00  0.00     0.054 A 
HETATM    9  C19 UNL     1      23.836   1.791  51.604  1.00  0.00     0.022 A 
HETATM   10  C20 UNL     1      24.765   2.764  51.279  1.00  0.00     0.045 A 
ENDROOT
BRANCH   8  11
HETATM   11  N4  UNL     1      25.176   1.301  53.523  1.00  0.00    -0.355 N 
HETATM   12  H14 UNL     1      24.675   1.839  54.269  1.00  0.00     0.166 HD
BRANCH  11  13
HETATM   13  C13 UNL     1      26.569   1.070  53.549  1.00  0.00     0.033 A 
HETATM   14  C14 UNL     1      27.401   2.154  53.738  1.00  0.00     0.029 A 
HETATM   15  C15 UNL     1      28.738   1.865  53.757  1.00  0.00     0.004 A 
HETATM   16  C16 UNL     1      29.250   0.586  53.601  1.00  0.00     0.019 A 
HETATM   17  C17 UNL     1      28.365  -0.459  53.416  1.00  0.00     0.013 A 
HETATM   18 BR1  UNL     1      29.149  -2.184  53.211  1.00  0.00    -0.051 Br
HETATM   19  C18 UNL     1      26.993  -0.218  53.388  1.00  0.00     0.048 A 
ENDBRANCH  11  13
ENDBRANCH   8  11
BRANCH   7  20
HETATM   20  C11 UNL     1      23.263  -0.765  54.280  1.00  0.00     0.309 C 
BRANCH  20  21
HETATM   21  N3  UNL     1      22.019  -0.844  54.971  1.00  0.00     0.082 N 
HETATM   22  H12 UNL     1      21.479  -1.707  54.799  1.00  0.00     0.313 HD
HETATM   23  H13 UNL     1      21.448   0.032  54.890  1.00  0.00     0.313 HD
ENDBRANCH  20  21
ENDBRANCH   7  20
BRANCH   1  24
HETATM   24  N1  UNL     1      25.420   4.556  49.656  1.00  0.00    -0.324 N 
HETATM   25  C4  UNL     1      26.685   4.068  49.228  1.00  0.00     0.245 C 
HETATM   26  O1  UNL     1      27.026   2.861  49.273  1.00  0.00    -0.268 OA
HETATM   27  H6  UNL     1      25.145   5.563  49.617  1.00  0.00     0.169 HD
BRANCH  25  28
HETATM   28  C3  UNL     1      27.684   4.987  48.698  1.00  0.00     0.070 C 
HETATM   29  C2  UNL     1      27.561   6.219  48.233  1.00  0.00    -0.026 C 
HETATM   30  C1  UNL     1      28.509   7.218  47.681  1.00  0.00     0.036 C 
ENDBRANCH  25  28
ENDBRANCH   1  24
TORSDOF 6
ENDMDL
MODEL 2
REMARK VINA RESULT:      -8.6      3.029      6.943
REMARK  6 active torsions:
REMARK  status: ('A' for Active; 'I' for Inactive)
REMARK    1  A    between atoms: C3_3  and  C4_4 
REMARK       I    between atoms: C4_4  and  N1_6 
REMARK    2  A    between atoms: N1_6  and  C5_7 
REMARK    3  A    between atoms: C10_13  and  C11_14 
REMARK    4  A    between atoms: C11_14  and  N3_15 
REMARK    5  A    between atoms: C12_16  and  N4_17 
REMARK    6  A    between atoms: N4_17  and  C13_18 
ROOT
HETATM    1  C5  UNL     1      22.446  -0.732  53.344  1.00  0.00     0.035 A 
HETATM    2  C6  UNL     1      22.489  -1.344  54.599  1.00  0.00     0.032 A 
HETATM    3  C7  UNL     1      23.659  -1.302  55.356  1.00  0.00     0.035 A 
HETATM    4  C8  UNL     1      24.743  -0.641  54.814  1.00  0.00     0.069 A 
HETATM    5  N2  UNL     1      25.903  -0.560  55.486  1.00  0.00    -0.260 NA
HETATM    6  C9  UNL     1      27.005   0.064  55.033  1.00  0.00     0.128 A 
HETATM    7  C10 UNL     1      26.961   0.677  53.777  1.00  0.00     0.015 A 
HETATM    8  C12 UNL     1      25.803   0.635  53.029  1.00  0.00     0.054 A 
HETATM    9  C19 UNL     1      24.709  -0.028  53.563  1.00  0.00     0.022 A 
HETATM   10  C20 UNL     1      23.540  -0.077  52.823  1.00  0.00     0.045 A 
ENDROOT
BRANCH   8  11
HETATM   11  N4  UNL     1      25.672   1.220  51.764  1.00  0.00    -0.355 N 
HETATM   12  H14 UNL     1      25.757   0.325  51.225  1.00  0.00     0.166 HD
BRANCH  11  13
HETATM   13  C13 UNL     1      25.489   2.475  51.143  1.00  0.00     0.033 A 
HETATM   14  C14 UNL     1      24.300   3.139  51.363  1.00  0.00     0.029 A 
HETATM   15  C15 UNL     1      24.185   4.351  50.738  1.00  0.00     0.004 A 
HETATM   16  C16 UNL     1      25.174   4.897  49.934  1.00  0.00     0.019 A 
HETATM   17  C17 UNL     1      26.343   4.183  49.752  1.00  0.00     0.013 A 
HETATM   18 BR1  UNL     1      27.651   5.004  48.635  1.00  0.00    -0.051 Br
HETATM   19  C18 UNL     1      26.510   2.944  50.367  1.00  0.00     0.048 A 
ENDBRANCH  11  13
ENDBRANCH   8  11
BRANCH   7  20
HETATM   20  C11 UNL     1      28.169   1.374  53.261  1.00  0.00     0.309 C 
BRANCH  20  21
HETATM   21  N3  UNL     1      28.243   2.680  53.825  1.00  0.00     0.082 N 
HETATM   22  H12 UNL     1      27.633   3.383  53.379  1.00  0.00     0.313 HD
HETATM   23  H13 UNL     1      29.228   3.010  53.969  1.00  0.00     0.313 HD
ENDBRANCH  20  21
ENDBRANCH   7  20
BRANCH   1  24
HETATM   24  N1  UNL     1      21.170  -0.882  52.728  1.00  0.00    -0.324 N 
HETATM   25  C4  UNL     1      20.380   0.296  52.823  1.00  0.00     0.245 C 
HETATM   26  O1  UNL     1      20.756   1.352  53.386  1.00  0.00    -0.268 OA
HETATM   27  H6  UNL     1      20.849  -1.759  52.259  1.00  0.00     0.169 HD
BRANCH  25  28
HETATM   28  C3  UNL     1      19.042   0.329  52.247  1.00  0.00     0.070 C 
HETATM   29  C2  UNL     1      18.098  -0.596  52.207  1.00  0.00    -0.026 C 
HETATM   30  C1  UNL     1      16.723  -0.652  51.650  1.00  0.00     0.036 C 
ENDBRANCH  25  28
ENDBRANCH   1  24
TORSDOF 6
ENDMDL
MODEL 3
REMARK VINA RESULT:      -8.3      3.006      6.075
REMARK  6 active torsions:
REMARK  status: ('A' for Active; 'I' for Inactive)
REMARK    1  A    between atoms: C3_3  and  C4_4 
REMARK       I    between atoms: C4_4  and  N1_6 
REMARK    2  A    between atoms: N1_6  and  C5_7 
REMARK    3  A    between atoms: C10_13  and  C11_14 
REMARK    4  A    between atoms: C11_14  and  N3_15 
REMARK    5  A    between atoms: C12_16  and  N4_17 
REMARK    6  A    between atoms: N4_17  and  C13_18 
ROOT
HETATM    1  C5  UNL     1      24.289   0.769  53.303  1.00  0.00     0.035 A 
HETATM    2  C6  UNL     1      23.090   0.085  53.517  1.00  0.00     0.032 A 
HETATM    3  C7  UNL     1      21.882   0.652  53.114  1.00  0.00     0.035 A 
HETATM    4  C8  UNL     1      21.933   1.892  52.508  1.00  0.00     0.069 A 
HETATM    5  N2  UNL     1      20.809   2.499  52.093  1.00  0.00    -0.260 NA
HETATM    6  C9  UNL     1      20.768   3.703  51.495  1.00  0.00     0.128 A 
HETATM    7  C10 UNL     1      21.968   4.387  51.281  1.00  0.00     0.015 A 
HETATM    8  C12 UNL     1      23.163   3.826  51.681  1.00  0.00     0.054 A 
HETATM    9  C19 UNL     1      23.124   2.582  52.291  1.00  0.00     0.022 A 
HETATM   10  C20 UNL     1      24.316   2.006  52.696  1.00  0.00     0.045 A 
ENDROOT
BRANCH   8  11
HETATM   11  N4  UNL     1      24.409   4.439  51.506  1.00  0.00    -0.355 N 
HETATM   12  H14 UNL     1      24.529   4.721  52.509  1.00  0.00     0.166 HD
BRANCH  11  13
HETATM   13  C13 UNL     1      25.368   4.725  50.510  1.00  0.00     0.033 A 
HETATM   14  C14 UNL     1      26.189   3.699  50.088  1.00  0.00     0.029 A 
HETATM   15  C15 UNL     1      27.093   4.038  49.119  1.00  0.00     0.004 A 
HETATM   16  C16 UNL     1      27.201   5.312  48.581  1.00  0.00     0.019 A 
HETATM   17  C17 UNL     1      26.350   6.297  49.045  1.00  0.00     0.013 A 
HETATM   18 BR1  UNL     1      26.563   8.017  48.253  1.00  0.00    -0.051 Br
HETATM   19  C18 UNL     1      25.411   6.004  50.031  1.00  0.00     0.048 A 
ENDBRANCH  11  13
ENDBRANCH   8  11
BRANCH   7  20
HETATM   20  C11 UNL     1      21.944   5.718  50.620  1.00  0.00     0.309 C 
BRANCH  20  21
HETATM   21  N3  UNL     1      21.953   6.742  51.610  1.00  0.00     0.082 N 
HETATM   22  H12 UNL     1      22.877   7.166  51.791  1.00  0.00     0.313 HD
HETATM   23  H13 UNL     1      21.435   6.476  52.483  1.00  0.00     0.313 HD
ENDBRANCH  20  21
ENDBRANCH   7  20
BRANCH   1  24
HETATM   24  N1  UNL     1      25.410   0.030  53.781  1.00  0.00    -0.324 N 
HETATM   25  C4  UNL     1      26.414  -0.133  52.789  1.00  0.00     0.245 C 
HETATM   26  O1  UNL     1      26.330   0.318  51.621  1.00  0.00    -0.268 OA
HETATM   27  H6  UNL     1      25.487  -0.350  54.751  1.00  0.00     0.169 HD
BRANCH  25  28
HETATM   28  C3  UNL     1      27.637  -0.863  53.098  1.00  0.00     0.070 C 
HETATM   29  C2  UNL     1      28.829  -0.428  53.470  1.00  0.00    -0.026 C 
HETATM   30  C1  UNL     1      30.116  -1.088  53.802  1.00  0.00     0.036 C 
ENDBRANCH  25  28
ENDBRANCH   1  24
TORSDOF 6
ENDMDL
MODEL 4
REMARK VINA RESULT:      -8.0      3.048      6.113
REMARK  6 active torsions:
REMARK  status: ('A' for Active; 'I' for Inactive)
REMARK    1  A    between atoms: C3_3  and  C4_4 
REMARK       I    between atoms: C4_4  and  N1_6 
REMARK    2  A    between atoms: N1_6  and  C5_7 
REMARK    3  A    between atoms: C10_13  and  C11_14 
REMARK    4  A    between atoms: C11_14  and  N3_15 
REMARK    5  A    between atoms: C12_16  and  N4_17 
REMARK    6  A    between atoms: N4_17  and  C13_18 
ROOT
HETATM    1  C5  UNL     1      24.469  -0.301  53.625  1.00  0.00     0.035 A 
HETATM    2  C6  UNL     1      23.626  -0.796  54.622  1.00  0.00     0.032 A 
HETATM    3  C7  UNL     1      22.279  -0.435  54.641  1.00  0.00     0.035 A 
HETATM    4  C8  UNL     1      21.836   0.416  53.647  1.00  0.00     0.069 A 
HETATM    5  N2  UNL     1      20.552   0.807  53.602  1.00  0.00    -0.260 NA
HETATM    6  C9  UNL     1      20.037   1.630  52.671  1.00  0.00     0.128 A 
HETATM    7  C10 UNL     1      20.881   2.125  51.673  1.00  0.00     0.015 A 
HETATM    8  C12 UNL     1      22.214   1.768  51.655  1.00  0.00     0.054 A 
HETATM    9  C19 UNL     1      22.670   0.915  52.649  1.00  0.00     0.022 A 
HETATM   10  C20 UNL     1      24.004   0.547  52.643  1.00  0.00     0.045 A 
ENDROOT
BRANCH   8  11
HETATM   11  N4  UNL     1      23.128   2.216  50.695  1.00  0.00    -0.355 N 
HETATM   12  H14 UNL     1      23.047   1.377  50.073  1.00  0.00     0.166 HD
BRANCH  11  13
HETATM   13  C13 UNL     1      23.977   3.306  50.404  1.00  0.00     0.033 A 
HETATM   14  C14 UNL     1      25.186   3.041  49.796  1.00  0.00     0.029 A 
HETATM   15  C15 UNL     1      25.961   4.138  49.536  1.00  0.00     0.004 A 
HETATM   16  C16 UNL     1      25.584   5.436  49.850  1.00  0.00     0.019 A 
HETATM   17  C17 UNL     1      24.360   5.637  50.458  1.00  0.00     0.013 A 
HETATM   18 BR1  UNL     1      23.918   7.448  50.855  1.00  0.00    -0.051 Br
HETATM   19  C18 UNL     1      23.534   4.553  50.744  1.00  0.00     0.048 A 
ENDBRANCH  11  13
ENDBRANCH   8  11
BRANCH   7  20
HETATM   20  C11 UNL     1      20.331   3.035  50.634  1.00  0.00     0.309 C 
BRANCH  20  21
HETATM   21  N3  UNL     1      19.952   4.270  51.235  1.00  0.00     0.082 N 
HETATM   22  H12 UNL     1      18.942   4.376  51.416  1.00  0.00     0.313 HD
HETATM   23  H13 UNL     1      20.384   5.104  50.768  1.00  0.00     0.313 HD
ENDBRANCH  20  21
ENDBRANCH   7  20
BRANCH   1  24
HETATM   24  N1  UNL     1      25.801  -0.782  53.774  1.00  0.00    -0.324 N 
HETATM   25  C4  UNL     1      26.677   0.204  54.306  1.00  0.00     0.245 C 
HETATM   26  O1  UNL     1      26.324   1.368  54.610  1.00  0.00    -0.268 OA
HETATM   27  H6  UNL     1      26.103  -1.750  53.522  1.00  0.00     0.169 HD
BRANCH  25  28
HETATM   28  C3  UNL     1      28.083  -0.110  54.529  1.00  0.00     0.070 C 
HETATM   29  C2  UNL     1      28.980  -0.659  53.729  1.00  0.00    -0.026 C 
HETATM   30  C1  UNL     1      30.415  -1.012  53.868  1.00  0.00     0.036 C 
ENDBRANCH  25  28
ENDBRANCH   1  24
TORSDOF 6
ENDMDL
MODEL 5
REMARK VINA RESULT:      -8.0      3.311      5.520
REMARK  6 active torsions:
REMARK  status: ('A' for Active; 'I' for Inactive)
REMARK    1  A    between atoms: C3_3  and  C4_4 
REMARK       I    between atoms: C4_4  and  N1_6 
REMARK    2  A    between atoms: N1_6  and  C5_7 
REMARK    3  A    between atoms: C10_13  and  C11_14 
REMARK    4  A    between atoms: C11_14  and  N3_15 
REMARK    5  A    between atoms: C12_16  and  N4_17 
REMARK    6  A    between atoms: N4_17  and  C13_18 
ROOT
HETATM    1  C5  UNL     1      25.984   2.526  51.553  1.00  0.00     0.035 A 
HETATM    2  C6  UNL     1      26.803   1.430  51.830  1.00  0.00     0.032 A 
HETATM    3  C7  UNL     1      26.263   0.286  52.418  1.00  0.00     0.035 A 
HETATM    4  C8  UNL     1      24.912   0.296  52.703  1.00  0.00     0.069 A 
HETATM    5  N2  UNL     1      24.323  -0.770  53.270  1.00  0.00    -0.260 NA
HETATM    6  C9  UNL     1      23.016  -0.845  53.580  1.00  0.00     0.128 A 
HETATM    7  C10 UNL     1      22.197   0.253  53.302  1.00  0.00     0.015 A 
HETATM    8  C12 UNL     1      22.732   1.384  52.721  1.00  0.00     0.054 A 
HETATM    9  C19 UNL     1      24.087   1.385  52.431  1.00  0.00     0.022 A 
HETATM   10  C20 UNL     1      24.637   2.513  51.847  1.00  0.00     0.045 A 
ENDROOT
BRANCH   8  11
HETATM   11  N4  UNL     1      21.986   2.527  52.409  1.00  0.00    -0.355 N 
HETATM   12  H14 UNL     1      22.344   3.106  53.204  1.00  0.00     0.166 HD
BRANCH  11  13
HETATM   13  C13 UNL     1      21.046   3.009  51.471  1.00  0.00     0.033 A 
HETATM   14  C14 UNL     1      21.477   3.232  50.179  1.00  0.00     0.029 A 
HETATM   15  C15 UNL     1      20.520   3.695  49.318  1.00  0.00     0.004 A 
HETATM   16  C16 UNL     1      19.204   3.932  49.687  1.00  0.00     0.019 A 
HETATM   17  C17 UNL     1      18.834   3.688  50.996  1.00  0.00     0.013 A 
HETATM   18 BR1  UNL     1      17.009   4.037  51.420  1.00  0.00    -0.051 Br
HETATM   19  C18 UNL     1      19.771   3.216  51.913  1.00  0.00     0.048 A 
ENDBRANCH  11  13
ENDBRANCH   8  11
BRANCH   7  20
HETATM   20  C11 UNL     1      20.749   0.188  53.635  1.00  0.00     0.309 C 
BRANCH  20  21
HETATM   21  N3  UNL     1      20.584   0.251  55.049  1.00  0.00     0.082 N 
HETATM   22  H12 UNL     1      21.459   0.345  55.587  1.00  0.00     0.313 HD
HETATM   23  H13 UNL     1      19.940  -0.490  55.421  1.00  0.00     0.313 HD
ENDBRANCH  20  21
ENDBRANCH   7  20
BRANCH   1  24
HETATM   24  N1  UNL     1      26.715   3.592  50.955  1.00  0.00    -0.324 N 
HETATM   25  C4  UNL     1      26.227   3.926  49.662  1.00  0.00     0.245 C 
HETATM   26  O1  UNL     1      25.264   3.350  49.103  1.00  0.00    -0.268 OA
HETATM   27  H6  UNL     1      27.519   4.077  51.414  1.00  0.00     0.169 HD
BRANCH  25  28
HETATM   28  C3  UNL     1      26.853   4.997  48.897  1.00  0.00     0.070 C 
HETATM   29  C2  UNL     1      28.120   5.201  48.578  1.00  0.00    -0.026 C 
HETATM   30  C1  UNL     1      28.841   6.249  47.813  1.00  0.00     0.036 C 
ENDBRANCH  25  28
ENDBRANCH   1  24
TORSDOF 6
ENDMDL
MODEL 6
REMARK VINA RESULT:      -7.8      3.390      5.448
REMARK  6 active torsions:
REMARK  status: ('A' for Active; 'I' for Inactive)
REMARK    1  A    between atoms: C3_3  and  C4_4 
REMARK       I    between atoms: C4_4  and  N1_6 
REMARK    2  A    between atoms: N1_6  and  C5_7 
REMARK    3  A    between atoms: C10_13  and  C11_14 
REMARK    4  A    between atoms: C11_14  and  N3_15 
REMARK    5  A    between atoms: C12_16  and  N4_17 
REMARK    6  A    between atoms: N4_17  and  C13_18 
ROOT
HETATM    1  C5  UNL     1      24.119   4.171  50.434  1.00  0.00     0.035 A 
HETATM    2  C6  UNL     1      25.336   4.261  49.755  1.00  0.00     0.032 A 
HETATM    3  C7  UNL     1      26.361   3.360  50.037  1.00  0.00     0.035 A 
HETATM    4  C8  UNL     1      26.116   2.399  50.999  1.00  0.00     0.069 A 
HETATM    5  N2  UNL     1      27.057   1.498  51.324  1.00  0.00    -0.260 NA
HETATM    6  C9  UNL     1      26.903   0.531  52.246  1.00  0.00     0.128 A 
HETATM    7  C10 UNL     1      25.684   0.441  52.926  1.00  0.00     0.015 A 
HETATM    8  C12 UNL     1      24.670   1.334  52.646  1.00  0.00     0.054 A 
HETATM    9  C19 UNL     1      24.906   2.302  51.683  1.00  0.00     0.022 A 
HETATM   10  C20 UNL     1      23.897   3.204  51.391  1.00  0.00     0.045 A 
ENDROOT
BRANCH   8  11
HETATM   11  N4  UNL     1      23.421   1.317  53.277  1.00  0.00    -0.355 N 
HETATM   12  H14 UNL     1      23.573   2.192  53.833  1.00  0.00     0.166 HD
BRANCH  11  13
HETATM   13  C13 UNL     1      22.230   0.562  53.346  1.00  0.00     0.033 A 
HETATM   14  C14 UNL     1      22.123  -0.389  54.341  1.00  0.00     0.029 A 
HETATM   15  C15 UNL     1      20.944  -1.084  54.358  1.00  0.00     0.004 A 
HETATM   16  C16 UNL     1      19.914  -0.871  53.454  1.00  0.00     0.019 A 
HETATM   17  C17 UNL     1      20.082   0.095  52.481  1.00  0.00     0.013 A 
HETATM   18 BR1  UNL     1      18.620   0.326  51.279  1.00  0.00    -0.051 Br
HETATM   19  C18 UNL     1      21.263   0.831  52.420  1.00  0.00     0.048 A 
ENDBRANCH  11  13
ENDBRANCH   8  11
BRANCH   7  20
HETATM   20  C11 UNL     1      25.493  -0.622  53.947  1.00  0.00     0.309 C 
BRANCH  20  21
HETATM   21  N3  UNL     1      26.239  -0.297  55.117  1.00  0.00     0.082 N 
HETATM   22  H12 UNL     1      26.982   0.406  54.980  1.00  0.00     0.313 HD
HETATM   23  H13 UNL     1      26.555  -1.143  55.651  1.00  0.00     0.313 HD
ENDBRANCH  20  21
ENDBRANCH   7  20
BRANCH   1  24
HETATM   24  N1  UNL     1      23.202   5.174  50.008  1.00  0.00    -0.324 N 
HETATM   25  C4  UNL     1      23.332   6.379  50.751  1.00  0.00     0.245 C 
HETATM   26  O1  UNL     1      24.158   6.547  51.680  1.00  0.00    -0.268 OA
HETATM   27  H6  UNL     1      22.510   5.041  49.237  1.00  0.00     0.169 HD
BRANCH  25  28
HETATM   28  C3  UNL     1      22.474   7.519  50.453  1.00  0.00     0.070 C 
HETATM   29  C2  UNL     1      21.166   7.590  50.277  1.00  0.00    -0.026 C 
HETATM   30  C1  UNL     1      20.219   8.692  49.974  1.00  0.00     0.036 C 
ENDBRANCH  25  28
ENDBRANCH   1  24
TORSDOF 6
ENDMDL
MODEL 7
REMARK VINA RESULT:      -7.6      3.057      6.006
REMARK  6 active torsions:
REMARK  status: ('A' for Active; 'I' for Inactive)
REMARK    1  A    between atoms: C3_3  and  C4_4 
REMARK       I    between atoms: C4_4  and  N1_6 
REMARK    2  A    between atoms: N1_6  and  C5_7 
REMARK    3  A    between atoms: C10_13  and  C11_14 
REMARK    4  A    between atoms: C11_14  and  N3_15 
REMARK    5  A    between atoms: C12_16  and  N4_17 
REMARK    6  A    between atoms: N4_17  and  C13_18 
ROOT
HETATM    1  C5  UNL     1      25.936   2.620  51.583  1.00  0.00     0.035 A 
HETATM    2  C6  UNL     1      26.444   3.135  50.389  1.00  0.00     0.032 A 
HETATM    3  C7  UNL     1      25.573   3.578  49.394  1.00  0.00     0.035 A 
HETATM    4  C8  UNL     1      24.218   3.483  49.646  1.00  0.00     0.069 A 
HETATM    5  N2  UNL     1      23.321   3.890  48.734  1.00  0.00    -0.260 NA
HETATM    6  C9  UNL     1      21.987   3.834  48.898  1.00  0.00     0.128 A 
HETATM    7  C10 UNL     1      21.479   3.318  50.095  1.00  0.00     0.015 A 
HETATM    8  C12 UNL     1      22.342   2.880  51.078  1.00  0.00     0.054 A 
HETATM    9  C19 UNL     1      23.703   2.970  50.835  1.00  0.00     0.022 A 
HETATM   10  C20 UNL     1      24.580   2.535  51.814  1.00  0.00     0.045 A 
ENDROOT
BRANCH   8  11
HETATM   11  N4  UNL     1      21.921   2.350  52.304  1.00  0.00    -0.355 N 
HETATM   12  H14 UNL     1      21.961   3.256  52.829  1.00  0.00     0.166 HD
BRANCH  11  13
HETATM   13  C13 UNL     1      21.529   1.133  52.903  1.00  0.00     0.033 A 
HETATM   14  C14 UNL     1      22.467   0.447  53.648  1.00  0.00     0.029 A 
HETATM   15  C15 UNL     1      22.026  -0.721  54.206  1.00  0.00     0.004 A 
HETATM   16  C16 UNL     1      20.736  -1.207  54.052  1.00  0.00     0.019 A 
HETATM   17  C17 UNL     1      19.843  -0.474  53.295  1.00  0.00     0.013 A 
HETATM   18 BR1  UNL     1      18.092  -1.210  53.135  1.00  0.00    -0.051 Br
HETATM   19  C18 UNL     1      20.242   0.723  52.705  1.00  0.00     0.048 A 
ENDBRANCH  11  13
ENDBRANCH   8  11
BRANCH   7  20
HETATM   20  C11 UNL     1      20.008   3.250  50.295  1.00  0.00     0.309 C 
BRANCH  20  21
HETATM   21  N3  UNL     1      19.355   4.040  49.306  1.00  0.00     0.082 N 
HETATM   22  H12 UNL     1      19.063   3.526  48.460  1.00  0.00     0.313 HD
HETATM   23  H13 UNL     1      19.857   4.937  49.099  1.00  0.00     0.313 HD
ENDBRANCH  20  21
ENDBRANCH   7  20
BRANCH   1  24
HETATM   24  N1  UNL     1      26.977   2.223  52.471  1.00  0.00    -0.324 N 
HETATM   25  C4  UNL     1      27.080   0.810  52.587  1.00  0.00     0.245 C 
HETATM   26  O1  UNL     1      26.341  -0.002  51.982  1.00  0.00    -0.268 OA
HETATM   27  H6  UNL     1      27.596   2.893  52.980  1.00  0.00     0.169 HD
BRANCH  25  28
HETATM   28  C3  UNL     1      28.093   0.219  53.453  1.00  0.00     0.070 C 
HETATM   29  C2  UNL     1      29.154  -0.514  53.162  1.00  0.00    -0.026 C 
HETATM   30  C1  UNL     1      30.226  -1.151  53.966  1.00  0.00     0.036 C 
ENDBRANCH  25  28
ENDBRANCH   1  24
TORSDOF 6
ENDMDL
MODEL 8
REMARK VINA RESULT:      -7.6      3.686      6.549
REMARK  6 active torsions:
REMARK  status: ('A' for Active; 'I' for Inactive)
REMARK    1  A    between atoms: C3_3  and  C4_4 
REMARK       I    between atoms: C4_4  and  N1_6 
REMARK    2  A    between atoms: N1_6  and  C5_7 
REMARK    3  A    between atoms: C10_13  and  C11_14 
REMARK    4  A    between atoms: C11_14  and  N3_15 
REMARK    5  A    between atoms: C12_16  and  N4_17 
REMARK    6  A    between atoms: N4_17  and  C13_18 
ROOT
HETATM    1  C5  UNL     1      20.915   0.928  52.287  1.00  0.00     0.035 A 
HETATM    2  C6  UNL     1      20.655   0.188  53.442  1.00  0.00     0.032 A 
HETATM    3  C7  UNL     1      21.711  -0.321  54.197  1.00  0.00     0.035 A 
HETATM    4  C8  UNL     1      22.993  -0.063  53.751  1.00  0.00     0.069 A 
HETATM    5  N2  UNL     1      24.059  -0.523  54.427  1.00  0.00    -0.260 NA
HETATM    6  C9  UNL     1      25.338  -0.317  54.065  1.00  0.00     0.128 A 
HETATM    7  C10 UNL     1      25.597   0.424  52.908  1.00  0.00     0.015 A 
HETATM    8  C12 UNL     1      24.551   0.928  52.162  1.00  0.00     0.054 A 
HETATM    9  C19 UNL     1      23.261   0.673  52.599  1.00  0.00     0.022 A 
HETATM   10  C20 UNL     1      22.202   1.174  51.861  1.00  0.00     0.045 A 
ENDROOT
BRANCH   8  11
HETATM   11  N4  UNL     1      24.720   1.678  50.993  1.00  0.00    -0.355 N 
HETATM   12  H14 UNL     1      24.374   0.935  50.340  1.00  0.00     0.166 HD
BRANCH  11  13
HETATM   13  C13 UNL     1      25.156   2.945  50.548  1.00  0.00     0.033 A 
HETATM   14  C14 UNL     1      26.292   3.001  49.767  1.00  0.00     0.029 A 
HETATM   15  C15 UNL     1      26.661   4.256  49.365  1.00  0.00     0.004 A 
HETATM   16  C16 UNL     1      25.965   5.407  49.703  1.00  0.00     0.019 A 
HETATM   17  C17 UNL     1      24.834   5.285  50.488  1.00  0.00     0.013 A 
HETATM   18 BR1  UNL     1      23.935   6.913  50.905  1.00  0.00    -0.051 Br
HETATM   19  C18 UNL     1      24.416   4.030  50.923  1.00  0.00     0.048 A 
ENDBRANCH  11  13
ENDBRANCH   8  11
BRANCH   7  20
HETATM   20  C11 UNL     1      27.004   0.663  52.492  1.00  0.00     0.309 C 
BRANCH  20  21
HETATM   21  N3  UNL     1      27.795  -0.479  52.809  1.00  0.00     0.082 N 
HETATM   22  H12 UNL     1      28.641  -0.283  53.368  1.00  0.00     0.313 HD
HETATM   23  H13 UNL     1      27.973  -1.098  51.982  1.00  0.00     0.313 HD
ENDBRANCH  20  21
ENDBRANCH   7  20
BRANCH   1  24
HETATM   24  N1  UNL     1      19.712   1.362  51.657  1.00  0.00    -0.324 N 
HETATM   25  C4  UNL     1      19.415   2.723  51.937  1.00  0.00     0.245 C 
HETATM   26  O1  UNL     1      20.125   3.466  52.657  1.00  0.00    -0.268 OA
HETATM   27  H6  UNL     1      19.115   0.750  51.057  1.00  0.00     0.169 HD
BRANCH  25  28
HETATM   28  C3  UNL     1      18.221   3.342  51.375  1.00  0.00     0.070 C 
HETATM   29  C2  UNL     1      16.954   3.264  51.747  1.00  0.00    -0.026 C 
HETATM   30  C1  UNL     1      15.688   3.851  51.242  1.00  0.00     0.036 C 
ENDBRANCH  25  28
ENDBRANCH   1  24
TORSDOF 6
ENDMDL
MODEL 9
REMARK VINA RESULT:      -7.5      3.466      6.856
REMARK  6 active torsions:
REMARK  status: ('A' for Active; 'I' for Inactive)
REMARK    1  A    between atoms: C3_3  and  C4_4 
REMARK       I    between atoms: C4_4  and  N1_6 
REMARK    2  A    between atoms: N1_6  and  C5_7 
REMARK    3  A    between atoms: C10_13  and  C11_14 
REMARK    4  A    between atoms: C11_14  and  N3_15 
REMARK    5  A    between atoms: C12_16  and  N4_17 
REMARK    6  A    between atoms: N4_17  and  C13_18 
ROOT
HETATM    1  C5  UNL     1      25.586   2.236  52.025  1.00  0.00     0.035 A 
HETATM    2  C6  UNL     1      24.603   2.180  53.015  1.00  0.00     0.032 A 
HETATM    3  C7  UNL     1      23.562   3.108  53.019  1.00  0.00     0.035 A 
HETATM    4  C8  UNL     1      23.557   4.059  52.018  1.00  0.00     0.069 A 
HETATM    5  N2  UNL     1      22.586   4.985  51.958  1.00  0.00    -0.260 NA
HETATM    6  C9  UNL     1      22.503   5.945  51.019  1.00  0.00     0.128 A 
HETATM    7  C10 UNL     1      23.488   6.001  50.027  1.00  0.00     0.015 A 
HETATM    8  C12 UNL     1      24.517   5.082  50.025  1.00  0.00     0.054 A 
HETATM    9  C19 UNL     1      24.533   4.123  51.026  1.00  0.00     0.022 A 
HETATM   10  C20 UNL     1      25.560   3.194  51.035  1.00  0.00     0.045 A 
ENDROOT
BRANCH   8  11
HETATM   11  N4  UNL     1      25.542   5.064  49.073  1.00  0.00    -0.355 N 
HETATM   12  H14 UNL     1      25.113   4.321  48.471  1.00  0.00     0.166 HD
BRANCH  11  13
HETATM   13  C13 UNL     1      26.779   5.675  48.771  1.00  0.00     0.033 A 
HETATM   14  C14 UNL     1      27.870   4.858  48.555  1.00  0.00     0.029 A 
HETATM   15  C15 UNL     1      29.037   5.510  48.264  1.00  0.00     0.004 A 
HETATM   16  C16 UNL     1      29.147   6.890  48.184  1.00  0.00     0.019 A 
HETATM   17  C17 UNL     1      28.018   7.654  48.410  1.00  0.00     0.013 A 
HETATM   18 BR1  UNL     1      28.253   9.541  48.280  1.00  0.00    -0.051 Br
HETATM   19  C18 UNL     1      26.804   7.040  48.711  1.00  0.00     0.048 A 
ENDBRANCH  11  13
ENDBRANCH   8  11
BRANCH   7  20
HETATM   20  C11 UNL     1      23.413   7.053  48.980  1.00  0.00     0.309 C 
BRANCH  20  21
HETATM   21  N3  UNL     1      22.294   6.803  48.133  1.00  0.00     0.082 N 
HETATM   22  H12 UNL     1      22.363   7.213  47.188  1.00  0.00     0.313 HD
HETATM   23  H13 UNL     1      21.374   6.982  48.603  1.00  0.00     0.313 HD
ENDBRANCH  20  21
ENDBRANCH   7  20
BRANCH   1  24
HETATM   24  N1  UNL     1      26.559   1.208  52.189  1.00  0.00    -0.324 N 
HETATM   25  C4  UNL     1      27.529   1.533  53.175  1.00  0.00     0.245 C 
HETATM   26  O1  UNL     1      27.537   2.603  53.830  1.00  0.00    -0.268 OA
HETATM   27  H6  UNL     1      26.560   0.315  51.647  1.00  0.00     0.169 HD
BRANCH  25  28
HETATM   28  C3  UNL     1      28.605   0.598  53.480  1.00  0.00     0.070 C 
HETATM   29  C2  UNL     1      28.704  -0.703  53.262  1.00  0.00    -0.026 C 
HETATM   30  C1  UNL     1      29.746  -1.723  53.535  1.00  0.00     0.036 C 
ENDBRANCH  25  28
ENDBRANCH   1  24
TORSDOF 6
ENDMDL
