MODEL 1
REMARK VINA RESULT:      -8.1      0.000      0.000
REMARK  2 active torsions:
REMARK  status: ('A' for Active; 'I' for Inactive)
REMARK    1  A    between atoms: C2_2  and  C3_3 
REMARK       I    between atoms: C3_3  and  N1_5 
REMARK    2  A    between atoms: N1_5  and  C4_6 
ROOT
HETATM    1  C4  UNL     1      25.119  -0.684  54.237  1.00  0.00     0.035 A 
HETATM    2  C5  UNL     1      24.434  -1.300  55.265  1.00  0.00     0.032 A 
HETATM    3  C6  UNL     1      23.059  -1.236  55.360  1.00  0.00     0.040 A 
HETATM    4  C7  UNL     1      22.445  -0.516  54.358  1.00  0.00     0.086 A 
HETATM    5  C8  UNL     1      23.029   0.151  53.267  1.00  0.00    -0.004 A 
HETATM    6  C9  UNL     1      24.428   0.016  53.276  1.00  0.00     0.041 A 
HETATM    7  C10 UNL     1      22.709   0.951  52.107  1.00  0.00     0.167 C 
HETATM    8  N2  UNL     1      21.397   0.775  51.500  1.00  0.00    -0.335 N 
HETATM    9  C11 UNL     1      19.999   0.512  51.052  1.00  0.00     0.229 A 
HETATM   10  N3  UNL     1      18.729   0.059  51.188  1.00  0.00    -0.239 NA
HETATM   11  C12 UNL     1      18.184  -0.529  52.269  1.00  0.00     0.233 A 
HETATM   12  N4  UNL     1      18.790  -0.803  53.479  1.00  0.00    -0.216 NA
HETATM   13  C13 UNL     1      20.067  -0.423  53.542  1.00  0.00     0.198 A 
HETATM   14  C14 UNL     1      20.444   0.152  52.355  1.00  0.00     0.120 A 
HETATM   15  O2  UNL     1      21.042  -0.489  54.514  1.00  0.00    -0.290 OA
ENDROOT
BRANCH   1  16
HETATM   16  N1  UNL     1      26.536  -0.804  54.219  1.00  0.00    -0.324 N 
HETATM   17  C3  UNL     1      27.367   0.318  54.467  1.00  0.00     0.244 C 
HETATM   18  O1  UNL     1      27.082   1.516  54.726  1.00  0.00    -0.268 OA
HETATM   19  H4  UNL     1      27.030  -1.718  54.022  1.00  0.00     0.169 HD
BRANCH  17  20
HETATM   20  C2  UNL     1      28.820   0.174  54.443  1.00  0.00     0.064 C 
HETATM   21  C1  UNL     1      29.203  -0.890  53.727  1.00  0.00     0.017 C 
ENDBRANCH  17  20
ENDBRANCH   1  16
TORSDOF 2
ENDMDL
MODEL 2
REMARK VINA RESULT:      -8.1      1.840      6.823
REMARK  2 active torsions:
REMARK  status: ('A' for Active; 'I' for Inactive)
REMARK    1  A    between atoms: C2_2  and  C3_3 
REMARK       I    between atoms: C3_3  and  N1_5 
REMARK    2  A    between atoms: N1_5  and  C4_6 
ROOT
HETATM    1  C4  UNL     1      22.551  -0.992  54.251  1.00  0.00     0.035 A 
HETATM    2  C5  UNL     1      23.144  -1.426  55.419  1.00  0.00     0.032 A 
HETATM    3  C6  UNL     1      24.495  -1.266  55.649  1.00  0.00     0.040 A 
HETATM    4  C7  UNL     1      25.184  -0.647  54.627  1.00  0.00     0.086 A 
HETATM    5  C8  UNL     1      24.695  -0.164  53.401  1.00  0.00    -0.004 A 
HETATM    6  C9  UNL     1      23.312  -0.384  53.281  1.00  0.00     0.041 A 
HETATM    7  C10 UNL     1      25.107   0.491  52.181  1.00  0.00     0.167 C 
HETATM    8  N2  UNL     1      26.279   1.353  52.233  1.00  0.00    -0.335 N 
HETATM    9  C11 UNL     1      27.527   2.140  52.456  1.00  0.00     0.229 A 
HETATM   10  N3  UNL     1      28.651   2.498  53.122  1.00  0.00    -0.239 NA
HETATM   11  C12 UNL     1      29.121   1.978  54.271  1.00  0.00     0.233 A 
HETATM   12  N4  UNL     1      28.568   0.965  55.029  1.00  0.00    -0.216 NA
HETATM   13  C13 UNL     1      27.434   0.472  54.528  1.00  0.00     0.198 A 
HETATM   14  C14 UNL     1      27.115   1.122  53.362  1.00  0.00     0.120 A 
HETATM   15  O2  UNL     1      26.557  -0.514  54.925  1.00  0.00    -0.290 OA
ENDROOT
BRANCH   1  16
HETATM   16  N1  UNL     1      21.151  -1.199  54.101  1.00  0.00    -0.324 N 
HETATM   17  C3  UNL     1      20.368  -0.336  53.293  1.00  0.00     0.244 C 
HETATM   18  O1  UNL     1      20.686   0.675  52.615  1.00  0.00    -0.268 OA
HETATM   19  H4  UNL     1      20.637  -1.991  54.576  1.00  0.00     0.169 HD
BRANCH  17  20
HETATM   20  C2  UNL     1      18.933  -0.565  53.153  1.00  0.00     0.064 C 
HETATM   21  C1  UNL     1      18.492  -0.228  51.934  1.00  0.00     0.017 C 
ENDBRANCH  17  20
ENDBRANCH   1  16
TORSDOF 2
ENDMDL
MODEL 3
REMARK VINA RESULT:      -7.7      2.165      2.592
REMARK  2 active torsions:
REMARK  status: ('A' for Active; 'I' for Inactive)
REMARK    1  A    between atoms: C2_2  and  C3_3 
REMARK       I    between atoms: C3_3  and  N1_5 
REMARK    2  A    between atoms: N1_5  and  C4_6 
ROOT
HETATM    1  C4  UNL     1      25.864   0.567  52.890  1.00  0.00     0.035 A 
HETATM    2  C5  UNL     1      25.035  -0.503  53.158  1.00  0.00     0.032 A 
HETATM    3  C6  UNL     1      23.669  -0.350  53.279  1.00  0.00     0.040 A 
HETATM    4  C7  UNL     1      23.218   0.943  53.112  1.00  0.00     0.086 A 
HETATM    5  C8  UNL     1      23.957   2.106  52.838  1.00  0.00    -0.004 A 
HETATM    6  C9  UNL     1      25.331   1.825  52.738  1.00  0.00     0.041 A 
HETATM    7  C10 UNL     1      23.819   3.527  52.619  1.00  0.00     0.167 C 
HETATM    8  N2  UNL     1      22.556   4.013  52.081  1.00  0.00    -0.335 N 
HETATM    9  C11 UNL     1      21.185   4.337  51.590  1.00  0.00     0.229 A 
HETATM   10  N3  UNL     1      19.872   4.094  51.364  1.00  0.00    -0.239 NA
HETATM   11  C12 UNL     1      19.179   2.986  51.688  1.00  0.00     0.233 A 
HETATM   12  N4  UNL     1      19.645   1.851  52.321  1.00  0.00    -0.216 NA
HETATM   13  C13 UNL     1      20.942   1.900  52.631  1.00  0.00     0.198 A 
HETATM   14  C14 UNL     1      21.476   3.097  52.226  1.00  0.00     0.120 A 
HETATM   15  O2  UNL     1      21.816   1.031  53.248  1.00  0.00    -0.290 OA
ENDROOT
BRANCH   1  16
HETATM   16  N1  UNL     1      27.260   0.315  52.781  1.00  0.00    -0.324 N 
HETATM   17  C3  UNL     1      28.102   0.369  53.921  1.00  0.00     0.244 C 
HETATM   18  O1  UNL     1      27.845   0.618  55.127  1.00  0.00    -0.268 OA
HETATM   19  H4  UNL     1      27.728   0.080  51.864  1.00  0.00     0.169 HD
BRANCH  17  20
HETATM   20  C2  UNL     1      29.533   0.107  53.789  1.00  0.00     0.064 C 
HETATM   21  C1  UNL     1      29.779  -1.175  53.488  1.00  0.00     0.017 C 
ENDBRANCH  17  20
ENDBRANCH   1  16
TORSDOF 2
ENDMDL
MODEL 4
REMARK VINA RESULT:      -7.6      1.634      7.334
REMARK  2 active torsions:
REMARK  status: ('A' for Active; 'I' for Inactive)
REMARK    1  A    between atoms: C2_2  and  C3_3 
REMARK       I    between atoms: C3_3  and  N1_5 
REMARK    2  A    between atoms: N1_5  and  C4_6 
ROOT
HETATM    1  C4  UNL     1      22.369   1.208  52.015  1.00  0.00     0.035 A 
HETATM    2  C5  UNL     1      22.635   2.556  52.149  1.00  0.00     0.032 A 
HETATM    3  C6  UNL     1      23.783   3.011  52.762  1.00  0.00     0.040 A 
HETATM    4  C7  UNL     1      24.623   2.018  53.221  1.00  0.00     0.086 A 
HETATM    5  C8  UNL     1      24.464   0.624  53.144  1.00  0.00    -0.004 A 
HETATM    6  C9  UNL     1      23.262   0.282  52.501  1.00  0.00     0.041 A 
HETATM    7  C10 UNL     1      25.100  -0.625  53.498  1.00  0.00     0.167 C 
HETATM    8  N2  UNL     1      26.551  -0.639  53.618  1.00  0.00    -0.335 N 
HETATM    9  C11 UNL     1      28.025  -0.454  53.758  1.00  0.00     0.229 A 
HETATM   10  N3  UNL     1      29.165   0.262  53.911  1.00  0.00    -0.239 NA
HETATM   11  C12 UNL     1      29.280   1.597  54.036  1.00  0.00     0.233 A 
HETATM   12  N4  UNL     1      28.267   2.537  54.036  1.00  0.00    -0.216 NA
HETATM   13  C13 UNL     1      27.047   2.017  53.893  1.00  0.00     0.198 A 
HETATM   14  C14 UNL     1      27.129   0.652  53.782  1.00  0.00     0.120 A 
HETATM   15  O2  UNL     1      25.777   2.548  53.837  1.00  0.00    -0.290 OA
ENDROOT
BRANCH   1  16
HETATM   16  N1  UNL     1      21.160   0.831  51.367  1.00  0.00    -0.324 N 
HETATM   17  C3  UNL     1      20.040   0.383  52.113  1.00  0.00     0.244 C 
HETATM   18  O1  UNL     1      19.879   0.236  53.353  1.00  0.00    -0.268 OA
HETATM   19  H4  UNL     1      21.039   0.865  50.318  1.00  0.00     0.169 HD
BRANCH  17  20
HETATM   20  C2  UNL     1      18.808   0.000  51.430  1.00  0.00     0.064 C 
HETATM   21  C1  UNL     1      17.990  -0.693  52.231  1.00  0.00     0.017 C 
ENDBRANCH  17  20
ENDBRANCH   1  16
TORSDOF 2
ENDMDL
MODEL 5
REMARK VINA RESULT:      -7.6      2.113      7.037
REMARK  2 active torsions:
REMARK  status: ('A' for Active; 'I' for Inactive)
REMARK    1  A    between atoms: C2_2  and  C3_3 
REMARK       I    between atoms: C3_3  and  N1_5 
REMARK    2  A    between atoms: N1_5  and  C4_6 
ROOT
HETATM    1  C4  UNL     1      22.057   0.888  51.998  1.00  0.00     0.035 A 
HETATM    2  C5  UNL     1      22.038  -0.201  52.847  1.00  0.00     0.032 A 
HETATM    3  C6  UNL     1      23.195  -0.712  53.395  1.00  0.00     0.040 A 
HETATM    4  C7  UNL     1      24.349  -0.053  53.026  1.00  0.00     0.086 A 
HETATM    5  C8  UNL     1      24.496   1.058  52.177  1.00  0.00    -0.004 A 
HETATM    6  C9  UNL     1      23.253   1.488  51.681  1.00  0.00     0.041 A 
HETATM    7  C10 UNL     1      25.485   1.943  51.607  1.00  0.00     0.167 C 
HETATM    8  N2  UNL     1      26.722   2.147  52.348  1.00  0.00    -0.335 N 
HETATM    9  C11 UNL     1      27.943   2.187  53.205  1.00  0.00     0.229 A 
HETATM   10  N3  UNL     1      28.782   1.742  54.171  1.00  0.00    -0.239 NA
HETATM   11  C12 UNL     1      28.639   0.641  54.932  1.00  0.00     0.233 A 
HETATM   12  N4  UNL     1      27.611  -0.280  54.902  1.00  0.00    -0.216 NA
HETATM   13  C13 UNL     1      26.668  -0.009  53.998  1.00  0.00     0.198 A 
HETATM   14  C14 UNL     1      26.984   1.142  53.322  1.00  0.00     0.120 A 
HETATM   15  O2  UNL     1      25.494  -0.624  53.620  1.00  0.00    -0.290 OA
ENDROOT
BRANCH   1  16
HETATM   16  N1  UNL     1      20.815   1.348  51.480  1.00  0.00    -0.324 N 
HETATM   17  C3  UNL     1      20.112   2.410  52.103  1.00  0.00     0.244 C 
HETATM   18  O1  UNL     1      20.387   3.099  53.119  1.00  0.00    -0.268 OA
HETATM   19  H4  UNL     1      20.362   0.927  50.623  1.00  0.00     0.169 HD
BRANCH  17  20
HETATM   20  C2  UNL     1      18.837   2.867  51.557  1.00  0.00     0.064 C 
HETATM   21  C1  UNL     1      18.098   1.848  51.099  1.00  0.00     0.017 C 
ENDBRANCH  17  20
ENDBRANCH   1  16
TORSDOF 2
ENDMDL
MODEL 6
REMARK VINA RESULT:      -7.1      1.816      6.958
REMARK  2 active torsions:
REMARK  status: ('A' for Active; 'I' for Inactive)
REMARK    1  A    between atoms: C2_2  and  C3_3 
REMARK       I    between atoms: C3_3  and  N1_5 
REMARK    2  A    between atoms: N1_5  and  C4_6 
ROOT
HETATM    1  C4  UNL     1      20.439  -0.379  53.254  1.00  0.00     0.035 A 
HETATM    2  C5  UNL     1      20.766  -1.305  54.225  1.00  0.00     0.032 A 
HETATM    3  C6  UNL     1      22.075  -1.539  54.591  1.00  0.00     0.040 A 
HETATM    4  C7  UNL     1      23.008  -0.783  53.912  1.00  0.00     0.086 A 
HETATM    5  C8  UNL     1      22.800   0.183  52.913  1.00  0.00    -0.004 A 
HETATM    6  C9  UNL     1      21.433   0.334  52.626  1.00  0.00     0.041 A 
HETATM    7  C10 UNL     1      23.498   1.102  52.043  1.00  0.00     0.167 C 
HETATM    8  N2  UNL     1      24.790   1.608  52.485  1.00  0.00    -0.335 N 
HETATM    9  C11 UNL     1      26.116   1.971  53.064  1.00  0.00     0.229 A 
HETATM   10  N3  UNL     1      27.179   1.822  53.890  1.00  0.00    -0.239 NA
HETATM   11  C12 UNL     1      27.373   0.852  54.804  1.00  0.00     0.233 A 
HETATM   12  N4  UNL     1      26.538  -0.206  55.104  1.00  0.00    -0.216 NA
HETATM   13  C13 UNL     1      25.417  -0.232  54.381  1.00  0.00     0.198 A 
HETATM   14  C14 UNL     1      25.396   0.828  53.510  1.00  0.00     0.120 A 
HETATM   15  O2  UNL     1      24.324  -1.070  54.333  1.00  0.00    -0.290 OA
ENDROOT
BRANCH   1  16
HETATM   16  N1  UNL     1      19.062  -0.203  52.942  1.00  0.00    -0.324 N 
HETATM   17  C3  UNL     1      18.125  -1.243  53.162  1.00  0.00     0.244 C 
HETATM   18  O1  UNL     1      18.273  -2.405  53.623  1.00  0.00    -0.268 OA
HETATM   19  H4  UNL     1      18.679   0.695  52.537  1.00  0.00     0.169 HD
BRANCH  17  20
HETATM   20  C2  UNL     1      16.716  -1.043  52.835  1.00  0.00     0.064 C 
HETATM   21  C1  UNL     1      16.553  -0.621  51.574  1.00  0.00     0.017 C 
ENDBRANCH  17  20
ENDBRANCH   1  16
TORSDOF 2
ENDMDL
MODEL 7
REMARK VINA RESULT:      -7.1      4.021      7.793
REMARK  2 active torsions:
REMARK  status: ('A' for Active; 'I' for Inactive)
REMARK    1  A    between atoms: C2_2  and  C3_3 
REMARK       I    between atoms: C3_3  and  N1_5 
REMARK    2  A    between atoms: N1_5  and  C4_6 
ROOT
HETATM    1  C4  UNL     1      24.212   3.558  49.648  1.00  0.00     0.035 A 
HETATM    2  C5  UNL     1      25.503   3.790  49.219  1.00  0.00     0.032 A 
HETATM    3  C6  UNL     1      26.595   3.442  49.988  1.00  0.00     0.040 A 
HETATM    4  C7  UNL     1      26.286   2.857  51.197  1.00  0.00     0.086 A 
HETATM    5  C8  UNL     1      25.022   2.572  51.740  1.00  0.00    -0.004 A 
HETATM    6  C9  UNL     1      23.991   2.969  50.871  1.00  0.00     0.041 A 
HETATM    7  C10 UNL     1      24.373   2.006  52.901  1.00  0.00     0.167 C 
HETATM    8  N2  UNL     1      25.103   1.007  53.669  1.00  0.00    -0.335 N 
HETATM    9  C11 UNL     1      26.016   0.055  54.367  1.00  0.00     0.229 A 
HETATM   10  N3  UNL     1      27.212  -0.507  54.662  1.00  0.00    -0.239 NA
HETATM   11  C12 UNL     1      28.417  -0.174  54.163  1.00  0.00     0.233 A 
HETATM   12  N4  UNL     1      28.706   0.812  53.240  1.00  0.00    -0.216 NA
HETATM   13  C13 UNL     1      27.637   1.490  52.820  1.00  0.00     0.198 A 
HETATM   14  C14 UNL     1      26.507   1.012  53.435  1.00  0.00     0.120 A 
HETATM   15  O2  UNL     1      27.444   2.527  51.933  1.00  0.00    -0.290 OA
ENDROOT
BRANCH   1  16
HETATM   16  N1  UNL     1      23.147   3.949  48.789  1.00  0.00    -0.324 N 
HETATM   17  C3  UNL     1      22.519   3.011  47.931  1.00  0.00     0.244 C 
HETATM   18  O1  UNL     1      22.728   1.782  47.756  1.00  0.00    -0.268 OA
HETATM   19  H4  UNL     1      22.781   4.939  48.748  1.00  0.00     0.169 HD
BRANCH  17  20
HETATM   20  C2  UNL     1      21.429   3.432  47.056  1.00  0.00     0.064 C 
HETATM   21  C1  UNL     1      21.743   4.534  46.364  1.00  0.00     0.017 C 
ENDBRANCH  17  20
ENDBRANCH   1  16
TORSDOF 2
ENDMDL
MODEL 8
REMARK VINA RESULT:      -7.0      3.614      4.293
REMARK  2 active torsions:
REMARK  status: ('A' for Active; 'I' for Inactive)
REMARK    1  A    between atoms: C2_2  and  C3_3 
REMARK       I    between atoms: C3_3  and  N1_5 
REMARK    2  A    between atoms: N1_5  and  C4_6 
ROOT
HETATM    1  C4  UNL     1      25.799   2.603  51.551  1.00  0.00     0.035 A 
HETATM    2  C5  UNL     1      26.447   1.471  52.005  1.00  0.00     0.032 A 
HETATM    3  C6  UNL     1      25.799   0.525  52.772  1.00  0.00     0.040 A 
HETATM    4  C7  UNL     1      24.476   0.807  53.039  1.00  0.00     0.086 A 
HETATM    5  C8  UNL     1      23.712   1.916  52.637  1.00  0.00    -0.004 A 
HETATM    6  C9  UNL     1      24.476   2.807  51.864  1.00  0.00     0.041 A 
HETATM    7  C10 UNL     1      22.392   2.495  52.731  1.00  0.00     0.167 C 
HETATM    8  N2  UNL     1      21.266   1.592  52.929  1.00  0.00    -0.335 N 
HETATM    9  C11 UNL     1      20.248   0.533  53.192  1.00  0.00     0.229 A 
HETATM   10  N3  UNL     1      19.824  -0.696  53.570  1.00  0.00    -0.239 NA
HETATM   11  C12 UNL     1      20.579  -1.724  54.003  1.00  0.00     0.233 A 
HETATM   12  N4  UNL     1      21.950  -1.758  54.160  1.00  0.00    -0.216 NA
HETATM   13  C13 UNL     1      22.560  -0.618  53.832  1.00  0.00     0.198 A 
HETATM   14  C14 UNL     1      21.635   0.306  53.417  1.00  0.00     0.120 A 
HETATM   15  O2  UNL     1      23.873  -0.198  53.826  1.00  0.00    -0.290 OA
ENDROOT
BRANCH   1  16
HETATM   16  N1  UNL     1      26.546   3.525  50.766  1.00  0.00    -0.324 N 
HETATM   17  C3  UNL     1      25.939   4.236  49.700  1.00  0.00     0.244 C 
HETATM   18  O1  UNL     1      24.760   4.220  49.262  1.00  0.00    -0.268 OA
HETATM   19  H4  UNL     1      27.571   3.719  50.934  1.00  0.00     0.169 HD
BRANCH  17  20
HETATM   20  C2  UNL     1      26.723   5.177  48.905  1.00  0.00     0.064 C 
HETATM   21  C1  UNL     1      27.933   4.687  48.604  1.00  0.00     0.017 C 
ENDBRANCH  17  20
ENDBRANCH   1  16
TORSDOF 2
ENDMDL
MODEL 9
REMARK VINA RESULT:      -7.0      2.624      7.321
REMARK  2 active torsions:
REMARK  status: ('A' for Active; 'I' for Inactive)
REMARK    1  A    between atoms: C2_2  and  C3_3 
REMARK       I    between atoms: C3_3  and  N1_5 
REMARK    2  A    between atoms: N1_5  and  C4_6 
ROOT
HETATM    1  C4  UNL     1      22.330   2.610  51.598  1.00  0.00     0.035 A 
HETATM    2  C5  UNL     1      22.976   3.759  52.008  1.00  0.00     0.032 A 
HETATM    3  C6  UNL     1      24.103   3.712  52.803  1.00  0.00     0.040 A 
HETATM    4  C7  UNL     1      24.516   2.441  53.143  1.00  0.00     0.086 A 
HETATM    5  C8  UNL     1      23.947   1.206  52.790  1.00  0.00    -0.004 A 
HETATM    6  C9  UNL     1      22.809   1.381  51.983  1.00  0.00     0.041 A 
HETATM    7  C10 UNL     1      24.104  -0.221  52.960  1.00  0.00     0.167 C 
HETATM    8  N2  UNL     1      25.445  -0.731  53.211  1.00  0.00    -0.335 N 
HETATM    9  C11 UNL     1      26.865  -1.067  53.522  1.00  0.00     0.229 A 
HETATM   10  N3  UNL     1      28.133  -0.799  53.915  1.00  0.00    -0.239 NA
HETATM   11  C12 UNL     1      28.635   0.389  54.300  1.00  0.00     0.233 A 
HETATM   12  N4  UNL     1      27.975   1.599  54.382  1.00  0.00    -0.216 NA
HETATM   13  C13 UNL     1      26.690   1.539  54.029  1.00  0.00     0.198 A 
HETATM   14  C14 UNL     1      26.362   0.256  53.670  1.00  0.00     0.120 A 
HETATM   15  O2  UNL     1      25.671   2.463  53.954  1.00  0.00    -0.290 OA
ENDROOT
BRANCH   1  16
HETATM   16  N1  UNL     1      21.176   2.755  50.780  1.00  0.00    -0.324 N 
HETATM   17  C3  UNL     1      19.907   3.034  51.349  1.00  0.00     0.244 C 
HETATM   18  O1  UNL     1      19.557   3.197  52.546  1.00  0.00    -0.268 OA
HETATM   19  H4  UNL     1      21.206   2.662  49.727  1.00  0.00     0.169 HD
BRANCH  17  20
HETATM   20  C2  UNL     1      18.734   3.178  50.492  1.00  0.00     0.064 C 
HETATM   21  C1  UNL     1      18.590   2.134  49.665  1.00  0.00     0.017 C 
ENDBRANCH  17  20
ENDBRANCH   1  16
TORSDOF 2
ENDMDL
