MODEL 1
REMARK VINA RESULT:      -8.6      0.000      0.000
REMARK  5 active torsions:
REMARK  status: ('A' for Active; 'I' for Inactive)
REMARK    1  A    between atoms: O1_2  and  C2_3 
REMARK    2  A    between atoms: N1_9  and  O2_10 
REMARK    3  A    between atoms: O2_10  and  O3_11 
REMARK    4  A    between atoms: N2_12  and  C8_13 
REMARK    5  A    between atoms: C11_16  and  N3_17 
ROOT
HETATM    1  C2  UNL     1      20.728  -0.299  52.725  1.00  0.00     0.062 C 
HETATM    2  C3  UNL     1      21.545  -0.757  53.673  1.00  0.00     0.103 C 
HETATM    3  C4  UNL     1      23.007  -0.375  53.863  1.00  0.00    -0.012 C 
HETATM    4  C5  UNL     1      24.301   0.111  53.841  1.00  0.00     0.046 C 
HETATM    5  C6  UNL     1      24.419   1.051  52.675  1.00  0.00     0.000 C 
HETATM    6  C7  UNL     1      25.287   1.872  52.028  1.00  0.00     0.143 C 
HETATM    7  N1  UNL     1      25.565   2.798  50.955  1.00  0.00    -0.137 N 
HETATM    8  N2  UNL     1      24.643   3.565  50.264  1.00  0.00    -0.243 N 
HETATM    9  C18 UNL     1      23.273   3.437  49.802  1.00  0.00     0.182 C 
HETATM   10  C19 UNL     1      22.246   3.321  50.834  1.00  0.00     0.012 C 
HETATM   11  C20 UNL     1      21.319   2.477  51.214  1.00  0.00     0.080 C 
HETATM   12  N6  UNL     1      20.750   1.226  50.901  1.00  0.00    -0.397 N 
HETATM   13  C21 UNL     1      19.907   0.294  51.609  1.00  0.00     0.151 C 
HETATM   14  H28 UNL     1      21.153   1.196  49.946  1.00  0.00     0.158 HD
ENDROOT
BRANCH   8  15
HETATM   15  C8  UNL     1      25.297   4.831  49.964  1.00  0.00     0.146 A 
HETATM   16  C9  UNL     1      26.265   4.880  48.984  1.00  0.00     0.054 A 
HETATM   17  C10 UNL     1      26.931   6.030  48.615  1.00  0.00     0.034 A 
HETATM   18  C11 UNL     1      26.641   7.210  49.235  1.00  0.00     0.048 A 
HETATM   19  C17 UNL     1      25.675   7.126  50.205  1.00  0.00     0.148 A 
HETATM   20  N5  UNL     1      25.050   5.991  50.536  1.00  0.00    -0.239 NA
BRANCH  18  21
HETATM   21  N3  UNL     1      27.252   8.460  48.954  1.00  0.00    -0.376 N 
HETATM   22  C12 UNL     1      27.924   9.300  49.912  1.00  0.00     0.153 C 
HETATM   23  C13 UNL     1      29.338   9.512  49.357  1.00  0.00     0.291 C 
HETATM   24  N4  UNL     1      29.181  10.410  48.256  1.00  0.00     0.087 N 
HETATM   25  C14 UNL     1      29.218  11.793  48.702  1.00  0.00     0.310 C 
HETATM   26  C15 UNL     1      28.129  10.132  47.352  1.00  0.00     0.291 C 
HETATM   27  C16 UNL     1      27.237   8.991  47.639  1.00  0.00     0.153 C 
ENDBRANCH  18  21
ENDBRANCH   8  15
BRANCH   7  28
HETATM   28  O2  UNL     1      26.882   2.825  50.679  1.00  0.00    -0.092 OA
BRANCH  28  29
HETATM   29  O3  UNL     1      27.591   2.926  51.786  1.00  0.00    -0.225 OA
HETATM   30  H9  UNL     1      27.650   2.038  52.225  1.00  0.00     0.256 HD
ENDBRANCH  28  29
ENDBRANCH   7  28
BRANCH   1  31
HETATM   31  O1  UNL     1      19.860  -1.176  53.422  1.00  0.00    -0.388 OA
HETATM   32  C1  UNL     1      18.462  -1.116  53.257  1.00  0.00     0.202 C 
ENDBRANCH   1  31
TORSDOF 5
ENDMDL
MODEL 2
REMARK VINA RESULT:      -8.4      1.934      2.771
REMARK  5 active torsions:
REMARK  status: ('A' for Active; 'I' for Inactive)
REMARK    1  A    between atoms: O1_2  and  C2_3 
REMARK    2  A    between atoms: N1_9  and  O2_10 
REMARK    3  A    between atoms: O2_10  and  O3_11 
REMARK    4  A    between atoms: N2_12  and  C8_13 
REMARK    5  A    between atoms: C11_16  and  N3_17 
ROOT
HETATM    1  C2  UNL     1      22.638   1.064  52.717  1.00  0.00     0.062 C 
HETATM    2  C3  UNL     1      23.771   0.418  52.994  1.00  0.00     0.103 C 
HETATM    3  C4  UNL     1      25.163   0.789  52.500  1.00  0.00    -0.012 C 
HETATM    4  C5  UNL     1      26.315   1.306  51.937  1.00  0.00     0.046 C 
HETATM    5  C6  UNL     1      25.927   2.503  51.114  1.00  0.00     0.000 C 
HETATM    6  C7  UNL     1      26.432   3.481  50.319  1.00  0.00     0.143 C 
HETATM    7  N1  UNL     1      26.227   4.646  49.491  1.00  0.00    -0.137 N 
HETATM    8  N2  UNL     1      25.161   5.527  49.549  1.00  0.00    -0.243 N 
HETATM    9  C18 UNL     1      23.737   5.470  49.827  1.00  0.00     0.182 C 
HETATM   10  C19 UNL     1      23.353   5.078  51.180  1.00  0.00     0.012 C 
HETATM   11  C20 UNL     1      22.661   4.138  51.776  1.00  0.00     0.080 C 
HETATM   12  N6  UNL     1      21.896   2.982  51.524  1.00  0.00    -0.397 N 
HETATM   13  C21 UNL     1      21.432   1.881  52.333  1.00  0.00     0.151 C 
HETATM   14  H28 UNL     1      21.767   3.194  50.517  1.00  0.00     0.158 HD
ENDROOT
BRANCH   8  15
HETATM   15  C8  UNL     1      25.696   6.847  49.251  1.00  0.00     0.146 A 
HETATM   16  C9  UNL     1      25.464   7.411  48.015  1.00  0.00     0.054 A 
HETATM   17  C10 UNL     1      25.914   8.660  47.640  1.00  0.00     0.034 A 
HETATM   18  C11 UNL     1      26.635   9.413  48.520  1.00  0.00     0.048 A 
HETATM   19  C17 UNL     1      26.848   8.823  49.740  1.00  0.00     0.148 A 
HETATM   20  N5  UNL     1      26.396   7.608  50.067  1.00  0.00    -0.239 NA
BRANCH  18  21
HETATM   21  N3  UNL     1      27.157  10.708  48.261  1.00  0.00    -0.376 N 
HETATM   22  C12 UNL     1      26.638  11.646  47.300  1.00  0.00     0.153 C 
HETATM   23  C13 UNL     1      26.327  12.922  48.092  1.00  0.00     0.291 C 
HETATM   24  N4  UNL     1      27.600  13.500  48.390  1.00  0.00     0.087 N 
HETATM   25  C14 UNL     1      28.049  14.359  47.307  1.00  0.00     0.310 C 
HETATM   26  C15 UNL     1      28.600  12.624  48.874  1.00  0.00     0.291 C 
HETATM   27  C16 UNL     1      28.289  11.184  48.972  1.00  0.00     0.153 C 
ENDBRANCH  18  21
ENDBRANCH   8  15
BRANCH   7  28
HETATM   28  O2  UNL     1      27.228   4.780  48.601  1.00  0.00    -0.092 OA
BRANCH  28  29
HETATM   29  O3  UNL     1      28.359   5.081  49.211  1.00  0.00    -0.225 OA
HETATM   30  H9  UNL     1      28.162   5.482  50.097  1.00  0.00     0.256 HD
ENDBRANCH  28  29
ENDBRANCH   7  28
BRANCH   1  31
HETATM   31  O1  UNL     1      22.152   0.018  53.541  1.00  0.00    -0.388 OA
HETATM   32  C1  UNL     1      21.061   0.211  54.411  1.00  0.00     0.202 C 
ENDBRANCH   1  31
TORSDOF 5
ENDMDL
MODEL 3
REMARK VINA RESULT:      -8.4      3.642     11.765
REMARK  5 active torsions:
REMARK  status: ('A' for Active; 'I' for Inactive)
REMARK    1  A    between atoms: O1_2  and  C2_3 
REMARK    2  A    between atoms: N1_9  and  O2_10 
REMARK    3  A    between atoms: O2_10  and  O3_11 
REMARK    4  A    between atoms: N2_12  and  C8_13 
REMARK    5  A    between atoms: C11_16  and  N3_17 
ROOT
HETATM    1  C2  UNL     1      25.751   2.804  50.831  1.00  0.00     0.062 C 
HETATM    2  C3  UNL     1      26.607   1.920  51.344  1.00  0.00     0.103 C 
HETATM    3  C4  UNL     1      26.253   0.741  52.241  1.00  0.00    -0.012 C 
HETATM    4  C5  UNL     1      25.704  -0.250  53.035  1.00  0.00     0.046 C 
HETATM    5  C6  UNL     1      24.221  -0.014  53.106  1.00  0.00     0.000 C 
HETATM    6  C7  UNL     1      23.070  -0.504  53.633  1.00  0.00     0.143 C 
HETATM    7  N1  UNL     1      21.638  -0.418  53.802  1.00  0.00    -0.137 N 
HETATM    8  N2  UNL     1      20.742   0.217  52.960  1.00  0.00    -0.243 N 
HETATM    9  C18 UNL     1      20.717   1.396  52.113  1.00  0.00     0.182 C 
HETATM   10  C19 UNL     1      21.629   1.399  50.974  1.00  0.00     0.012 C 
HETATM   11  C20 UNL     1      22.628   2.109  50.511  1.00  0.00     0.080 C 
HETATM   12  N6  UNL     1      23.416   3.245  50.788  1.00  0.00    -0.397 N 
HETATM   13  C21 UNL     1      24.686   3.734  50.311  1.00  0.00     0.151 C 
HETATM   14  H28 UNL     1      22.747   3.634  51.478  1.00  0.00     0.158 HD
ENDROOT
BRANCH   8  15
HETATM   15  C8  UNL     1      19.524  -0.581  52.972  1.00  0.00     0.146 A 
HETATM   16  C9  UNL     1      18.456  -0.202  52.189  1.00  0.00     0.054 A 
HETATM   17  C10 UNL     1      17.266  -0.896  52.118  1.00  0.00     0.034 A 
HETATM   18  C11 UNL     1      17.101  -2.033  52.854  1.00  0.00     0.048 A 
HETATM   19  C17 UNL     1      18.182  -2.382  53.623  1.00  0.00     0.148 A 
HETATM   20  N5  UNL     1      19.320  -1.682  53.665  1.00  0.00    -0.239 NA
BRANCH  18  21
HETATM   21  N3  UNL     1      15.931  -2.838  52.876  1.00  0.00    -0.376 N 
HETATM   22  C12 UNL     1      14.623  -2.429  52.434  1.00  0.00     0.153 C 
HETATM   23  C13 UNL     1      14.207  -3.450  51.367  1.00  0.00     0.291 C 
HETATM   24  N4  UNL     1      13.900  -4.645  52.089  1.00  0.00     0.087 N 
HETATM   25  C14 UNL     1      12.516  -4.644  52.535  1.00  0.00     0.310 C 
HETATM   26  C15 UNL     1      14.820  -5.040  53.089  1.00  0.00     0.291 C 
HETATM   27  C16 UNL     1      15.980  -4.170  53.363  1.00  0.00     0.153 C 
ENDBRANCH  18  21
ENDBRANCH   8  15
BRANCH   7  28
HETATM   28  O2  UNL     1      21.254  -1.040  54.932  1.00  0.00    -0.092 OA
BRANCH  28  29
HETATM   29  O3  UNL     1      22.040  -2.067  55.192  1.00  0.00    -0.225 OA
HETATM   30  H9  UNL     1      21.729  -2.523  56.016  1.00  0.00     0.256 HD
ENDBRANCH  28  29
ENDBRANCH   7  28
BRANCH   1  31
HETATM   31  O1  UNL     1      26.978   3.289  50.312  1.00  0.00    -0.388 OA
HETATM   32  C1  UNL     1      27.015   4.221  49.257  1.00  0.00     0.202 C 
ENDBRANCH   1  31
TORSDOF 5
ENDMDL
MODEL 4
REMARK VINA RESULT:      -8.1      4.525      6.864
REMARK  5 active torsions:
REMARK  status: ('A' for Active; 'I' for Inactive)
REMARK    1  A    between atoms: O1_2  and  C2_3 
REMARK    2  A    between atoms: N1_9  and  O2_10 
REMARK    3  A    between atoms: O2_10  and  O3_11 
REMARK    4  A    between atoms: N2_12  and  C8_13 
REMARK    5  A    between atoms: C11_16  and  N3_17 
ROOT
HETATM    1  C2  UNL     1      27.206   0.845  53.866  1.00  0.00     0.062 C 
HETATM    2  C3  UNL     1      26.337  -0.083  54.268  1.00  0.00     0.103 C 
HETATM    3  C4  UNL     1      24.879  -0.195  53.843  1.00  0.00    -0.012 C 
HETATM    4  C5  UNL     1      23.600  -0.098  53.326  1.00  0.00     0.046 C 
HETATM    5  C6  UNL     1      23.557   1.106  52.428  1.00  0.00     0.000 C 
HETATM    6  C7  UNL     1      22.740   1.819  51.611  1.00  0.00     0.143 C 
HETATM    7  N1  UNL     1      22.532   2.936  50.719  1.00  0.00    -0.137 N 
HETATM    8  N2  UNL     1      23.503   3.614  50.001  1.00  0.00    -0.243 N 
HETATM    9  C18 UNL     1      24.888   4.011  50.181  1.00  0.00     0.182 C 
HETATM   10  C19 UNL     1      25.865   2.931  50.283  1.00  0.00     0.012 C 
HETATM   11  C20 UNL     1      26.753   2.481  51.135  1.00  0.00     0.080 C 
HETATM   12  N6  UNL     1      27.302   2.722  52.410  1.00  0.00    -0.397 N 
HETATM   13  C21 UNL     1      28.089   1.944  53.336  1.00  0.00     0.151 C 
HETATM   14  H28 UNL     1      26.939   3.692  52.466  1.00  0.00     0.158 HD
ENDROOT
BRANCH   8  15
HETATM   15  C8  UNL     1      22.896   3.989  48.733  1.00  0.00     0.146 A 
HETATM   16  C9  UNL     1      22.511   3.005  47.847  1.00  0.00     0.054 A 
HETATM   17  C10 UNL     1      21.915   3.255  46.629  1.00  0.00     0.034 A 
HETATM   18  C11 UNL     1      21.675   4.542  46.242  1.00  0.00     0.048 A 
HETATM   19  C17 UNL     1      22.070   5.495  47.146  1.00  0.00     0.148 A 
HETATM   20  N5  UNL     1      22.646   5.214  48.319  1.00  0.00    -0.239 NA
BRANCH  18  21
HETATM   21  N3  UNL     1      21.073   4.935  45.018  1.00  0.00    -0.376 N 
HETATM   22  C12 UNL     1      20.743   6.286  44.641  1.00  0.00     0.153 C 
HETATM   23  C13 UNL     1      21.470   6.535  43.314  1.00  0.00     0.291 C 
HETATM   24  N4  UNL     1      20.742   5.785  42.339  1.00  0.00     0.087 N 
HETATM   25  C14 UNL     1      19.635   6.560  41.804  1.00  0.00     0.310 C 
HETATM   26  C15 UNL     1      20.393   4.458  42.686  1.00  0.00     0.291 C 
HETATM   27  C16 UNL     1      20.738   3.969  44.035  1.00  0.00     0.153 C 
ENDBRANCH  18  21
ENDBRANCH   8  15
BRANCH   7  28
HETATM   28  O2  UNL     1      21.230   3.271  50.670  1.00  0.00    -0.092 OA
BRANCH  28  29
HETATM   29  O3  UNL     1      20.901   4.025  51.701  1.00  0.00    -0.225 OA
HETATM   30  H9  UNL     1      21.379   4.892  51.644  1.00  0.00     0.256 HD
ENDBRANCH  28  29
ENDBRANCH   7  28
BRANCH   1  31
HETATM   31  O1  UNL     1      28.020   0.079  54.738  1.00  0.00    -0.388 OA
HETATM   32  C1  UNL     1      29.218  -0.515  54.296  1.00  0.00     0.202 C 
ENDBRANCH   1  31
TORSDOF 5
ENDMDL
MODEL 5
REMARK VINA RESULT:      -8.0      4.966     10.211
REMARK  5 active torsions:
REMARK  status: ('A' for Active; 'I' for Inactive)
REMARK    1  A    between atoms: O1_2  and  C2_3 
REMARK    2  A    between atoms: N1_9  and  O2_10 
REMARK    3  A    between atoms: O2_10  and  O3_11 
REMARK    4  A    between atoms: N2_12  and  C8_13 
REMARK    5  A    between atoms: C11_16  and  N3_17 
ROOT
HETATM    1  C2  UNL     1      26.838   0.704  53.152  1.00  0.00     0.062 C 
HETATM    2  C3  UNL     1      27.221   1.739  52.404  1.00  0.00     0.103 C 
HETATM    3  C4  UNL     1      26.355   2.497  51.406  1.00  0.00    -0.012 C 
HETATM    4  C5  UNL     1      25.397   3.028  50.562  1.00  0.00     0.046 C 
HETATM    5  C6  UNL     1      24.139   2.223  50.731  1.00  0.00     0.000 C 
HETATM    6  C7  UNL     1      22.855   2.117  50.303  1.00  0.00     0.143 C 
HETATM    7  N1  UNL     1      21.575   1.449  50.347  1.00  0.00    -0.137 N 
HETATM    8  N2  UNL     1      21.076   0.683  51.388  1.00  0.00    -0.243 N 
HETATM    9  C18 UNL     1      21.593  -0.232  52.389  1.00  0.00     0.182 C 
HETATM   10  C19 UNL     1      22.503   0.335  53.380  1.00  0.00     0.012 C 
HETATM   11  C20 UNL     1      23.734   0.171  53.797  1.00  0.00     0.080 C 
HETATM   12  N6  UNL     1      24.896  -0.597  53.580  1.00  0.00    -0.397 N 
HETATM   13  C21 UNL     1      26.285  -0.454  53.941  1.00  0.00     0.151 C 
HETATM   14  H28 UNL     1      24.398  -1.338  53.051  1.00  0.00     0.158 HD
ENDROOT
BRANCH   8  15
HETATM   15  C8  UNL     1      19.641   0.925  51.430  1.00  0.00     0.146 A 
HETATM   16  C9  UNL     1      18.771  -0.142  51.386  1.00  0.00     0.054 A 
HETATM   17  C10 UNL     1      17.398  -0.021  51.435  1.00  0.00     0.034 A 
HETATM   18  C11 UNL     1      16.830   1.216  51.534  1.00  0.00     0.048 A 
HETATM   19  C17 UNL     1      17.724   2.256  51.575  1.00  0.00     0.148 A 
HETATM   20  N5  UNL     1      19.050   2.099  51.524  1.00  0.00    -0.239 NA
BRANCH  18  21
HETATM   21  N3  UNL     1      15.436   1.481  51.591  1.00  0.00    -0.376 N 
HETATM   22  C12 UNL     1      14.572   1.191  52.706  1.00  0.00     0.153 C 
HETATM   23  C13 UNL     1      13.919   2.526  53.082  1.00  0.00     0.291 C 
HETATM   24  N4  UNL     1      12.967   2.786  52.048  1.00  0.00     0.087 N 
HETATM   25  C14 UNL     1      11.692   2.153  52.341  1.00  0.00     0.310 C 
HETATM   26  C15 UNL     1      13.405   2.593  50.716  1.00  0.00     0.291 C 
HETATM   27  C16 UNL     1      14.770   2.079  50.490  1.00  0.00     0.153 C 
ENDBRANCH  18  21
ENDBRANCH   8  15
BRANCH   7  28
HETATM   28  O2  UNL     1      20.893   1.649  49.204  1.00  0.00    -0.092 OA
BRANCH  28  29
HETATM   29  O3  UNL     1      21.444   0.983  48.208  1.00  0.00    -0.225 OA
HETATM   30  H9  UNL     1      21.078   1.311  47.346  1.00  0.00     0.256 HD
ENDBRANCH  28  29
ENDBRANCH   7  28
BRANCH   1  31
HETATM   31  O1  UNL     1      28.189   0.842  53.560  1.00  0.00    -0.388 OA
HETATM   32  C1  UNL     1      28.670   0.232  54.735  1.00  0.00     0.202 C 
ENDBRANCH   1  31
TORSDOF 5
ENDMDL
MODEL 6
REMARK VINA RESULT:      -7.7      2.361      3.373
REMARK  5 active torsions:
REMARK  status: ('A' for Active; 'I' for Inactive)
REMARK    1  A    between atoms: O1_2  and  C2_3 
REMARK    2  A    between atoms: N1_9  and  O2_10 
REMARK    3  A    between atoms: O2_10  and  O3_11 
REMARK    4  A    between atoms: N2_12  and  C8_13 
REMARK    5  A    between atoms: C11_16  and  N3_17 
ROOT
HETATM    1  C2  UNL     1      19.494  -0.079  52.536  1.00  0.00     0.062 C 
HETATM    2  C3  UNL     1      18.570   0.148  51.602  1.00  0.00     0.103 C 
HETATM    3  C4  UNL     1      18.530   1.331  50.643  1.00  0.00    -0.012 C 
HETATM    4  C5  UNL     1      18.695   2.476  49.887  1.00  0.00     0.046 C 
HETATM    5  C6  UNL     1      19.927   3.181  50.381  1.00  0.00     0.000 C 
HETATM    6  C7  UNL     1      20.706   4.274  50.177  1.00  0.00     0.143 C 
HETATM    7  N1  UNL     1      21.858   5.070  50.531  1.00  0.00    -0.137 N 
HETATM    8  N2  UNL     1      22.999   4.633  51.181  1.00  0.00    -0.243 N 
HETATM    9  C18 UNL     1      23.343   3.670  52.212  1.00  0.00     0.182 C 
HETATM   10  C19 UNL     1      23.111   2.264  51.894  1.00  0.00     0.012 C 
HETATM   11  C20 UNL     1      22.415   1.251  52.347  1.00  0.00     0.080 C 
HETATM   12  N6  UNL     1      21.506   0.883  53.359  1.00  0.00    -0.397 N 
HETATM   13  C21 UNL     1      20.599  -0.223  53.550  1.00  0.00     0.151 C 
HETATM   14  H28 UNL     1      21.716   1.706  53.953  1.00  0.00     0.158 HD
ENDROOT
BRANCH   8  15
HETATM   15  C8  UNL     1      24.112   5.379  50.614  1.00  0.00     0.146 A 
HETATM   16  C9  UNL     1      24.832   4.839  49.571  1.00  0.00     0.054 A 
HETATM   17  C10 UNL     1      25.892   5.471  48.956  1.00  0.00     0.034 A 
HETATM   18  C11 UNL     1      26.281   6.709  49.379  1.00  0.00     0.048 A 
HETATM   19  C17 UNL     1      25.545   7.218  50.418  1.00  0.00     0.148 A 
HETATM   20  N5  UNL     1      24.522   6.574  50.990  1.00  0.00    -0.239 NA
BRANCH  18  21
HETATM   21  N3  UNL     1      27.353   7.465  48.836  1.00  0.00    -0.376 N 
HETATM   22  C12 UNL     1      27.418   8.903  48.773  1.00  0.00     0.153 C 
HETATM   23  C13 UNL     1      28.711   9.292  49.501  1.00  0.00     0.291 C 
HETATM   24  N4  UNL     1      29.769   8.922  48.614  1.00  0.00     0.087 N 
HETATM   25  C14 UNL     1      30.055   9.990  47.670  1.00  0.00     0.310 C 
HETATM   26  C15 UNL     1      29.682   7.643  48.016  1.00  0.00     0.291 C 
HETATM   27  C16 UNL     1      28.491   6.816  48.290  1.00  0.00     0.153 C 
ENDBRANCH  18  21
ENDBRANCH   8  15
BRANCH   7  28
HETATM   28  O2  UNL     1      21.686   6.351  50.154  1.00  0.00    -0.092 OA
BRANCH  28  29
HETATM   29  O3  UNL     1      21.531   7.132  51.206  1.00  0.00    -0.225 OA
HETATM   30  H9  UNL     1      20.661   7.604  51.144  1.00  0.00     0.256 HD
ENDBRANCH  28  29
ENDBRANCH   7  28
BRANCH   1  31
HETATM   31  O1  UNL     1      18.646  -1.199  52.724  1.00  0.00    -0.388 OA
HETATM   32  C1  UNL     1      17.306  -1.050  53.129  1.00  0.00     0.202 C 
ENDBRANCH   1  31
TORSDOF 5
ENDMDL
MODEL 7
REMARK VINA RESULT:      -7.7      2.501      9.969
REMARK  5 active torsions:
REMARK  status: ('A' for Active; 'I' for Inactive)
REMARK    1  A    between atoms: O1_2  and  C2_3 
REMARK    2  A    between atoms: N1_9  and  O2_10 
REMARK    3  A    between atoms: O2_10  and  O3_11 
REMARK    4  A    between atoms: N2_12  and  C8_13 
REMARK    5  A    between atoms: C11_16  and  N3_17 
ROOT
HETATM    1  C2  UNL     1      28.499   8.773  49.134  1.00  0.00     0.062 C 
HETATM    2  C3  UNL     1      29.213   7.939  48.378  1.00  0.00     0.103 C 
HETATM    3  C4  UNL     1      28.968   6.446  48.207  1.00  0.00    -0.012 C 
HETATM    4  C5  UNL     1      28.563   5.123  48.206  1.00  0.00     0.046 C 
HETATM    5  C6  UNL     1      27.381   5.004  49.127  1.00  0.00     0.000 C 
HETATM    6  C7  UNL     1      26.480   4.118  49.625  1.00  0.00     0.143 C 
HETATM    7  N1  UNL     1      25.343   3.835  50.469  1.00  0.00    -0.137 N 
HETATM    8  N2  UNL     1      24.385   4.737  50.898  1.00  0.00    -0.243 N 
HETATM    9  C18 UNL     1      24.325   6.137  51.280  1.00  0.00     0.182 C 
HETATM   10  C19 UNL     1      24.624   7.110  50.234  1.00  0.00     0.012 C 
HETATM   11  C20 UNL     1      25.482   8.072  49.997  1.00  0.00     0.080 C 
HETATM   12  N6  UNL     1      26.590   8.744  50.550  1.00  0.00    -0.397 N 
HETATM   13  C21 UNL     1      27.615   9.610  50.021  1.00  0.00     0.151 C 
HETATM   14  H28 UNL     1      26.416   8.397  51.512  1.00  0.00     0.158 HD
ENDROOT
BRANCH   8  15
HETATM   15  C8  UNL     1      23.123   4.014  50.941  1.00  0.00     0.146 A 
HETATM   16  C9  UNL     1      22.511   3.786  52.154  1.00  0.00     0.054 A 
HETATM   17  C10 UNL     1      21.309   3.126  52.300  1.00  0.00     0.034 A 
HETATM   18  C11 UNL     1      20.656   2.655  51.198  1.00  0.00     0.048 A 
HETATM   19  C17 UNL     1      21.292   2.897  50.007  1.00  0.00     0.148 A 
HETATM   20  N5  UNL     1      22.459   3.542  49.905  1.00  0.00    -0.239 NA
BRANCH  18  21
HETATM   21  N3  UNL     1      19.419   1.958  51.209  1.00  0.00    -0.376 N 
HETATM   22  C12 UNL     1      18.147   2.501  50.806  1.00  0.00     0.153 C 
HETATM   23  C13 UNL     1      17.625   1.566  49.709  1.00  0.00     0.291 C 
HETATM   24  N4  UNL     1      17.221   0.375  50.389  1.00  0.00     0.087 N 
HETATM   25  C14 UNL     1      15.850   0.483  50.859  1.00  0.00     0.310 C 
HETATM   26  C15 UNL     1      18.115  -0.141  51.356  1.00  0.00     0.291 C 
HETATM   27  C16 UNL     1      19.354   0.609  51.642  1.00  0.00     0.153 C 
ENDBRANCH  18  21
ENDBRANCH   8  15
BRANCH   7  28
HETATM   28  O2  UNL     1      25.325   2.537  50.823  1.00  0.00    -0.092 OA
BRANCH  28  29
HETATM   29  O3  UNL     1      26.157   2.312  51.822  1.00  0.00    -0.225 OA
HETATM   30  H9  UNL     1      27.079   2.553  51.546  1.00  0.00     0.256 HD
ENDBRANCH  28  29
ENDBRANCH   7  28
BRANCH   1  31
HETATM   31  O1  UNL     1      29.467   9.661  48.601  1.00  0.00    -0.388 OA
HETATM   32  C1  UNL     1      30.820   9.594  48.986  1.00  0.00     0.202 C 
ENDBRANCH   1  31
TORSDOF 5
ENDMDL
MODEL 8
REMARK VINA RESULT:      -7.6      6.634      8.549
REMARK  5 active torsions:
REMARK  status: ('A' for Active; 'I' for Inactive)
REMARK    1  A    between atoms: O1_2  and  C2_3 
REMARK    2  A    between atoms: N1_9  and  O2_10 
REMARK    3  A    between atoms: O2_10  and  O3_11 
REMARK    4  A    between atoms: N2_12  and  C8_13 
REMARK    5  A    between atoms: C11_16  and  N3_17 
ROOT
HETATM    1  C2  UNL     1      14.219  -0.400  51.289  1.00  0.00     0.062 C 
HETATM    2  C3  UNL     1      14.212   0.595  50.402  1.00  0.00     0.103 C 
HETATM    3  C4  UNL     1      15.339   1.589  50.155  1.00  0.00    -0.012 C 
HETATM    4  C5  UNL     1      16.478   2.372  50.106  1.00  0.00     0.046 C 
HETATM    5  C6  UNL     1      17.436   1.855  51.141  1.00  0.00     0.000 C 
HETATM    6  C7  UNL     1      18.670   2.055  51.672  1.00  0.00     0.143 C 
HETATM    7  N1  UNL     1      19.699   1.683  52.615  1.00  0.00    -0.137 N 
HETATM    8  N2  UNL     1      19.869   0.444  53.208  1.00  0.00    -0.243 N 
HETATM    9  C18 UNL     1      19.030  -0.638  53.692  1.00  0.00     0.182 C 
HETATM   10  C19 UNL     1      18.236  -1.343  52.689  1.00  0.00     0.012 C 
HETATM   11  C20 UNL     1      16.978  -1.597  52.427  1.00  0.00     0.080 C 
HETATM   12  N6  UNL     1      15.670  -1.374  52.901  1.00  0.00    -0.397 N 
HETATM   13  C21 UNL     1      14.352  -1.486  52.324  1.00  0.00     0.151 C 
HETATM   14  H28 UNL     1      15.980  -1.091  53.850  1.00  0.00     0.158 HD
ENDROOT
BRANCH   8  15
HETATM   15  C8  UNL     1      21.305   0.239  53.339  1.00  0.00     0.146 A 
HETATM   16  C9  UNL     1      21.797  -0.448  54.428  1.00  0.00     0.054 A 
HETATM   17  C10 UNL     1      23.135  -0.706  54.636  1.00  0.00     0.034 A 
HETATM   18  C11 UNL     1      24.058  -0.271  53.730  1.00  0.00     0.048 A 
HETATM   19  C17 UNL     1      23.536   0.409  52.659  1.00  0.00     0.148 A 
HETATM   20  N5  UNL     1      22.230   0.641  52.492  1.00  0.00    -0.239 NA
BRANCH  18  21
HETATM   21  N3  UNL     1      25.462  -0.468  53.825  1.00  0.00    -0.376 N 
HETATM   22  C12 UNL     1      26.271  -1.207  52.890  1.00  0.00     0.153 C 
HETATM   23  C13 UNL     1      27.355  -0.231  52.417  1.00  0.00     0.291 C 
HETATM   24  N4  UNL     1      28.251  -0.099  53.523  1.00  0.00     0.087 N 
HETATM   25  C14 UNL     1      29.267  -1.138  53.499  1.00  0.00     0.310 C 
HETATM   26  C15 UNL     1      27.667   0.096  54.797  1.00  0.00     0.291 C 
HETATM   27  C16 UNL     1      26.195   0.081  54.908  1.00  0.00     0.153 C 
ENDBRANCH  18  21
ENDBRANCH   8  15
BRANCH   7  28
HETATM   28  O2  UNL     1      20.505   2.728  52.877  1.00  0.00    -0.092 OA
BRANCH  28  29
HETATM   29  O3  UNL     1      20.913   3.297  51.759  1.00  0.00    -0.225 OA
HETATM   30  H9  UNL     1      21.847   3.614  51.869  1.00  0.00     0.256 HD
ENDBRANCH  28  29
ENDBRANCH   7  28
BRANCH   1  31
HETATM   31  O1  UNL     1      12.933  -0.565  50.716  1.00  0.00    -0.388 OA
HETATM   32  C1  UNL     1      12.769  -0.972  49.378  1.00  0.00     0.202 C 
ENDBRANCH   1  31
TORSDOF 5
ENDMDL
MODEL 9
REMARK VINA RESULT:      -7.6      5.822      7.885
REMARK  5 active torsions:
REMARK  status: ('A' for Active; 'I' for Inactive)
REMARK    1  A    between atoms: O1_2  and  C2_3 
REMARK    2  A    between atoms: N1_9  and  O2_10 
REMARK    3  A    between atoms: O2_10  and  O3_11 
REMARK    4  A    between atoms: N2_12  and  C8_13 
REMARK    5  A    between atoms: C11_16  and  N3_17 
ROOT
HETATM    1  C2  UNL     1      15.178   1.811  50.047  1.00  0.00     0.062 C 
HETATM    2  C3  UNL     1      15.293   2.992  49.439  1.00  0.00     0.103 C 
HETATM    3  C4  UNL     1      16.499   3.920  49.494  1.00  0.00    -0.012 C 
HETATM    4  C5  UNL     1      17.691   4.594  49.688  1.00  0.00     0.046 C 
HETATM    5  C6  UNL     1      18.549   3.758  50.597  1.00  0.00     0.000 C 
HETATM    6  C7  UNL     1      19.760   3.718  51.209  1.00  0.00     0.143 C 
HETATM    7  N1  UNL     1      20.704   3.040  52.067  1.00  0.00    -0.137 N 
HETATM    8  N2  UNL     1      20.752   1.683  52.336  1.00  0.00    -0.243 N 
HETATM    9  C18 UNL     1      19.812   0.588  52.498  1.00  0.00     0.182 C 
HETATM   10  C19 UNL     1      19.030   0.222  51.321  1.00  0.00     0.012 C 
HETATM   11  C20 UNL     1      17.774   0.146  50.954  1.00  0.00     0.080 C 
HETATM   12  N6  UNL     1      16.460   0.352  51.418  1.00  0.00    -0.397 N 
HETATM   13  C21 UNL     1      15.174   0.495  50.780  1.00  0.00     0.151 C 
HETATM   14  H28 UNL     1      16.733   0.364  52.418  1.00  0.00     0.158 HD
ENDROOT
BRANCH   8  15
HETATM   15  C8  UNL     1      22.159   1.335  52.467  1.00  0.00     0.146 A 
HETATM   16  C9  UNL     1      22.539   0.378  53.384  1.00  0.00     0.054 A 
HETATM   17  C10 UNL     1      23.842  -0.033  53.573  1.00  0.00     0.034 A 
HETATM   18  C11 UNL     1      24.842   0.519  52.827  1.00  0.00     0.048 A 
HETATM   19  C17 UNL     1      24.430   1.467  51.926  1.00  0.00     0.148 A 
HETATM   20  N5  UNL     1      23.156   1.840  51.770  1.00  0.00    -0.239 NA
BRANCH  18  21
HETATM   21  N3  UNL     1      26.220   0.189  52.924  1.00  0.00    -0.376 N 
HETATM   22  C12 UNL     1      27.271   1.085  53.336  1.00  0.00     0.153 C 
HETATM   23  C13 UNL     1      27.956   0.400  54.525  1.00  0.00     0.291 C 
HETATM   24  N4  UNL     1      28.709  -0.675  53.958  1.00  0.00     0.087 N 
HETATM   25  C14 UNL     1      30.026  -0.226  53.540  1.00  0.00     0.310 C 
HETATM   26  C15 UNL     1      28.049  -1.478  52.997  1.00  0.00     0.291 C 
HETATM   27  C16 UNL     1      26.674  -1.115  52.600  1.00  0.00     0.153 C 
ENDBRANCH  18  21
ENDBRANCH   8  15
BRANCH   7  28
HETATM   28  O2  UNL     1      21.565   3.917  52.615  1.00  0.00    -0.092 OA
BRANCH  28  29
HETATM   29  O3  UNL     1      21.974   4.794  51.719  1.00  0.00    -0.225 OA
HETATM   30  H9  UNL     1      22.156   5.662  52.163  1.00  0.00     0.256 HD
ENDBRANCH  28  29
ENDBRANCH   7  28
BRANCH   1  31
HETATM   31  O1  UNL     1      13.920   1.901  49.401  1.00  0.00    -0.388 OA
HETATM   32  C1  UNL     1      12.944   2.829  49.812  1.00  0.00     0.202 C 
ENDBRANCH   1  31
TORSDOF 5
ENDMDL
