MODEL 1
REMARK VINA RESULT:      -9.0      0.000      0.000
REMARK  6 active torsions:
REMARK  status: ('A' for Active; 'I' for Inactive)
REMARK    1  A    between atoms: O1_2  and  C2_3 
REMARK    2  A    between atoms: C9_12  and  O2_13 
REMARK    3  A    between atoms: N3_17  and  C13_18 
REMARK    4  A    between atoms: C13_18  and  N4_20 
REMARK    5  A    between atoms: N4_20  and  C14_21 
REMARK    6  A    between atoms: C14_21  and  C15_22 
ROOT
HETATM    1  C2  UNL     1      25.784  -0.576  53.453  1.00  0.00     0.104 A 
HETATM    2  C3  UNL     1      24.697  -1.126  54.096  1.00  0.00     0.072 A 
HETATM    3  C4  UNL     1      23.460  -0.529  53.963  1.00  0.00     0.075 A 
HETATM    4  N1  UNL     1      22.484  -1.184  54.655  1.00  0.00    -0.241 NA
HETATM    5  C5  UNL     1      21.236  -0.723  54.622  1.00  0.00     0.236 A 
HETATM    6  N2  UNL     1      20.928   0.364  53.927  1.00  0.00    -0.224 NA
HETATM    7  C6  UNL     1      21.893   1.031  53.230  1.00  0.00     0.139 A 
HETATM    8  C7  UNL     1      23.230   0.609  53.214  1.00  0.00     0.048 A 
HETATM    9  C8  UNL     1      24.326   1.153  52.574  1.00  0.00    -0.004 A 
HETATM   10  C9  UNL     1      25.559   0.552  52.709  1.00  0.00     0.108 A 
HETATM   11  C11 UNL     1      24.623   2.328  51.676  1.00  0.00     0.062 C 
HETATM   12  C12 UNL     1      23.942   3.580  52.242  1.00  0.00     0.132 C 
HETATM   13  N3  UNL     1      22.635   3.685  51.663  1.00  0.00    -0.342 N 
HETATM   14  C22 UNL     1      21.342   3.089  51.654  1.00  0.00     0.250 C 
HETATM   15  N5  UNL     1      21.110   2.098  52.658  1.00  0.00    -0.358 N 
HETATM   16  H23 UNL     1      20.150   2.174  53.066  1.00  0.00     0.162 HD
ENDROOT
BRANCH  13  17
HETATM   17  C13 UNL     1      22.650   4.795  50.776  1.00  0.00     0.171 C 
HETATM   18  S1  UNL     1      21.279   5.538  50.238  1.00  0.00    -0.041 SA
BRANCH  17  19
HETATM   19  N4  UNL     1      23.444   5.678  50.039  1.00  0.00    -0.363 N 
HETATM   20  H13 UNL     1      23.967   5.947  50.922  1.00  0.00     0.162 HD
BRANCH  19  21
HETATM   21  C14 UNL     1      23.932   6.381  48.902  1.00  0.00     0.160 C 
BRANCH  21  22
HETATM   22  C15 UNL     1      25.373   6.066  48.724  1.00  0.00    -0.038 A 
HETATM   23  C16 UNL     1      25.831   4.805  49.126  1.00  0.00     0.012 A 
HETATM   24  C17 UNL     1      27.127   4.358  49.041  1.00  0.00     0.040 A 
HETATM   25  C18 UNL     1      28.064   5.205  48.520  1.00  0.00     0.105 A 
HETATM   26  C19 UNL     1      27.661   6.451  48.112  1.00  0.00     0.105 A 
HETATM   27  O4  UNL     1      29.429   5.121  48.278  1.00  0.00    -0.323 OA
HETATM   28  C20 UNL     1      26.354   6.879  48.208  1.00  0.00     0.048 A 
HETATM   29  O3  UNL     1      28.746   7.167  47.613  1.00  0.00    -0.323 OA
HETATM   30  C21 UNL     1      29.909   6.443  48.008  1.00  0.00     0.352 C 
ENDBRANCH  21  22
ENDBRANCH  19  21
ENDBRANCH  17  19
ENDBRANCH  13  17
BRANCH  10  31
HETATM   31  O2  UNL     1      26.676   1.107  52.055  1.00  0.00    -0.353 OA
HETATM   32  C10 UNL     1      27.534   1.898  52.871  1.00  0.00     0.210 C 
ENDBRANCH  10  31
BRANCH   1  33
HETATM   33  O1  UNL     1      27.056  -1.126  53.543  1.00  0.00    -0.353 OA
HETATM   34  C1  UNL     1      27.336  -2.235  52.708  1.00  0.00     0.210 C 
ENDBRANCH   1  33
TORSDOF 6
ENDMDL
MODEL 2
REMARK VINA RESULT:      -8.7      2.454      3.861
REMARK  6 active torsions:
REMARK  status: ('A' for Active; 'I' for Inactive)
REMARK    1  A    between atoms: O1_2  and  C2_3 
REMARK    2  A    between atoms: C9_12  and  O2_13 
REMARK    3  A    between atoms: N3_17  and  C13_18 
REMARK    4  A    between atoms: C13_18  and  N4_20 
REMARK    5  A    between atoms: N4_20  and  C14_21 
REMARK    6  A    between atoms: C14_21  and  C15_22 
ROOT
HETATM    1  C2  UNL     1      22.453   0.012  53.897  1.00  0.00     0.104 A 
HETATM    2  C3  UNL     1      23.612  -0.715  54.066  1.00  0.00     0.072 A 
HETATM    3  C4  UNL     1      24.763  -0.308  53.421  1.00  0.00     0.075 A 
HETATM    4  N1  UNL     1      25.825  -1.123  53.682  1.00  0.00    -0.241 NA
HETATM    5  C5  UNL     1      27.006  -0.856  53.128  1.00  0.00     0.236 A 
HETATM    6  N2  UNL     1      27.164   0.190  52.327  1.00  0.00    -0.224 NA
HETATM    7  C6  UNL     1      26.110   1.014  52.056  1.00  0.00     0.139 A 
HETATM    8  C7  UNL     1      24.836   0.801  52.600  1.00  0.00     0.048 A 
HETATM    9  C8  UNL     1      23.669   1.521  52.438  1.00  0.00    -0.004 A 
HETATM   10  C9  UNL     1      22.522   1.112  53.085  1.00  0.00     0.108 A 
HETATM   11  C11 UNL     1      23.211   2.749  51.692  1.00  0.00     0.062 C 
HETATM   12  C12 UNL     1      23.743   2.694  50.254  1.00  0.00     0.132 C 
HETATM   13  N3  UNL     1      25.016   3.352  50.216  1.00  0.00    -0.342 N 
HETATM   14  C22 UNL     1      26.372   3.233  50.633  1.00  0.00     0.250 C 
HETATM   15  N5  UNL     1      26.744   1.965  51.178  1.00  0.00    -0.358 N 
HETATM   16  H23 UNL     1      27.695   1.668  50.860  1.00  0.00     0.162 HD
ENDROOT
BRANCH  13  17
HETATM   17  C13 UNL     1      24.846   4.565  49.497  1.00  0.00     0.171 C 
HETATM   18  S1  UNL     1      23.486   4.917  48.630  1.00  0.00    -0.041 SA
BRANCH  17  19
HETATM   19  N4  UNL     1      25.415   5.791  49.143  1.00  0.00    -0.363 N 
HETATM   20  H13 UNL     1      25.464   6.066  50.166  1.00  0.00     0.162 HD
BRANCH  19  21
HETATM   21  C14 UNL     1      25.928   6.814  48.297  1.00  0.00     0.160 C 
BRANCH  21  22
HETATM   22  C15 UNL     1      27.412   6.798  48.365  1.00  0.00    -0.038 A 
HETATM   23  C16 UNL     1      28.078   8.011  48.581  1.00  0.00     0.012 A 
HETATM   24  C17 UNL     1      29.440   8.174  48.660  1.00  0.00     0.040 A 
HETATM   25  C18 UNL     1      30.227   7.066  48.520  1.00  0.00     0.105 A 
HETATM   26  C19 UNL     1      29.618   5.857  48.307  1.00  0.00     0.105 A 
HETATM   27  O4  UNL     1      31.596   6.833  48.538  1.00  0.00    -0.323 OA
HETATM   28  C20 UNL     1      28.248   5.716  48.230  1.00  0.00     0.048 A 
HETATM   29  O3  UNL     1      30.574   4.852  48.189  1.00  0.00    -0.323 OA
HETATM   30  C21 UNL     1      31.824   5.516  48.022  1.00  0.00     0.352 C 
ENDBRANCH  21  22
ENDBRANCH  19  21
ENDBRANCH  17  19
ENDBRANCH  13  17
BRANCH  10  31
HETATM   31  O2  UNL     1      21.334   1.847  52.919  1.00  0.00    -0.353 OA
HETATM   32  C10 UNL     1      20.429   1.341  51.942  1.00  0.00     0.210 C 
ENDBRANCH  10  31
BRANCH   1  33
HETATM   33  O1  UNL     1      21.261  -0.341  54.517  1.00  0.00    -0.353 OA
HETATM   34  C1  UNL     1      20.743  -1.626  54.227  1.00  0.00     0.210 C 
ENDBRANCH   1  33
TORSDOF 6
ENDMDL
MODEL 3
REMARK VINA RESULT:      -8.5      5.461      8.824
REMARK  6 active torsions:
REMARK  status: ('A' for Active; 'I' for Inactive)
REMARK    1  A    between atoms: O1_2  and  C2_3 
REMARK    2  A    between atoms: C9_12  and  O2_13 
REMARK    3  A    between atoms: N3_17  and  C13_18 
REMARK    4  A    between atoms: C13_18  and  N4_20 
REMARK    5  A    between atoms: N4_20  and  C14_21 
REMARK    6  A    between atoms: C14_21  and  C15_22 
ROOT
HETATM    1  C2  UNL     1      24.407   1.247  51.907  1.00  0.00     0.104 A 
HETATM    2  C3  UNL     1      24.831   0.568  53.028  1.00  0.00     0.072 A 
HETATM    3  C4  UNL     1      23.921  -0.177  53.750  1.00  0.00     0.075 A 
HETATM    4  N1  UNL     1      24.485  -0.791  54.830  1.00  0.00    -0.241 NA
HETATM    5  C5  UNL     1      23.728  -1.546  55.623  1.00  0.00     0.236 A 
HETATM    6  N2  UNL     1      22.435  -1.709  55.380  1.00  0.00    -0.224 NA
HETATM    7  C6  UNL     1      21.855  -1.101  54.304  1.00  0.00     0.139 A 
HETATM    8  C7  UNL     1      22.584  -0.291  53.421  1.00  0.00     0.048 A 
HETATM    9  C8  UNL     1      22.169   0.394  52.296  1.00  0.00    -0.004 A 
HETATM   10  C9  UNL     1      23.082   1.135  51.577  1.00  0.00     0.108 A 
HETATM   11  C11 UNL     1      20.889   0.604  51.528  1.00  0.00     0.062 C 
HETATM   12  C12 UNL     1      19.754   0.911  52.513  1.00  0.00     0.132 C 
HETATM   13  N3  UNL     1      19.130  -0.325  52.884  1.00  0.00    -0.342 N 
HETATM   14  C22 UNL     1      19.331  -1.527  53.621  1.00  0.00     0.250 C 
HETATM   15  N5  UNL     1      20.495  -1.557  54.449  1.00  0.00    -0.358 N 
HETATM   16  H23 UNL     1      20.307  -2.017  55.369  1.00  0.00     0.162 HD
ENDROOT
BRANCH  13  17
HETATM   17  C13 UNL     1      17.838  -0.343  52.292  1.00  0.00     0.171 C 
HETATM   18  S1  UNL     1      16.697  -1.481  52.652  1.00  0.00    -0.041 SA
BRANCH  17  19
HETATM   19  N4  UNL     1      16.965   0.279  51.396  1.00  0.00    -0.363 N 
HETATM   20  H13 UNL     1      16.449  -0.638  51.259  1.00  0.00     0.162 HD
BRANCH  19  21
HETATM   21  C14 UNL     1      16.398   1.324  50.615  1.00  0.00     0.160 C 
BRANCH  21  22
HETATM   22  C15 UNL     1      15.614   2.220  51.504  1.00  0.00    -0.038 A 
HETATM   23  C16 UNL     1      16.218   3.401  51.952  1.00  0.00     0.012 A 
HETATM   24  C17 UNL     1      15.640   4.332  52.782  1.00  0.00     0.040 A 
HETATM   25  C18 UNL     1      14.367   4.099  53.217  1.00  0.00     0.105 A 
HETATM   26  C19 UNL     1      13.736   2.954  52.804  1.00  0.00     0.105 A 
HETATM   27  O4  UNL     1      13.476   4.779  54.037  1.00  0.00    -0.323 OA
HETATM   28  C20 UNL     1      14.335   2.033  51.970  1.00  0.00     0.048 A 
HETATM   29  O3  UNL     1      12.455   2.889  53.345  1.00  0.00    -0.323 OA
HETATM   30  C21 UNL     1      12.411   3.881  54.368  1.00  0.00     0.352 C 
ENDBRANCH  21  22
ENDBRANCH  19  21
ENDBRANCH  17  19
ENDBRANCH  13  17
BRANCH  10  31
HETATM   31  O2  UNL     1      22.658   1.833  50.431  1.00  0.00    -0.353 OA
HETATM   32  C10 UNL     1      22.486   3.237  50.595  1.00  0.00     0.210 C 
ENDBRANCH  10  31
BRANCH   1  33
HETATM   33  O1  UNL     1      25.270   2.014  51.134  1.00  0.00    -0.353 OA
HETATM   34  C1  UNL     1      26.645   1.959  51.463  1.00  0.00     0.210 C 
ENDBRANCH   1  33
TORSDOF 6
ENDMDL
MODEL 4
REMARK VINA RESULT:      -8.3      5.222      8.412
REMARK  6 active torsions:
REMARK  status: ('A' for Active; 'I' for Inactive)
REMARK    1  A    between atoms: O1_2  and  C2_3 
REMARK    2  A    between atoms: C9_12  and  O2_13 
REMARK    3  A    between atoms: N3_17  and  C13_18 
REMARK    4  A    between atoms: C13_18  and  N4_20 
REMARK    5  A    between atoms: N4_20  and  C14_21 
REMARK    6  A    between atoms: C14_21  and  C15_22 
ROOT
HETATM    1  C2  UNL     1      25.709   0.966  52.539  1.00  0.00     0.104 A 
HETATM    2  C3  UNL     1      25.656   0.124  53.628  1.00  0.00     0.072 A 
HETATM    3  C4  UNL     1      24.430  -0.324  54.076  1.00  0.00     0.075 A 
HETATM    4  N1  UNL     1      24.536  -1.147  55.159  1.00  0.00    -0.241 NA
HETATM    5  C5  UNL     1      23.434  -1.658  55.704  1.00  0.00     0.236 A 
HETATM    6  N2  UNL     1      22.235  -1.378  55.209  1.00  0.00    -0.224 NA
HETATM    7  C6  UNL     1      22.112  -0.556  54.127  1.00  0.00     0.139 A 
HETATM    8  C7  UNL     1      23.224   0.022  53.497  1.00  0.00     0.048 A 
HETATM    9  C8  UNL     1      23.288   0.866  52.406  1.00  0.00    -0.004 A 
HETATM   10  C9  UNL     1      24.515   1.309  51.961  1.00  0.00     0.108 A 
HETATM   11  C11 UNL     1      22.328   1.524  51.448  1.00  0.00     0.062 C 
HETATM   12  C12 UNL     1      21.160   2.128  52.238  1.00  0.00     0.132 C 
HETATM   13  N3  UNL     1      20.123   1.143  52.337  1.00  0.00    -0.342 N 
HETATM   14  C22 UNL     1      19.784  -0.098  52.947  1.00  0.00     0.250 C 
HETATM   15  N5  UNL     1      20.679  -0.552  53.965  1.00  0.00    -0.358 N 
HETATM   16  H23 UNL     1      20.169  -0.976  54.772  1.00  0.00     0.162 HD
ENDROOT
BRANCH  13  17
HETATM   17  C13 UNL     1      19.044   1.579  51.521  1.00  0.00     0.171 C 
HETATM   18  S1  UNL     1      18.468   0.705  50.245  1.00  0.00    -0.041 SA
BRANCH  17  19
HETATM   19  N4  UNL     1      18.103   2.584  51.285  1.00  0.00    -0.363 N 
HETATM   20  H13 UNL     1      17.671   2.000  50.512  1.00  0.00     0.162 HD
BRANCH  19  21
HETATM   21  C14 UNL     1      17.428   3.826  51.447  1.00  0.00     0.160 C 
BRANCH  21  22
HETATM   22  C15 UNL     1      16.103   3.578  52.071  1.00  0.00    -0.038 A 
HETATM   23  C16 UNL     1      15.423   2.401  51.736  1.00  0.00     0.012 A 
HETATM   24  C17 UNL     1      14.191   2.023  52.212  1.00  0.00     0.040 A 
HETATM   25  C18 UNL     1      13.561   2.857  53.091  1.00  0.00     0.105 A 
HETATM   26  C19 UNL     1      14.189   4.022  53.448  1.00  0.00     0.105 A 
HETATM   27  O4  UNL     1      12.350   2.826  53.769  1.00  0.00    -0.323 OA
HETATM   28  C20 UNL     1      15.426   4.382  52.957  1.00  0.00     0.048 A 
HETATM   29  O3  UNL     1      13.400   4.738  54.345  1.00  0.00    -0.323 OA
HETATM   30  C21 UNL     1      12.110   4.134  54.301  1.00  0.00     0.352 C 
ENDBRANCH  21  22
ENDBRANCH  19  21
ENDBRANCH  17  19
ENDBRANCH  13  17
BRANCH  10  31
HETATM   31  O2  UNL     1      24.580   2.170  50.849  1.00  0.00    -0.353 OA
HETATM   32  C10 UNL     1      24.775   3.548  51.150  1.00  0.00     0.210 C 
ENDBRANCH  10  31
BRANCH   1  33
HETATM   33  O1  UNL     1      26.908   1.452  52.036  1.00  0.00    -0.353 OA
HETATM   34  C1  UNL     1      27.861   1.909  52.978  1.00  0.00     0.210 C 
ENDBRANCH   1  33
TORSDOF 6
ENDMDL
MODEL 5
REMARK VINA RESULT:      -8.2      3.728      6.285
REMARK  6 active torsions:
REMARK  status: ('A' for Active; 'I' for Inactive)
REMARK    1  A    between atoms: O1_2  and  C2_3 
REMARK    2  A    between atoms: C9_12  and  O2_13 
REMARK    3  A    between atoms: N3_17  and  C13_18 
REMARK    4  A    between atoms: C13_18  and  N4_20 
REMARK    5  A    between atoms: N4_20  and  C14_21 
REMARK    6  A    between atoms: C14_21  and  C15_22 
ROOT
HETATM    1  C2  UNL     1      18.867   1.484  49.753  1.00  0.00     0.104 A 
HETATM    2  C3  UNL     1      17.805   0.767  50.259  1.00  0.00     0.072 A 
HETATM    3  C4  UNL     1      17.989  -0.006  51.387  1.00  0.00     0.075 A 
HETATM    4  N1  UNL     1      16.853  -0.656  51.769  1.00  0.00    -0.241 NA
HETATM    5  C5  UNL     1      16.877  -1.442  52.843  1.00  0.00     0.236 A 
HETATM    6  N2  UNL     1      17.990  -1.602  53.547  1.00  0.00    -0.224 NA
HETATM    7  C6  UNL     1      19.136  -0.959  53.177  1.00  0.00     0.139 A 
HETATM    8  C7  UNL     1      19.192  -0.115  52.059  1.00  0.00     0.048 A 
HETATM    9  C8  UNL     1      20.250   0.607  51.544  1.00  0.00    -0.004 A 
HETATM   10  C9  UNL     1      20.060   1.379  50.417  1.00  0.00     0.108 A 
HETATM   11  C11 UNL     1      21.704   0.838  51.866  1.00  0.00     0.062 C 
HETATM   12  C12 UNL     1      22.372  -0.508  52.178  1.00  0.00     0.132 C 
HETATM   13  N3  UNL     1      22.272  -0.746  53.587  1.00  0.00    -0.342 N 
HETATM   14  C22 UNL     1      21.351  -1.057  54.628  1.00  0.00     0.250 C 
HETATM   15  N5  UNL     1      20.037  -1.425  54.202  1.00  0.00    -0.358 N 
HETATM   16  H23 UNL     1      19.649  -2.212  54.770  1.00  0.00     0.162 HD
ENDROOT
BRANCH  13  17
HETATM   17  C13 UNL     1      23.579  -0.624  54.133  1.00  0.00     0.171 C 
HETATM   18  S1  UNL     1      24.016  -1.282  55.582  1.00  0.00    -0.041 SA
BRANCH  17  19
HETATM   19  N4  UNL     1      24.865  -0.110  53.954  1.00  0.00    -0.363 N 
HETATM   20  H13 UNL     1      25.215  -0.701  54.762  1.00  0.00     0.162 HD
BRANCH  19  21
HETATM   21  C14 UNL     1      25.908   0.671  53.381  1.00  0.00     0.160 C 
BRANCH  21  22
HETATM   22  C15 UNL     1      25.305   1.800  52.626  1.00  0.00    -0.038 A 
HETATM   23  C16 UNL     1      24.544   2.738  53.334  1.00  0.00     0.012 A 
HETATM   24  C17 UNL     1      23.912   3.831  52.791  1.00  0.00     0.040 A 
HETATM   25  C18 UNL     1      24.028   4.035  51.445  1.00  0.00     0.105 A 
HETATM   26  C19 UNL     1      24.764   3.141  50.711  1.00  0.00     0.105 A 
HETATM   27  O4  UNL     1      23.552   4.992  50.558  1.00  0.00    -0.323 OA
HETATM   28  C20 UNL     1      25.389   2.050  51.277  1.00  0.00     0.048 A 
HETATM   29  O3  UNL     1      24.768   3.509  49.369  1.00  0.00    -0.323 OA
HETATM   30  C21 UNL     1      23.748   4.495  49.229  1.00  0.00     0.352 C 
ENDBRANCH  21  22
ENDBRANCH  19  21
ENDBRANCH  17  19
ENDBRANCH  13  17
BRANCH  10  31
HETATM   31  O2  UNL     1      21.138   2.116  49.892  1.00  0.00    -0.353 OA
HETATM   32  C10 UNL     1      21.767   1.552  48.745  1.00  0.00     0.210 C 
ENDBRANCH  10  31
BRANCH   1  33
HETATM   33  O1  UNL     1      18.750   2.283  48.623  1.00  0.00    -0.353 OA
HETATM   34  C1  UNL     1      18.057   3.509  48.772  1.00  0.00     0.210 C 
ENDBRANCH   1  33
TORSDOF 6
ENDMDL
MODEL 6
REMARK VINA RESULT:      -8.1      3.575      6.898
REMARK  6 active torsions:
REMARK  status: ('A' for Active; 'I' for Inactive)
REMARK    1  A    between atoms: O1_2  and  C2_3 
REMARK    2  A    between atoms: C9_12  and  O2_13 
REMARK    3  A    between atoms: N3_17  and  C13_18 
REMARK    4  A    between atoms: C13_18  and  N4_20 
REMARK    5  A    between atoms: N4_20  and  C14_21 
REMARK    6  A    between atoms: C14_21  and  C15_22 
ROOT
HETATM    1  C2  UNL     1      25.658   3.553  49.987  1.00  0.00     0.104 A 
HETATM    2  C3  UNL     1      26.793   3.233  50.700  1.00  0.00     0.072 A 
HETATM    3  C4  UNL     1      26.710   2.305  51.719  1.00  0.00     0.075 A 
HETATM    4  N1  UNL     1      27.909   2.091  52.332  1.00  0.00    -0.241 NA
HETATM    5  C5  UNL     1      27.986   1.221  53.336  1.00  0.00     0.236 A 
HETATM    6  N2  UNL     1      26.913   0.559  53.749  1.00  0.00    -0.224 NA
HETATM    7  C6  UNL     1      25.705   0.763  53.147  1.00  0.00     0.139 A 
HETATM    8  C7  UNL     1      25.542   1.662  52.083  1.00  0.00     0.048 A 
HETATM    9  C8  UNL     1      24.411   1.991  51.363  1.00  0.00    -0.004 A 
HETATM   10  C9  UNL     1      24.499   2.917  50.345  1.00  0.00     0.108 A 
HETATM   11  C11 UNL     1      22.952   1.610  51.343  1.00  0.00     0.062 C 
HETATM   12  C12 UNL     1      22.413   1.601  52.779  1.00  0.00     0.132 C 
HETATM   13  N3  UNL     1      22.576   0.282  53.315  1.00  0.00    -0.342 N 
HETATM   14  C22 UNL     1      23.552  -0.652  53.766  1.00  0.00     0.250 C 
HETATM   15  N5  UNL     1      24.879  -0.141  53.909  1.00  0.00    -0.358 N 
HETATM   16  H23 UNL     1      25.350  -0.513  54.764  1.00  0.00     0.162 HD
ENDROOT
BRANCH  13  17
HETATM   17  C13 UNL     1      21.282  -0.291  53.437  1.00  0.00     0.171 C 
HETATM   18  S1  UNL     1      20.976  -1.649  54.324  1.00  0.00    -0.041 SA
BRANCH  17  19
HETATM   19  N4  UNL     1      19.934  -0.195  53.080  1.00  0.00    -0.363 N 
HETATM   20  H13 UNL     1      19.661  -0.200  54.105  1.00  0.00     0.162 HD
BRANCH  19  21
HETATM   21  C14 UNL     1      18.796  -0.103  52.230  1.00  0.00     0.160 C 
BRANCH  21  22
HETATM   22  C15 UNL     1      18.998   1.014  51.272  1.00  0.00    -0.038 A 
HETATM   23  C16 UNL     1      18.443   2.261  51.583  1.00  0.00     0.012 A 
HETATM   24  C17 UNL     1      18.527   3.392  50.807  1.00  0.00     0.040 A 
HETATM   25  C18 UNL     1      19.208   3.309  49.626  1.00  0.00     0.105 A 
HETATM   26  C19 UNL     1      19.769   2.106  49.280  1.00  0.00     0.105 A 
HETATM   27  O4  UNL     1      19.502   4.201  48.603  1.00  0.00    -0.323 OA
HETATM   28  C20 UNL     1      19.672   0.984  50.075  1.00  0.00     0.048 A 
HETATM   29  O3  UNL     1      20.417   2.214  48.053  1.00  0.00    -0.323 OA
HETATM   30  C21 UNL     1      19.980   3.446  47.485  1.00  0.00     0.352 C 
ENDBRANCH  21  22
ENDBRANCH  19  21
ENDBRANCH  17  19
ENDBRANCH  13  17
BRANCH  10  31
HETATM   31  O2  UNL     1      23.346   3.251  49.612  1.00  0.00    -0.353 OA
HETATM   32  C10 UNL     1      22.717   4.476  49.979  1.00  0.00     0.210 C 
ENDBRANCH  10  31
BRANCH   1  33
HETATM   33  O1  UNL     1      25.671   4.477  48.950  1.00  0.00    -0.353 OA
HETATM   34  C1  UNL     1      26.366   5.689  49.179  1.00  0.00     0.210 C 
ENDBRANCH   1  33
TORSDOF 6
ENDMDL
MODEL 7
REMARK VINA RESULT:      -8.0      2.779      8.848
REMARK  6 active torsions:
REMARK  status: ('A' for Active; 'I' for Inactive)
REMARK    1  A    between atoms: O1_2  and  C2_3 
REMARK    2  A    between atoms: C9_12  and  O2_13 
REMARK    3  A    between atoms: N3_17  and  C13_18 
REMARK    4  A    between atoms: C13_18  and  N4_20 
REMARK    5  A    between atoms: N4_20  and  C14_21 
REMARK    6  A    between atoms: C14_21  and  C15_22 
ROOT
HETATM    1  C2  UNL     1      25.398   9.114  46.822  1.00  0.00     0.104 A 
HETATM    2  C3  UNL     1      26.740   8.867  46.630  1.00  0.00     0.072 A 
HETATM    3  C4  UNL     1      27.323   7.783  47.254  1.00  0.00     0.075 A 
HETATM    4  N1  UNL     1      28.652   7.667  46.972  1.00  0.00    -0.241 NA
HETATM    5  C5  UNL     1      29.350   6.667  47.504  1.00  0.00     0.236 A 
HETATM    6  N2  UNL     1      28.772   5.781  48.306  1.00  0.00    -0.224 NA
HETATM    7  C6  UNL     1      27.443   5.884  48.599  1.00  0.00     0.139 A 
HETATM    8  C7  UNL     1      26.640   6.909  48.078  1.00  0.00     0.048 A 
HETATM    9  C8  UNL     1      25.296   7.165  48.264  1.00  0.00    -0.004 A 
HETATM   10  C9  UNL     1      24.718   8.249  47.637  1.00  0.00     0.108 A 
HETATM   11  C11 UNL     1      24.140   6.562  49.022  1.00  0.00     0.062 C 
HETATM   12  C12 UNL     1      24.592   6.230  50.450  1.00  0.00     0.132 C 
HETATM   13  N3  UNL     1      25.085   4.884  50.466  1.00  0.00    -0.342 N 
HETATM   14  C22 UNL     1      26.157   4.058  50.024  1.00  0.00     0.250 C 
HETATM   15  N5  UNL     1      27.280   4.746  49.469  1.00  0.00    -0.358 N 
HETATM   16  H23 UNL     1      28.186   4.319  49.768  1.00  0.00     0.162 HD
ENDROOT
BRANCH  13  17
HETATM   17  C13 UNL     1      24.151   4.098  51.193  1.00  0.00     0.171 C 
HETATM   18  S1  UNL     1      22.909   4.748  52.065  1.00  0.00    -0.041 SA
BRANCH  17  19
HETATM   19  N4  UNL     1      23.755   2.807  51.553  1.00  0.00    -0.363 N 
HETATM   20  H13 UNL     1      23.005   3.211  52.185  1.00  0.00     0.162 HD
BRANCH  19  21
HETATM   21  C14 UNL     1      23.756   1.384  51.579  1.00  0.00     0.160 C 
BRANCH  21  22
HETATM   22  C15 UNL     1      24.861   0.918  52.456  1.00  0.00    -0.038 A 
HETATM   23  C16 UNL     1      24.545   0.067  53.523  1.00  0.00     0.012 A 
HETATM   24  C17 UNL     1      25.440  -0.446  54.431  1.00  0.00     0.040 A 
HETATM   25  C18 UNL     1      26.756  -0.106  54.295  1.00  0.00     0.105 A 
HETATM   26  C19 UNL     1      27.112   0.726  53.264  1.00  0.00     0.105 A 
HETATM   27  O4  UNL     1      27.920  -0.411  54.989  1.00  0.00    -0.323 OA
HETATM   28  C20 UNL     1      26.196   1.229  52.364  1.00  0.00     0.048 A 
HETATM   29  O3  UNL     1      28.484   0.958  53.286  1.00  0.00    -0.323 OA
HETATM   30  C21 UNL     1      28.940   0.495  54.555  1.00  0.00     0.352 C 
ENDBRANCH  21  22
ENDBRANCH  19  21
ENDBRANCH  17  19
ENDBRANCH  13  17
BRANCH  10  31
HETATM   31  O2  UNL     1      23.348   8.509  47.826  1.00  0.00    -0.353 OA
HETATM   32  C10 UNL     1      22.489   8.077  46.776  1.00  0.00     0.210 C 
ENDBRANCH  10  31
BRANCH   1  33
HETATM   33  O1  UNL     1      24.749  10.186  46.223  1.00  0.00    -0.353 OA
HETATM   34  C1  UNL     1      24.830  10.278  44.812  1.00  0.00     0.210 C 
ENDBRANCH   1  33
TORSDOF 6
ENDMDL
MODEL 8
REMARK VINA RESULT:      -8.0      3.510      9.297
REMARK  6 active torsions:
REMARK  status: ('A' for Active; 'I' for Inactive)
REMARK    1  A    between atoms: O1_2  and  C2_3 
REMARK    2  A    between atoms: C9_12  and  O2_13 
REMARK    3  A    between atoms: N3_17  and  C13_18 
REMARK    4  A    between atoms: C13_18  and  N4_20 
REMARK    5  A    between atoms: N4_20  and  C14_21 
REMARK    6  A    between atoms: C14_21  and  C15_22 
ROOT
HETATM    1  C2  UNL     1      32.893   6.672  48.124  1.00  0.00     0.104 A 
HETATM    2  C3  UNL     1      32.916   8.049  48.120  1.00  0.00     0.072 A 
HETATM    3  C4  UNL     1      31.739   8.744  48.316  1.00  0.00     0.075 A 
HETATM    4  N1  UNL     1      31.917  10.096  48.285  1.00  0.00    -0.241 NA
HETATM    5  C5  UNL     1      30.869  10.898  48.460  1.00  0.00     0.236 A 
HETATM    6  N2  UNL     1      29.656  10.402  48.663  1.00  0.00    -0.224 NA
HETATM    7  C6  UNL     1      29.461   9.052  48.696  1.00  0.00     0.139 A 
HETATM    8  C7  UNL     1      30.513   8.141  48.521  1.00  0.00     0.048 A 
HETATM    9  C8  UNL     1      30.502   6.760  48.523  1.00  0.00    -0.004 A 
HETATM   10  C9  UNL     1      31.680   6.071  48.328  1.00  0.00     0.108 A 
HETATM   11  C11 UNL     1      29.491   5.654  48.692  1.00  0.00     0.062 C 
HETATM   12  C12 UNL     1      28.250   5.971  47.849  1.00  0.00     0.132 C 
HETATM   13  N3  UNL     1      27.327   6.708  48.662  1.00  0.00    -0.342 N 
HETATM   14  C22 UNL     1      27.118   7.968  49.292  1.00  0.00     0.250 C 
HETATM   15  N5  UNL     1      28.040   9.000  48.934  1.00  0.00    -0.358 N 
HETATM   16  H23 UNL     1      27.566   9.924  48.821  1.00  0.00     0.162 HD
ENDROOT
BRANCH  13  17
HETATM   17  C13 UNL     1      26.221   5.856  48.929  1.00  0.00     0.171 C 
HETATM   18  S1  UNL     1      24.651   6.339  48.766  1.00  0.00    -0.041 SA
BRANCH  17  19
HETATM   19  N4  UNL     1      25.810   4.584  49.332  1.00  0.00    -0.363 N 
HETATM   20  H13 UNL     1      26.778   4.203  49.121  1.00  0.00     0.162 HD
BRANCH  19  21
HETATM   21  C14 UNL     1      24.939   3.569  49.818  1.00  0.00     0.160 C 
BRANCH  21  22
HETATM   22  C15 UNL     1      25.523   2.981  51.051  1.00  0.00    -0.038 A 
HETATM   23  C16 UNL     1      24.722   2.917  52.198  1.00  0.00     0.012 A 
HETATM   24  C17 UNL     1      25.107   2.415  53.418  1.00  0.00     0.040 A 
HETATM   25  C18 UNL     1      26.379   1.932  53.539  1.00  0.00     0.105 A 
HETATM   26  C19 UNL     1      27.199   1.975  52.441  1.00  0.00     0.105 A 
HETATM   27  O4  UNL     1      27.113   1.364  54.572  1.00  0.00    -0.323 OA
HETATM   28  C20 UNL     1      26.792   2.484  51.227  1.00  0.00     0.048 A 
HETATM   29  O3  UNL     1      28.447   1.442  52.754  1.00  0.00    -0.323 OA
HETATM   30  C21 UNL     1      28.489   1.348  54.176  1.00  0.00     0.352 C 
ENDBRANCH  21  22
ENDBRANCH  19  21
ENDBRANCH  17  19
ENDBRANCH  13  17
BRANCH  10  31
HETATM   31  O2  UNL     1      31.668   4.664  48.331  1.00  0.00    -0.353 OA
HETATM   32  C10 UNL     1      31.842   4.045  47.060  1.00  0.00     0.210 C 
ENDBRANCH  10  31
BRANCH   1  33
HETATM   33  O1  UNL     1      34.040   5.912  47.934  1.00  0.00    -0.353 OA
HETATM   34  C1  UNL     1      35.218   6.354  48.583  1.00  0.00     0.210 C 
ENDBRANCH   1  33
TORSDOF 6
ENDMDL
MODEL 9
REMARK VINA RESULT:      -7.8      3.824      5.850
REMARK  6 active torsions:
REMARK  status: ('A' for Active; 'I' for Inactive)
REMARK    1  A    between atoms: O1_2  and  C2_3 
REMARK    2  A    between atoms: C9_12  and  O2_13 
REMARK    3  A    between atoms: N3_17  and  C13_18 
REMARK    4  A    between atoms: C13_18  and  N4_20 
REMARK    5  A    between atoms: N4_20  and  C14_21 
REMARK    6  A    between atoms: C14_21  and  C15_22 
ROOT
HETATM    1  C2  UNL     1      24.717   1.197  52.037  1.00  0.00     0.104 A 
HETATM    2  C3  UNL     1      25.019   0.459  53.161  1.00  0.00     0.072 A 
HETATM    3  C4  UNL     1      24.007  -0.209  53.821  1.00  0.00     0.075 A 
HETATM    4  N1  UNL     1      24.455  -0.894  54.911  1.00  0.00    -0.241 NA
HETATM    5  C5  UNL     1      23.591  -1.587  55.650  1.00  0.00     0.236 A 
HETATM    6  N2  UNL     1      22.301  -1.621  55.341  1.00  0.00    -0.224 NA
HETATM    7  C6  UNL     1      21.837  -0.940  54.253  1.00  0.00     0.139 A 
HETATM    8  C7  UNL     1      22.683  -0.187  53.425  1.00  0.00     0.048 A 
HETATM    9  C8  UNL     1      22.392   0.556  52.298  1.00  0.00    -0.004 A 
HETATM   10  C9  UNL     1      23.406   1.220  51.642  1.00  0.00     0.108 A 
HETATM   11  C11 UNL     1      21.177   0.903  51.475  1.00  0.00     0.062 C 
HETATM   12  C12 UNL     1      20.029   1.299  52.411  1.00  0.00     0.132 C 
HETATM   13  N3  UNL     1      19.272   0.123  52.722  1.00  0.00    -0.342 N 
HETATM   14  C22 UNL     1      19.321  -1.107  53.440  1.00  0.00     0.250 C 
HETATM   15  N5  UNL     1      20.434  -1.265  54.322  1.00  0.00    -0.358 N 
HETATM   16  H23 UNL     1      20.158  -1.722  55.220  1.00  0.00     0.162 HD
ENDROOT
BRANCH  13  17
HETATM   17  C13 UNL     1      18.016   0.240  52.069  1.00  0.00     0.171 C 
HETATM   18  S1  UNL     1      16.814  -0.882  52.218  1.00  0.00    -0.041 SA
BRANCH  17  19
HETATM   19  N4  UNL     1      17.219   1.012  51.220  1.00  0.00    -0.363 N 
HETATM   20  H13 UNL     1      16.703   0.139  50.908  1.00  0.00     0.162 HD
BRANCH  19  21
HETATM   21  C14 UNL     1      16.724   2.178  50.571  1.00  0.00     0.160 C 
BRANCH  21  22
HETATM   22  C15 UNL     1      17.870   2.944  50.016  1.00  0.00    -0.038 A 
HETATM   23  C16 UNL     1      18.710   2.304  49.096  1.00  0.00     0.012 A 
HETATM   24  C17 UNL     1      19.813   2.862  48.496  1.00  0.00     0.040 A 
HETATM   25  C18 UNL     1      20.132   4.152  48.814  1.00  0.00     0.105 A 
HETATM   26  C19 UNL     1      19.337   4.817  49.711  1.00  0.00     0.105 A 
HETATM   27  O4  UNL     1      21.136   5.032  48.431  1.00  0.00    -0.323 OA
HETATM   28  C20 UNL     1      18.234   4.238  50.301  1.00  0.00     0.048 A 
HETATM   29  O3  UNL     1      19.815   6.110  49.908  1.00  0.00    -0.323 OA
HETATM   30  C21 UNL     1      21.122   6.136  49.342  1.00  0.00     0.352 C 
ENDBRANCH  21  22
ENDBRANCH  19  21
ENDBRANCH  17  19
ENDBRANCH  13  17
BRANCH  10  31
HETATM   31  O2  UNL     1      23.109   1.977  50.493  1.00  0.00    -0.353 OA
HETATM   32  C10 UNL     1      23.306   3.382  50.615  1.00  0.00     0.210 C 
ENDBRANCH  10  31
BRANCH   1  33
HETATM   33  O1  UNL     1      25.687   1.892  51.325  1.00  0.00    -0.353 OA
HETATM   34  C1  UNL     1      26.928   2.105  51.972  1.00  0.00     0.210 C 
ENDBRANCH   1  33
TORSDOF 6
ENDMDL
