MODEL 1
REMARK VINA RESULT:      -6.5      0.000      0.000
REMARK  9 active torsions:
REMARK  status: ('A' for Active; 'I' for Inactive)
REMARK    1  A    between atoms: N1_2  and  N2_3 
REMARK    2  A    between atoms: N2_3  and  C2_4 
REMARK    3  A    between atoms: C2_4  and  C3_5 
REMARK    4  A    between atoms: C3_5  and  C4_6 
REMARK    5  A    between atoms: C4_6  and  C5_7 
REMARK    6  A    between atoms: C5_7  and  C6_8 
REMARK    7  A    between atoms: C6_8  and  C7_9 
REMARK    8  A    between atoms: C7_9  and  N3_10 
REMARK    9  A    between atoms: C9_12  and  C10_13 
ROOT
HETATM    1  N3  UNL     1      24.731   2.302  50.972  1.00  0.00    -0.260 N 
HETATM    2  C8  UNL     1      24.986   3.385  50.171  1.00  0.00     0.148 A 
HETATM    3  C9  UNL     1      26.318   3.696  50.082  1.00  0.00     0.108 A 
HETATM    4  N4  UNL     1      26.882   2.764  50.861  1.00  0.00    -0.130 NA
HETATM    5  N5  UNL     1      25.969   1.969  51.368  1.00  0.00    -0.066 NA
ENDROOT
BRANCH   1   6
HETATM    6  C7  UNL     1      23.719   1.469  51.524  1.00  0.00     0.152 C 
BRANCH   6   7
HETATM    7  C6  UNL     1      23.664   1.111  52.938  1.00  0.00     0.022 C 
BRANCH   7   8
HETATM    8  C5  UNL     1      23.797  -0.271  53.424  1.00  0.00     0.002 C 
BRANCH   8   9
HETATM    9  C4  UNL     1      25.181  -0.759  53.598  1.00  0.00     0.001 C 
BRANCH   9  10
HETATM   10  C3  UNL     1      25.979  -0.180  54.724  1.00  0.00     0.015 C 
BRANCH  10  11
HETATM   11  C2  UNL     1      27.102   0.664  54.276  1.00  0.00     0.104 C 
BRANCH  11  12
HETATM   12  N2  UNL     1      26.918   2.074  54.228  1.00  0.00    -0.262 NA
HETATM   13  H5  UNL     1      26.136   2.347  53.607  1.00  0.00     0.140 HD
BRANCH  12  14
HETATM   14  N1  UNL     1      28.047   2.799  53.840  1.00  0.00    -0.266 NA
HETATM   15  C1  UNL     1      29.216   1.991  54.138  1.00  0.00     0.126 C 
HETATM   16  H4  UNL     1      28.025   2.976  52.803  1.00  0.00     0.140 HD
ENDBRANCH  12  14
ENDBRANCH  11  12
ENDBRANCH  10  11
ENDBRANCH   9  10
ENDBRANCH   8   9
ENDBRANCH   7   8
ENDBRANCH   6   7
ENDBRANCH   1   6
BRANCH   3  17
HETATM   17  C10 UNL     1      26.740   4.825  49.263  1.00  0.00    -0.004 A 
HETATM   18  C11 UNL     1      27.995   5.036  48.735  1.00  0.00     0.014 A 
HETATM   19  C12 UNL     1      28.179   6.179  47.985  1.00  0.00     0.001 A 
HETATM   20  C13 UNL     1      27.161   7.069  47.770  1.00  0.00     0.000 A 
HETATM   21  C14 UNL     1      25.898   6.881  48.286  1.00  0.00     0.001 A 
HETATM   22  C15 UNL     1      25.696   5.730  49.047  1.00  0.00     0.014 A 
ENDBRANCH   3  17
TORSDOF 9
ENDMDL
MODEL 2
REMARK VINA RESULT:      -6.4      3.534      6.814
REMARK  9 active torsions:
REMARK  status: ('A' for Active; 'I' for Inactive)
REMARK    1  A    between atoms: N1_2  and  N2_3 
REMARK    2  A    between atoms: N2_3  and  C2_4 
REMARK    3  A    between atoms: C2_4  and  C3_5 
REMARK    4  A    between atoms: C3_5  and  C4_6 
REMARK    5  A    between atoms: C4_6  and  C5_7 
REMARK    6  A    between atoms: C5_7  and  C6_8 
REMARK    7  A    between atoms: C6_8  and  C7_9 
REMARK    8  A    between atoms: C7_9  and  N3_10 
REMARK    9  A    between atoms: C9_12  and  C10_13 
ROOT
HETATM    1  N3  UNL     1      23.482  -0.958  54.632  1.00  0.00    -0.260 N 
HETATM    2  C8  UNL     1      22.624  -0.498  53.667  1.00  0.00     0.148 A 
HETATM    3  C9  UNL     1      21.323  -0.879  53.868  1.00  0.00     0.108 A 
HETATM    4  N4  UNL     1      21.405  -1.595  54.996  1.00  0.00    -0.130 NA
HETATM    5  N5  UNL     1      22.643  -1.637  55.430  1.00  0.00    -0.066 NA
ENDROOT
BRANCH   1   6
HETATM    6  C7  UNL     1      24.835  -1.003  55.068  1.00  0.00     0.152 C 
BRANCH   6   7
HETATM    7  C6  UNL     1      25.917  -0.306  54.380  1.00  0.00     0.022 C 
BRANCH   7   8
HETATM    8  C5  UNL     1      26.694  -0.908  53.285  1.00  0.00     0.002 C 
BRANCH   8   9
HETATM    9  C4  UNL     1      26.592  -0.227  51.977  1.00  0.00     0.001 C 
BRANCH   9  10
HETATM   10  C3  UNL     1      26.013   1.153  51.964  1.00  0.00     0.015 C 
BRANCH  10  11
HETATM   11  C2  UNL     1      27.031   2.220  51.963  1.00  0.00     0.104 C 
BRANCH  11  12
HETATM   12  N2  UNL     1      27.605   2.614  53.203  1.00  0.00    -0.262 NA
HETATM   13  H5  UNL     1      27.363   3.588  53.456  1.00  0.00     0.140 HD
BRANCH  12  14
HETATM   14  N1  UNL     1      28.995   2.486  53.271  1.00  0.00    -0.266 NA
HETATM   15  C1  UNL     1      29.301   1.544  54.333  1.00  0.00     0.126 C 
HETATM   16  H4  UNL     1      29.367   2.097  52.368  1.00  0.00     0.140 HD
ENDBRANCH  12  14
ENDBRANCH  11  12
ENDBRANCH  10  11
ENDBRANCH   9  10
ENDBRANCH   8   9
ENDBRANCH   7   8
ENDBRANCH   6   7
ENDBRANCH   1   6
BRANCH   3  17
HETATM   17  C10 UNL     1      20.297  -0.463  52.920  1.00  0.00    -0.004 A 
HETATM   18  C11 UNL     1      18.941  -0.684  53.024  1.00  0.00     0.014 A 
HETATM   19  C12 UNL     1      18.144  -0.202  52.006  1.00  0.00     0.001 A 
HETATM   20  C13 UNL     1      18.673   0.469  50.936  1.00  0.00     0.000 A 
HETATM   21  C14 UNL     1      20.024   0.703  50.809  1.00  0.00     0.001 A 
HETATM   22  C15 UNL     1      20.843   0.222  51.829  1.00  0.00     0.014 A 
ENDBRANCH   3  17
TORSDOF 9
ENDMDL
MODEL 3
REMARK VINA RESULT:      -6.3      2.253      7.273
REMARK  9 active torsions:
REMARK  status: ('A' for Active; 'I' for Inactive)
REMARK    1  A    between atoms: N1_2  and  N2_3 
REMARK    2  A    between atoms: N2_3  and  C2_4 
REMARK    3  A    between atoms: C2_4  and  C3_5 
REMARK    4  A    between atoms: C3_5  and  C4_6 
REMARK    5  A    between atoms: C4_6  and  C5_7 
REMARK    6  A    between atoms: C5_7  and  C6_8 
REMARK    7  A    between atoms: C6_8  and  C7_9 
REMARK    8  A    between atoms: C7_9  and  N3_10 
REMARK    9  A    between atoms: C9_12  and  C10_13 
ROOT
HETATM    1  N3  UNL     1      24.515   2.691  50.754  1.00  0.00    -0.260 N 
HETATM    2  C8  UNL     1      23.599   1.761  51.174  1.00  0.00     0.148 A 
HETATM    3  C9  UNL     1      23.484   1.686  52.537  1.00  0.00     0.108 A 
HETATM    4  N4  UNL     1      24.365   2.606  52.950  1.00  0.00    -0.130 NA
HETATM    5  N5  UNL     1      24.953   3.178  51.926  1.00  0.00    -0.066 NA
ENDROOT
BRANCH   1   6
HETATM    6  C7  UNL     1      25.151   3.280  49.626  1.00  0.00     0.152 C 
BRANCH   6   7
HETATM    7  C6  UNL     1      26.481   3.876  49.683  1.00  0.00     0.022 C 
BRANCH   7   8
HETATM    8  C5  UNL     1      26.873   5.050  48.884  1.00  0.00     0.002 C 
BRANCH   8   9
HETATM    9  C4  UNL     1      25.908   6.169  48.876  1.00  0.00     0.001 C 
BRANCH   9  10
HETATM   10  C3  UNL     1      25.746   6.947  50.144  1.00  0.00     0.015 C 
BRANCH  10  11
HETATM   11  C2  UNL     1      24.413   6.802  50.758  1.00  0.00     0.104 C 
BRANCH  11  12
HETATM   12  N2  UNL     1      24.330   6.430  52.128  1.00  0.00    -0.262 NA
HETATM   13  H5  UNL     1      25.202   5.988  52.468  1.00  0.00     0.140 HD
BRANCH  12  14
HETATM   14  N1  UNL     1      23.267   5.579  52.441  1.00  0.00    -0.266 NA
HETATM   15  C1  UNL     1      22.318   5.634  51.344  1.00  0.00     0.126 C 
HETATM   16  H4  UNL     1      23.611   4.589  52.530  1.00  0.00     0.140 HD
ENDBRANCH  12  14
ENDBRANCH  11  12
ENDBRANCH  10  11
ENDBRANCH   9  10
ENDBRANCH   8   9
ENDBRANCH   7   8
ENDBRANCH   6   7
ENDBRANCH   1   6
BRANCH   3  17
HETATM   17  C10 UNL     1      22.547   0.740  53.129  1.00  0.00    -0.004 A 
HETATM   18  C11 UNL     1      21.176   0.747  52.999  1.00  0.00     0.014 A 
HETATM   19  C12 UNL     1      20.476  -0.248  53.649  1.00  0.00     0.001 A 
HETATM   20  C13 UNL     1      21.111  -1.205  54.393  1.00  0.00     0.000 A 
HETATM   21  C14 UNL     1      22.480  -1.234  54.540  1.00  0.00     0.001 A 
HETATM   22  C15 UNL     1      23.203  -0.235  53.889  1.00  0.00     0.014 A 
ENDBRANCH   3  17
TORSDOF 9
ENDMDL
MODEL 4
REMARK VINA RESULT:      -6.3      2.384      6.375
REMARK  9 active torsions:
REMARK  status: ('A' for Active; 'I' for Inactive)
REMARK    1  A    between atoms: N1_2  and  N2_3 
REMARK    2  A    between atoms: N2_3  and  C2_4 
REMARK    3  A    between atoms: C2_4  and  C3_5 
REMARK    4  A    between atoms: C3_5  and  C4_6 
REMARK    5  A    between atoms: C4_6  and  C5_7 
REMARK    6  A    between atoms: C5_7  and  C6_8 
REMARK    7  A    between atoms: C6_8  and  C7_9 
REMARK    8  A    between atoms: C7_9  and  N3_10 
REMARK    9  A    between atoms: C9_12  and  C10_13 
ROOT
HETATM    1  N3  UNL     1      26.616  -1.446  53.023  1.00  0.00    -0.260 N 
HETATM    2  C8  UNL     1      25.337  -1.272  53.485  1.00  0.00     0.148 A 
HETATM    3  C9  UNL     1      24.692  -0.205  52.916  1.00  0.00     0.108 A 
HETATM    4  N4  UNL     1      25.622   0.280  52.083  1.00  0.00    -0.130 NA
HETATM    5  N5  UNL     1      26.721  -0.434  52.147  1.00  0.00    -0.066 NA
ENDROOT
BRANCH   1   6
HETATM    6  C7  UNL     1      27.802  -2.225  53.128  1.00  0.00     0.152 C 
BRANCH   6   7
HETATM    7  C6  UNL     1      29.131  -1.696  52.838  1.00  0.00     0.022 C 
BRANCH   7   8
HETATM    8  C5  UNL     1      29.913  -0.910  53.806  1.00  0.00     0.002 C 
BRANCH   8   9
HETATM    9  C4  UNL     1      29.857   0.557  53.636  1.00  0.00     0.001 C 
BRANCH   9  10
HETATM   10  C3  UNL     1      28.768   1.291  54.352  1.00  0.00     0.015 C 
BRANCH  10  11
HETATM   11  C2  UNL     1      28.308   2.500  53.644  1.00  0.00     0.104 C 
BRANCH  11  12
HETATM   12  N2  UNL     1      27.906   2.383  52.285  1.00  0.00    -0.262 NA
HETATM   13  H5  UNL     1      28.617   2.756  51.632  1.00  0.00     0.140 HD
BRANCH  12  14
HETATM   14  N1  UNL     1      26.685   2.990  51.981  1.00  0.00    -0.266 NA
HETATM   15  C1  UNL     1      26.645   3.210  50.547  1.00  0.00     0.126 C 
HETATM   16  H4  UNL     1      25.890   2.351  52.239  1.00  0.00     0.140 HD
ENDBRANCH  12  14
ENDBRANCH  11  12
ENDBRANCH  10  11
ENDBRANCH   9  10
ENDBRANCH   8   9
ENDBRANCH   7   8
ENDBRANCH   6   7
ENDBRANCH   1   6
BRANCH   3  17
HETATM   17  C10 UNL     1      23.323   0.102  53.311  1.00  0.00    -0.004 A 
HETATM   18  C11 UNL     1      22.541   1.132  52.838  1.00  0.00     0.014 A 
HETATM   19  C12 UNL     1      21.266   1.242  53.352  1.00  0.00     0.001 A 
HETATM   20  C13 UNL     1      20.791   0.366  54.291  1.00  0.00     0.000 A 
HETATM   21  C14 UNL     1      21.553  -0.672  54.779  1.00  0.00     0.001 A 
HETATM   22  C15 UNL     1      22.845  -0.796  54.271  1.00  0.00     0.014 A 
ENDBRANCH   3  17
TORSDOF 9
ENDMDL
MODEL 5
REMARK VINA RESULT:      -6.2      4.092      6.576
REMARK  9 active torsions:
REMARK  status: ('A' for Active; 'I' for Inactive)
REMARK    1  A    between atoms: N1_2  and  N2_3 
REMARK    2  A    between atoms: N2_3  and  C2_4 
REMARK    3  A    between atoms: C2_4  and  C3_5 
REMARK    4  A    between atoms: C3_5  and  C4_6 
REMARK    5  A    between atoms: C4_6  and  C5_7 
REMARK    6  A    between atoms: C5_7  and  C6_8 
REMARK    7  A    between atoms: C6_8  and  C7_9 
REMARK    8  A    between atoms: C7_9  and  N3_10 
REMARK    9  A    between atoms: C9_12  and  C10_13 
ROOT
HETATM    1  N3  UNL     1      24.498   1.802  52.906  1.00  0.00    -0.260 N 
HETATM    2  C8  UNL     1      25.351   0.737  52.767  1.00  0.00     0.148 A 
HETATM    3  C9  UNL     1      26.533   0.895  53.442  1.00  0.00     0.108 A 
HETATM    4  N4  UNL     1      26.383   2.100  54.006  1.00  0.00    -0.130 NA
HETATM    5  N5  UNL     1      25.216   2.615  53.696  1.00  0.00    -0.066 NA
ENDROOT
BRANCH   1   6
HETATM    6  C7  UNL     1      23.236   2.344  52.537  1.00  0.00     0.152 C 
BRANCH   6   7
HETATM    7  C6  UNL     1      22.442   1.828  51.426  1.00  0.00     0.022 C 
BRANCH   7   8
HETATM    8  C5  UNL     1      21.833   0.488  51.426  1.00  0.00     0.002 C 
BRANCH   8   9
HETATM    9  C4  UNL     1      20.379   0.445  51.162  1.00  0.00     0.001 C 
BRANCH   9  10
HETATM   10  C3  UNL     1      19.474   0.219  52.332  1.00  0.00     0.015 C 
BRANCH  10  11
HETATM   11  C2  UNL     1      20.192  -0.101  53.579  1.00  0.00     0.104 C 
BRANCH  11  12
HETATM   12  N2  UNL     1      20.096  -1.420  54.102  1.00  0.00    -0.262 NA
HETATM   13  H5  UNL     1      19.203  -1.581  54.600  1.00  0.00     0.140 HD
BRANCH  12  14
HETATM   14  N1  UNL     1      21.136  -1.788  54.959  1.00  0.00    -0.266 NA
HETATM   15  C1  UNL     1      22.206  -0.820  54.798  1.00  0.00     0.126 C 
HETATM   16  H4  UNL     1      20.810  -1.754  55.959  1.00  0.00     0.140 HD
ENDBRANCH  12  14
ENDBRANCH  11  12
ENDBRANCH  10  11
ENDBRANCH   9  10
ENDBRANCH   8   9
ENDBRANCH   7   8
ENDBRANCH   6   7
ENDBRANCH   1   6
BRANCH   3  17
HETATM   17  C10 UNL     1      27.540  -0.158  53.387  1.00  0.00    -0.004 A 
HETATM   18  C11 UNL     1      28.861  -0.056  53.763  1.00  0.00     0.014 A 
HETATM   19  C12 UNL     1      29.644  -1.183  53.626  1.00  0.00     0.001 A 
HETATM   20  C13 UNL     1      29.135  -2.357  53.138  1.00  0.00     0.000 A 
HETATM   21  C14 UNL     1      27.819  -2.485  52.755  1.00  0.00     0.001 A 
HETATM   22  C15 UNL     1      27.013  -1.354  52.887  1.00  0.00     0.014 A 
ENDBRANCH   3  17
TORSDOF 9
ENDMDL
MODEL 6
REMARK VINA RESULT:      -6.1      1.938      5.971
REMARK  9 active torsions:
REMARK  status: ('A' for Active; 'I' for Inactive)
REMARK    1  A    between atoms: N1_2  and  N2_3 
REMARK    2  A    between atoms: N2_3  and  C2_4 
REMARK    3  A    between atoms: C2_4  and  C3_5 
REMARK    4  A    between atoms: C3_5  and  C4_6 
REMARK    5  A    between atoms: C4_6  and  C5_7 
REMARK    6  A    between atoms: C5_7  and  C6_8 
REMARK    7  A    between atoms: C6_8  and  C7_9 
REMARK    8  A    between atoms: C7_9  and  N3_10 
REMARK    9  A    between atoms: C9_12  and  C10_13 
ROOT
HETATM    1  N3  UNL     1      24.043   1.236  52.783  1.00  0.00    -0.260 N 
HETATM    2  C8  UNL     1      25.101   0.364  52.822  1.00  0.00     0.148 A 
HETATM    3  C9  UNL     1      26.279   0.952  53.201  1.00  0.00     0.108 A 
HETATM    4  N4  UNL     1      25.913   2.226  53.396  1.00  0.00    -0.130 NA
HETATM    5  N5  UNL     1      24.633   2.383  53.155  1.00  0.00    -0.066 NA
ENDROOT
BRANCH   1   6
HETATM    6  C7  UNL     1      22.658   1.381  52.496  1.00  0.00     0.152 C 
BRANCH   6   7
HETATM    7  C6  UNL     1      22.094   1.176  51.166  1.00  0.00     0.022 C 
BRANCH   7   8
HETATM    8  C5  UNL     1      22.657   1.784  49.950  1.00  0.00     0.002 C 
BRANCH   8   9
HETATM    9  C4  UNL     1      22.439   3.239  49.801  1.00  0.00     0.001 C 
BRANCH   9  10
HETATM   10  C3  UNL     1      23.651   4.110  49.698  1.00  0.00     0.015 C 
BRANCH  10  11
HETATM   11  C2  UNL     1      24.917   3.384  49.908  1.00  0.00     0.104 C 
BRANCH  11  12
HETATM   12  N2  UNL     1      25.944   4.010  50.667  1.00  0.00    -0.262 NA
HETATM   13  H5  UNL     1      25.764   5.019  50.813  1.00  0.00     0.140 HD
BRANCH  12  14
HETATM   14  N1  UNL     1      27.229   3.876  50.137  1.00  0.00    -0.266 NA
HETATM   15  C1  UNL     1      27.277   4.627  48.895  1.00  0.00     0.126 C 
HETATM   16  H4  UNL     1      27.938   4.286  50.797  1.00  0.00     0.140 HD
ENDBRANCH  12  14
ENDBRANCH  11  12
ENDBRANCH  10  11
ENDBRANCH   9  10
ENDBRANCH   8   9
ENDBRANCH   7   8
ENDBRANCH   6   7
ENDBRANCH   1   6
BRANCH   3  17
HETATM   17  C10 UNL     1      27.490   0.146  53.287  1.00  0.00    -0.004 A 
HETATM   18  C11 UNL     1      28.739   0.576  53.677  1.00  0.00     0.014 A 
HETATM   19  C12 UNL     1      29.753  -0.359  53.686  1.00  0.00     0.001 A 
HETATM   20  C13 UNL     1      29.533  -1.661  53.325  1.00  0.00     0.000 A 
HETATM   21  C14 UNL     1      28.294  -2.116  52.932  1.00  0.00     0.001 A 
HETATM   22  C15 UNL     1      27.258  -1.183  52.917  1.00  0.00     0.014 A 
ENDBRANCH   3  17
TORSDOF 9
ENDMDL
MODEL 7
REMARK VINA RESULT:      -6.1      2.592      6.836
REMARK  9 active torsions:
REMARK  status: ('A' for Active; 'I' for Inactive)
REMARK    1  A    between atoms: N1_2  and  N2_3 
REMARK    2  A    between atoms: N2_3  and  C2_4 
REMARK    3  A    between atoms: C2_4  and  C3_5 
REMARK    4  A    between atoms: C3_5  and  C4_6 
REMARK    5  A    between atoms: C4_6  and  C5_7 
REMARK    6  A    between atoms: C5_7  and  C6_8 
REMARK    7  A    between atoms: C6_8  and  C7_9 
REMARK    8  A    between atoms: C7_9  and  N3_10 
REMARK    9  A    between atoms: C9_12  and  C10_13 
ROOT
HETATM    1  N3  UNL     1      25.364   2.722  51.575  1.00  0.00    -0.260 N 
HETATM    2  C8  UNL     1      26.354   1.773  51.608  1.00  0.00     0.148 A 
HETATM    3  C9  UNL     1      26.436   1.111  52.805  1.00  0.00     0.108 A 
HETATM    4  N4  UNL     1      25.458   1.686  53.517  1.00  0.00    -0.130 NA
HETATM    5  N5  UNL     1      24.848   2.607  52.809  1.00  0.00    -0.066 NA
ENDROOT
BRANCH   1   6
HETATM    6  C7  UNL     1      24.735   3.728  50.792  1.00  0.00     0.152 C 
BRANCH   6   7
HETATM    7  C6  UNL     1      25.264   4.188  49.512  1.00  0.00     0.022 C 
BRANCH   7   8
HETATM    8  C5  UNL     1      26.199   5.318  49.386  1.00  0.00     0.002 C 
BRANCH   8   9
HETATM    9  C4  UNL     1      27.434   5.045  48.622  1.00  0.00     0.001 C 
BRANCH   9  10
HETATM   10  C3  UNL     1      28.117   6.211  47.979  1.00  0.00     0.015 C 
BRANCH  10  11
HETATM   11  C2  UNL     1      29.588   6.148  48.056  1.00  0.00     0.104 C 
BRANCH  11  12
HETATM   12  N2  UNL     1      30.231   6.641  49.225  1.00  0.00    -0.262 NA
HETATM   13  H5  UNL     1      30.804   7.481  49.032  1.00  0.00     0.140 HD
BRANCH  12  14
HETATM   14  N1  UNL     1      31.040   5.712  49.884  1.00  0.00    -0.266 NA
HETATM   15  C1  UNL     1      32.380   5.825  49.338  1.00  0.00     0.126 C 
HETATM   16  H4  UNL     1      31.083   5.935  50.911  1.00  0.00     0.140 HD
ENDBRANCH  12  14
ENDBRANCH  11  12
ENDBRANCH  10  11
ENDBRANCH   9  10
ENDBRANCH   8   9
ENDBRANCH   7   8
ENDBRANCH   6   7
ENDBRANCH   1   6
BRANCH   3  17
HETATM   17  C10 UNL     1      27.443   0.073  52.986  1.00  0.00    -0.004 A 
HETATM   18  C11 UNL     1      27.280  -1.278  52.776  1.00  0.00     0.014 A 
HETATM   19  C12 UNL     1      28.371  -2.088  53.011  1.00  0.00     0.001 A 
HETATM   20  C13 UNL     1      29.568  -1.576  53.434  1.00  0.00     0.000 A 
HETATM   21  C14 UNL     1      29.757  -0.230  53.651  1.00  0.00     0.001 A 
HETATM   22  C15 UNL     1      28.663   0.603  53.418  1.00  0.00     0.014 A 
ENDBRANCH   3  17
TORSDOF 9
ENDMDL
MODEL 8
REMARK VINA RESULT:      -6.0      2.924      7.012
REMARK  9 active torsions:
REMARK  status: ('A' for Active; 'I' for Inactive)
REMARK    1  A    between atoms: N1_2  and  N2_3 
REMARK    2  A    between atoms: N2_3  and  C2_4 
REMARK    3  A    between atoms: C2_4  and  C3_5 
REMARK    4  A    between atoms: C3_5  and  C4_6 
REMARK    5  A    between atoms: C4_6  and  C5_7 
REMARK    6  A    between atoms: C5_7  and  C6_8 
REMARK    7  A    between atoms: C6_8  and  C7_9 
REMARK    8  A    between atoms: C7_9  and  N3_10 
REMARK    9  A    between atoms: C9_12  and  C10_13 
ROOT
HETATM    1  N3  UNL     1      25.267   2.458  52.074  1.00  0.00    -0.260 N 
HETATM    2  C8  UNL     1      26.162   1.424  51.972  1.00  0.00     0.148 A 
HETATM    3  C9  UNL     1      26.673   1.024  53.179  1.00  0.00     0.108 A 
HETATM    4  N4  UNL     1      26.060   1.850  54.037  1.00  0.00    -0.130 NA
HETATM    5  N5  UNL     1      25.257   2.669  53.400  1.00  0.00    -0.066 NA
ENDROOT
BRANCH   1   6
HETATM    6  C7  UNL     1      24.420   3.345  51.355  1.00  0.00     0.152 C 
BRANCH   6   7
HETATM    7  C6  UNL     1      24.523   3.553  49.914  1.00  0.00     0.022 C 
BRANCH   7   8
HETATM    8  C5  UNL     1      24.277   4.852  49.268  1.00  0.00     0.002 C 
BRANCH   8   9
HETATM    9  C4  UNL     1      25.425   5.783  49.244  1.00  0.00     0.001 C 
BRANCH   9  10
HETATM   10  C3  UNL     1      25.416   6.913  50.225  1.00  0.00     0.015 C 
BRANCH  10  11
HETATM   11  C2  UNL     1      26.298   8.031  49.845  1.00  0.00     0.104 C 
BRANCH  11  12
HETATM   12  N2  UNL     1      26.385   9.156  50.711  1.00  0.00    -0.262 NA
HETATM   13  H5  UNL     1      25.861   9.972  50.348  1.00  0.00     0.140 HD
BRANCH  12  14
HETATM   14  N1  UNL     1      27.686   9.575  50.999  1.00  0.00    -0.266 NA
HETATM   15  C1  UNL     1      28.455   9.506  49.770  1.00  0.00     0.126 C 
HETATM   16  H4  UNL     1      27.680  10.574  51.328  1.00  0.00     0.140 HD
ENDBRANCH  12  14
ENDBRANCH  11  12
ENDBRANCH  10  11
ENDBRANCH   9  10
ENDBRANCH   8   9
ENDBRANCH   7   8
ENDBRANCH   6   7
ENDBRANCH   1   6
BRANCH   3  17
HETATM   17  C10 UNL     1      27.637  -0.067  53.227  1.00  0.00    -0.004 A 
HETATM   18  C11 UNL     1      28.957   0.015  53.614  1.00  0.00     0.014 A 
HETATM   19  C12 UNL     1      29.697  -1.148  53.583  1.00  0.00     0.001 A 
HETATM   20  C13 UNL     1      29.149  -2.338  53.185  1.00  0.00     0.000 A 
HETATM   21  C14 UNL     1      27.833  -2.448  52.793  1.00  0.00     0.001 A 
HETATM   22  C15 UNL     1      27.071  -1.280  52.819  1.00  0.00     0.014 A 
ENDBRANCH   3  17
TORSDOF 9
ENDMDL
MODEL 9
REMARK VINA RESULT:      -6.0      3.377      6.933
REMARK  9 active torsions:
REMARK  status: ('A' for Active; 'I' for Inactive)
REMARK    1  A    between atoms: N1_2  and  N2_3 
REMARK    2  A    between atoms: N2_3  and  C2_4 
REMARK    3  A    between atoms: C2_4  and  C3_5 
REMARK    4  A    between atoms: C3_5  and  C4_6 
REMARK    5  A    between atoms: C4_6  and  C5_7 
REMARK    6  A    between atoms: C5_7  and  C6_8 
REMARK    7  A    between atoms: C6_8  and  C7_9 
REMARK    8  A    between atoms: C7_9  and  N3_10 
REMARK    9  A    between atoms: C9_12  and  C10_13 
ROOT
HETATM    1  N3  UNL     1      23.398  -0.489  53.837  1.00  0.00    -0.260 N 
HETATM    2  C8  UNL     1      22.089  -0.803  53.576  1.00  0.00     0.148 A 
HETATM    3  C9  UNL     1      21.457   0.114  52.776  1.00  0.00     0.108 A 
HETATM    4  N4  UNL     1      22.425   1.012  52.551  1.00  0.00    -0.130 NA
HETATM    5  N5  UNL     1      23.534   0.662  53.159  1.00  0.00    -0.066 NA
ENDROOT
BRANCH   1   6
HETATM    6  C7  UNL     1      24.580  -0.882  54.524  1.00  0.00     0.152 C 
BRANCH   6   7
HETATM    7  C6  UNL     1      25.898  -0.338  54.216  1.00  0.00     0.022 C 
BRANCH   7   8
HETATM    8  C5  UNL     1      26.821  -0.960  53.252  1.00  0.00     0.002 C 
BRANCH   8   9
HETATM    9  C4  UNL     1      28.255  -0.665  53.457  1.00  0.00     0.001 C 
BRANCH   9  10
HETATM   10  C3  UNL     1      28.616   0.240  54.593  1.00  0.00     0.015 C 
BRANCH  10  11
HETATM   11  C2  UNL     1      29.055   1.580  54.161  1.00  0.00     0.104 C 
BRANCH  11  12
HETATM   12  N2  UNL     1      28.071   2.518  53.745  1.00  0.00    -0.262 NA
HETATM   13  H5  UNL     1      27.113   2.222  54.002  1.00  0.00     0.140 HD
BRANCH  12  14
HETATM   14  N1  UNL     1      28.078   2.806  52.378  1.00  0.00    -0.266 NA
HETATM   15  C1  UNL     1      26.800   2.388  51.831  1.00  0.00     0.126 C 
HETATM   16  H4  UNL     1      28.178   3.843  52.227  1.00  0.00     0.140 HD
ENDBRANCH  12  14
ENDBRANCH  11  12
ENDBRANCH  10  11
ENDBRANCH   9  10
ENDBRANCH   8   9
ENDBRANCH   7   8
ENDBRANCH   6   7
ENDBRANCH   1   6
BRANCH   3  17
HETATM   17  C10 UNL     1      20.060  -0.089  52.414  1.00  0.00    -0.004 A 
HETATM   18  C11 UNL     1      19.419   0.402  51.298  1.00  0.00     0.014 A 
HETATM   19  C12 UNL     1      18.084   0.088  51.149  1.00  0.00     0.001 A 
HETATM   20  C13 UNL     1      17.419  -0.678  52.068  1.00  0.00     0.000 A 
HETATM   21  C14 UNL     1      18.037  -1.181  53.192  1.00  0.00     0.001 A 
HETATM   22  C15 UNL     1      19.387  -0.872  53.357  1.00  0.00     0.014 A 
ENDBRANCH   3  17
TORSDOF 9
ENDMDL
