MODEL 1
REMARK VINA RESULT:      -7.6      0.000      0.000
REMARK  7 active torsions:
REMARK  status: ('A' for Active; 'I' for Inactive)
REMARK    1  A    between atoms: C2_2  and  C3_4 
REMARK    2  A    between atoms: C3_4  and  O1_16 
REMARK    3  A    between atoms: C4_5  and  C5_6 
REMARK    4  A    between atoms: C6_7  and  N1_8 
REMARK    5  A    between atoms: N1_8  and  C7_9 
REMARK    6  A    between atoms: O1_16  and  C12_17 
REMARK    7  A    between atoms: C12_17  and  C13_18 
ROOT
HETATM    1  C3  UNL     1      22.938   3.265  50.115  1.00  0.00     0.086 C 
HETATM    2  C4  UNL     1      24.145   3.751  50.348  1.00  0.00     0.039 C 
ENDROOT
BRANCH   1   3
HETATM    3  C2  UNL     1      22.538   2.365  49.044  1.00  0.00     0.042 A 
HETATM    4  C1  UNL     1      21.788   1.275  49.013  1.00  0.00     0.155 A 
HETATM    5 CL1  UNL     1      22.613   1.956  47.345  1.00  0.00    -0.179 Cl
ENDBRANCH   1   3
BRANCH   1   6
HETATM    6  O1  UNL     1      21.830   3.549  50.882  1.00  0.00    -0.345 OA
BRANCH   6   7
HETATM    7  C12 UNL     1      21.792   3.369  52.286  1.00  0.00     0.214 C 
BRANCH   7   8
HETATM    8  C13 UNL     1      21.916   1.917  52.664  1.00  0.00    -0.031 A 
HETATM    9  C14 UNL     1      23.110   1.295  52.968  1.00  0.00     0.009 A 
HETATM   10  C15 UNL     1      23.063  -0.051  53.298  1.00  0.00     0.004 A 
HETATM   11  C16 UNL     1      21.899  -0.791  53.338  1.00  0.00     0.042 A 
HETATM   12  C17 UNL     1      20.691  -0.161  53.030  1.00  0.00     0.117 A 
HETATM   13  F1  UNL     1      19.522  -0.848  53.058  1.00  0.00    -0.206 F 
HETATM   14  C18 UNL     1      20.734   1.177  52.702  1.00  0.00     0.051 A 
ENDBRANCH   7   8
ENDBRANCH   6   7
ENDBRANCH   1   6
BRANCH   2  15
HETATM   15  C5  UNL     1      25.248   3.388  49.474  1.00  0.00     0.020 C 
HETATM   16  C6  UNL     1      26.432   3.160  50.023  1.00  0.00     0.090 C 
BRANCH  16  17
HETATM   17  N1  UNL     1      26.556   3.285  51.436  1.00  0.00    -0.351 N 
HETATM   18  H6  UNL     1      26.272   4.082  52.017  1.00  0.00     0.166 HD
BRANCH  17  19
HETATM   19  C7  UNL     1      27.151   2.144  52.087  1.00  0.00     0.130 A 
HETATM   20  C8  UNL     1      26.563   0.883  51.939  1.00  0.00     0.077 A 
HETATM   21  C9  UNL     1      27.196  -0.177  52.599  1.00  0.00     0.035 A 
HETATM   22  C10 UNL     1      26.643  -1.559  52.501  1.00  0.00     0.070 C 
HETATM   23  N2  UNL     1      28.308  -0.021  53.341  1.00  0.00    -0.247 NA
HETATM   24  C11 UNL     1      28.841   1.219  53.455  1.00  0.00     0.235 A 
HETATM   25  N3  UNL     1      28.264   2.271  52.836  1.00  0.00    -0.224 NA
ENDBRANCH  17  19
ENDBRANCH  16  17
ENDBRANCH   2  15
TORSDOF 7
ENDMDL
MODEL 2
REMARK VINA RESULT:      -7.3      3.358      5.923
REMARK  7 active torsions:
REMARK  status: ('A' for Active; 'I' for Inactive)
REMARK    1  A    between atoms: C2_2  and  C3_4 
REMARK    2  A    between atoms: C3_4  and  O1_16 
REMARK    3  A    between atoms: C4_5  and  C5_6 
REMARK    4  A    between atoms: C6_7  and  N1_8 
REMARK    5  A    between atoms: N1_8  and  C7_9 
REMARK    6  A    between atoms: O1_16  and  C12_17 
REMARK    7  A    between atoms: C12_17  and  C13_18 
ROOT
HETATM    1  C3  UNL     1      25.946   3.002  51.242  1.00  0.00     0.086 C 
HETATM    2  C4  UNL     1      24.789   2.696  51.804  1.00  0.00     0.039 C 
ENDROOT
BRANCH   1   3
HETATM    3  C2  UNL     1      26.186   3.964  50.178  1.00  0.00     0.042 A 
HETATM    4  C1  UNL     1      27.033   3.993  49.161  1.00  0.00     0.155 A 
HETATM    5 CL1  UNL     1      25.762   5.489  49.434  1.00  0.00    -0.179 Cl
ENDBRANCH   1   3
BRANCH   1   6
HETATM    6  O1  UNL     1      27.149   2.432  51.593  1.00  0.00    -0.345 OA
BRANCH   6   7
HETATM    7  C12 UNL     1      27.515   2.157  52.933  1.00  0.00     0.214 C 
BRANCH   7   8
HETATM    8  C13 UNL     1      28.106   0.780  53.077  1.00  0.00    -0.031 A 
HETATM    9  C14 UNL     1      29.365   0.527  53.583  1.00  0.00     0.009 A 
HETATM   10  C15 UNL     1      29.770  -0.798  53.653  1.00  0.00     0.004 A 
HETATM   11  C16 UNL     1      28.990  -1.862  53.249  1.00  0.00     0.042 A 
HETATM   12  C17 UNL     1      27.717  -1.605  52.736  1.00  0.00     0.117 A 
HETATM   13  F1  UNL     1      26.914  -2.618  52.327  1.00  0.00    -0.206 F 
HETATM   14  C18 UNL     1      27.310  -0.290  52.665  1.00  0.00     0.051 A 
ENDBRANCH   7   8
ENDBRANCH   6   7
ENDBRANCH   1   6
BRANCH   2  15
HETATM   15  C5  UNL     1      23.575   3.359  51.357  1.00  0.00     0.020 C 
HETATM   16  C6  UNL     1      22.566   2.606  50.946  1.00  0.00     0.090 C 
BRANCH  16  17
HETATM   17  N1  UNL     1      22.729   1.191  50.964  1.00  0.00    -0.351 N 
HETATM   18  H6  UNL     1      23.320   0.625  50.345  1.00  0.00     0.166 HD
BRANCH  17  19
HETATM   19  C7  UNL     1      21.962   0.514  51.981  1.00  0.00     0.130 A 
HETATM   20  C8  UNL     1      22.627  -0.128  53.031  1.00  0.00     0.077 A 
HETATM   21  C9  UNL     1      21.818  -0.762  53.981  1.00  0.00     0.035 A 
HETATM   22  C10 UNL     1      22.435  -1.474  55.137  1.00  0.00     0.070 C 
HETATM   23  N2  UNL     1      20.473  -0.771  53.912  1.00  0.00    -0.247 NA
HETATM   24  C11 UNL     1      19.874  -0.136  52.876  1.00  0.00     0.235 A 
HETATM   25  N3  UNL     1      20.616   0.490  51.937  1.00  0.00    -0.224 NA
ENDBRANCH  17  19
ENDBRANCH  16  17
ENDBRANCH   2  15
TORSDOF 7
ENDMDL
MODEL 3
REMARK VINA RESULT:      -7.3      3.606      6.263
REMARK  7 active torsions:
REMARK  status: ('A' for Active; 'I' for Inactive)
REMARK    1  A    between atoms: C2_2  and  C3_4 
REMARK    2  A    between atoms: C3_4  and  O1_16 
REMARK    3  A    between atoms: C4_5  and  C5_6 
REMARK    4  A    between atoms: C6_7  and  N1_8 
REMARK    5  A    between atoms: N1_8  and  C7_9 
REMARK    6  A    between atoms: O1_16  and  C12_17 
REMARK    7  A    between atoms: C12_17  and  C13_18 
ROOT
HETATM    1  C3  UNL     1      23.782   0.386  53.158  1.00  0.00     0.086 C 
HETATM    2  C4  UNL     1      23.809   1.447  52.371  1.00  0.00     0.039 C 
ENDROOT
BRANCH   1   3
HETATM    3  C2  UNL     1      22.663  -0.100  53.950  1.00  0.00     0.042 A 
HETATM    4  C1  UNL     1      22.468  -1.203  54.657  1.00  0.00     0.155 A 
HETATM    5 CL1  UNL     1      21.043   0.171  54.552  1.00  0.00    -0.179 Cl
ENDBRANCH   1   3
BRANCH   1   6
HETATM    6  O1  UNL     1      24.854  -0.455  53.357  1.00  0.00    -0.345 OA
BRANCH   6   7
HETATM    7  C12 UNL     1      25.858  -0.674  52.382  1.00  0.00     0.214 C 
BRANCH   7   8
HETATM    8  C13 UNL     1      27.222  -0.294  52.894  1.00  0.00    -0.031 A 
HETATM    9  C14 UNL     1      28.209  -1.203  53.218  1.00  0.00     0.009 A 
HETATM   10  C15 UNL     1      29.416  -0.698  53.678  1.00  0.00     0.004 A 
HETATM   11  C16 UNL     1      29.678   0.648  53.826  1.00  0.00     0.042 A 
HETATM   12  C17 UNL     1      28.679   1.568  53.499  1.00  0.00     0.117 A 
HETATM   13  F1  UNL     1      28.891   2.900  53.629  1.00  0.00    -0.206 F 
HETATM   14  C18 UNL     1      27.478   1.070  53.041  1.00  0.00     0.051 A 
ENDBRANCH   7   8
ENDBRANCH   6   7
ENDBRANCH   1   6
BRANCH   2  15
HETATM   15  C5  UNL     1      22.618   2.270  52.232  1.00  0.00     0.020 C 
HETATM   16  C6  UNL     1      22.512   3.041  51.161  1.00  0.00     0.090 C 
BRANCH  16  17
HETATM   17  N1  UNL     1      23.569   3.021  50.207  1.00  0.00    -0.351 N 
HETATM   18  H6  UNL     1      23.839   2.243  49.593  1.00  0.00     0.166 HD
BRANCH  17  19
HETATM   19  C7  UNL     1      24.322   4.249  50.121  1.00  0.00     0.130 A 
HETATM   20  C8  UNL     1      25.501   4.282  49.370  1.00  0.00     0.077 A 
HETATM   21  C9  UNL     1      26.177   5.507  49.332  1.00  0.00     0.035 A 
HETATM   22  C10 UNL     1      27.444   5.642  48.558  1.00  0.00     0.070 C 
HETATM   23  N2  UNL     1      25.740   6.607  49.974  1.00  0.00    -0.247 NA
HETATM   24  C11 UNL     1      24.593   6.526  50.690  1.00  0.00     0.235 A 
HETATM   25  N3  UNL     1      23.908   5.364  50.753  1.00  0.00    -0.224 NA
ENDBRANCH  17  19
ENDBRANCH  16  17
ENDBRANCH   2  15
TORSDOF 7
ENDMDL
MODEL 4
REMARK VINA RESULT:      -7.1      3.332      6.105
REMARK  7 active torsions:
REMARK  status: ('A' for Active; 'I' for Inactive)
REMARK    1  A    between atoms: C2_2  and  C3_4 
REMARK    2  A    between atoms: C3_4  and  O1_16 
REMARK    3  A    between atoms: C4_5  and  C5_6 
REMARK    4  A    between atoms: C6_7  and  N1_8 
REMARK    5  A    between atoms: N1_8  and  C7_9 
REMARK    6  A    between atoms: O1_16  and  C12_17 
REMARK    7  A    between atoms: C12_17  and  C13_18 
ROOT
HETATM    1  C3  UNL     1      24.240   1.482  53.063  1.00  0.00     0.086 C 
HETATM    2  C4  UNL     1      24.565   2.725  52.753  1.00  0.00     0.039 C 
ENDROOT
BRANCH   1   3
HETATM    3  C2  UNL     1      23.002   0.787  52.748  1.00  0.00     0.042 A 
HETATM    4  C1  UNL     1      22.173   0.047  53.468  1.00  0.00     0.155 A 
HETATM    5 CL1  UNL     1      21.798   0.371  51.550  1.00  0.00    -0.179 Cl
ENDBRANCH   1   3
BRANCH   1   6
HETATM    6  O1  UNL     1      25.058   0.622  53.762  1.00  0.00    -0.345 OA
BRANCH   6   7
HETATM    7  C12 UNL     1      25.601  -0.559  53.200  1.00  0.00     0.214 C 
BRANCH   7   8
HETATM    8  C13 UNL     1      27.099  -0.605  53.342  1.00  0.00    -0.031 A 
HETATM    9  C14 UNL     1      27.881  -1.675  52.957  1.00  0.00     0.009 A 
HETATM   10  C15 UNL     1      29.250  -1.568  53.153  1.00  0.00     0.004 A 
HETATM   11  C16 UNL     1      29.862  -0.462  53.705  1.00  0.00     0.042 A 
HETATM   12  C17 UNL     1      29.070   0.620  54.095  1.00  0.00     0.117 A 
HETATM   13  F1  UNL     1      29.628   1.728  54.642  1.00  0.00    -0.206 F 
HETATM   14  C18 UNL     1      27.709   0.519  53.902  1.00  0.00     0.051 A 
ENDBRANCH   7   8
ENDBRANCH   6   7
ENDBRANCH   1   6
BRANCH   2  15
HETATM   15  C5  UNL     1      23.626   3.551  52.012  1.00  0.00     0.020 C 
HETATM   16  C6  UNL     1      23.908   3.842  50.751  1.00  0.00     0.090 C 
BRANCH  16  17
HETATM   17  N1  UNL     1      25.115   3.331  50.194  1.00  0.00    -0.351 N 
HETATM   18  H6  UNL     1      25.452   2.362  50.223  1.00  0.00     0.166 HD
BRANCH  17  19
HETATM   19  C7  UNL     1      25.928   4.315  49.522  1.00  0.00     0.130 A 
HETATM   20  C8  UNL     1      25.383   5.568  49.222  1.00  0.00     0.077 A 
HETATM   21  C9  UNL     1      26.229   6.472  48.571  1.00  0.00     0.035 A 
HETATM   22  C10 UNL     1      25.739   7.833  48.209  1.00  0.00     0.070 C 
HETATM   23  N2  UNL     1      27.501   6.179  48.239  1.00  0.00    -0.247 NA
HETATM   24  C11 UNL     1      27.984   4.952  48.550  1.00  0.00     0.235 A 
HETATM   25  N3  UNL     1      27.202   4.049  49.179  1.00  0.00    -0.224 NA
ENDBRANCH  17  19
ENDBRANCH  16  17
ENDBRANCH   2  15
TORSDOF 7
ENDMDL
MODEL 5
REMARK VINA RESULT:      -6.9      1.683      2.077
REMARK  7 active torsions:
REMARK  status: ('A' for Active; 'I' for Inactive)
REMARK    1  A    between atoms: C2_2  and  C3_4 
REMARK    2  A    between atoms: C3_4  and  O1_16 
REMARK    3  A    between atoms: C4_5  and  C5_6 
REMARK    4  A    between atoms: C6_7  and  N1_8 
REMARK    5  A    between atoms: N1_8  and  C7_9 
REMARK    6  A    between atoms: O1_16  and  C12_17 
REMARK    7  A    between atoms: C12_17  and  C13_18 
ROOT
HETATM    1  C3  UNL     1      22.935   3.375  50.043  1.00  0.00     0.086 C 
HETATM    2  C4  UNL     1      24.110   3.184  49.469  1.00  0.00     0.039 C 
ENDROOT
BRANCH   1   3
HETATM    3  C2  UNL     1      22.549   4.464  50.927  1.00  0.00     0.042 A 
HETATM    4  C1  UNL     1      21.986   4.499  52.124  1.00  0.00     0.155 A 
HETATM    5 CL1  UNL     1      22.463   6.189  51.206  1.00  0.00    -0.179 Cl
ENDBRANCH   1   3
BRANCH   1   6
HETATM    6  O1  UNL     1      21.854   2.536  49.887  1.00  0.00    -0.345 OA
BRANCH   6   7
HETATM    7  C12 UNL     1      21.934   1.132  50.049  1.00  0.00     0.214 C 
BRANCH   7   8
HETATM    8  C13 UNL     1      21.598   0.715  51.457  1.00  0.00    -0.031 A 
HETATM    9  C14 UNL     1      22.500   0.720  52.502  1.00  0.00     0.009 A 
HETATM   10  C15 UNL     1      22.040   0.307  53.743  1.00  0.00     0.004 A 
HETATM   11  C16 UNL     1      20.745  -0.104  53.985  1.00  0.00     0.042 A 
HETATM   12  C17 UNL     1      19.834  -0.110  52.927  1.00  0.00     0.117 A 
HETATM   13  F1  UNL     1      18.551  -0.505  53.116  1.00  0.00    -0.206 F 
HETATM   14  C18 UNL     1      20.286   0.300  51.691  1.00  0.00     0.051 A 
ENDBRANCH   7   8
ENDBRANCH   6   7
ENDBRANCH   1   6
BRANCH   2  15
HETATM   15  C5  UNL     1      25.187   4.133  49.701  1.00  0.00     0.020 C 
HETATM   16  C6  UNL     1      26.338   3.671  50.164  1.00  0.00     0.090 C 
BRANCH  16  17
HETATM   17  N1  UNL     1      26.456   2.273  50.409  1.00  0.00    -0.351 N 
HETATM   18  H6  UNL     1      26.297   1.509  49.741  1.00  0.00     0.166 HD
BRANCH  17  19
HETATM   19  C7  UNL     1      26.843   1.932  51.756  1.00  0.00     0.130 A 
HETATM   20  C8  UNL     1      26.088   0.998  52.473  1.00  0.00     0.077 A 
HETATM   21  C9  UNL     1      26.524   0.716  53.773  1.00  0.00     0.035 A 
HETATM   22  C10 UNL     1      25.784  -0.265  54.617  1.00  0.00     0.070 C 
HETATM   23  N2  UNL     1      27.605   1.297  54.327  1.00  0.00    -0.247 NA
HETATM   24  C11 UNL     1      28.305   2.195  53.593  1.00  0.00     0.235 A 
HETATM   25  N3  UNL     1      27.920   2.497  52.335  1.00  0.00    -0.224 NA
ENDBRANCH  17  19
ENDBRANCH  16  17
ENDBRANCH   2  15
TORSDOF 7
ENDMDL
MODEL 6
REMARK VINA RESULT:      -6.9      3.555      6.303
REMARK  7 active torsions:
REMARK  status: ('A' for Active; 'I' for Inactive)
REMARK    1  A    between atoms: C2_2  and  C3_4 
REMARK    2  A    between atoms: C3_4  and  O1_16 
REMARK    3  A    between atoms: C4_5  and  C5_6 
REMARK    4  A    between atoms: C6_7  and  N1_8 
REMARK    5  A    between atoms: N1_8  and  C7_9 
REMARK    6  A    between atoms: O1_16  and  C12_17 
REMARK    7  A    between atoms: C12_17  and  C13_18 
ROOT
HETATM    1  C3  UNL     1      24.335   1.445  52.700  1.00  0.00     0.086 C 
HETATM    2  C4  UNL     1      24.756   2.687  52.865  1.00  0.00     0.039 C 
ENDROOT
BRANCH   1   3
HETATM    3  C2  UNL     1      22.966   0.958  52.775  1.00  0.00     0.042 A 
HETATM    4  C1  UNL     1      22.075   0.623  51.855  1.00  0.00     0.155 A 
HETATM    5 CL1  UNL     1      21.610   0.492  53.777  1.00  0.00    -0.179 Cl
ENDBRANCH   1   3
BRANCH   1   6
HETATM    6  O1  UNL     1      25.162   0.380  52.422  1.00  0.00    -0.345 OA
BRANCH   6   7
HETATM    7  C12 UNL     1      25.630  -0.517  53.413  1.00  0.00     0.214 C 
BRANCH   7   8
HETATM    8  C13 UNL     1      27.133  -0.511  53.503  1.00  0.00    -0.031 A 
HETATM    9  C14 UNL     1      27.938  -1.545  53.071  1.00  0.00     0.009 A 
HETATM   10  C15 UNL     1      29.308  -1.392  53.222  1.00  0.00     0.004 A 
HETATM   11  C16 UNL     1      29.900  -0.275  53.774  1.00  0.00     0.042 A 
HETATM   12  C17 UNL     1      29.085   0.770  54.212  1.00  0.00     0.117 A 
HETATM   13  F1  UNL     1      29.621   1.888  54.760  1.00  0.00    -0.206 F 
HETATM   14  C18 UNL     1      27.722   0.623  54.063  1.00  0.00     0.051 A 
ENDBRANCH   7   8
ENDBRANCH   6   7
ENDBRANCH   1   6
BRANCH   2  15
HETATM   15  C5  UNL     1      23.796   3.739  53.156  1.00  0.00     0.020 C 
HETATM   16  C6  UNL     1      23.687   4.743  52.299  1.00  0.00     0.090 C 
BRANCH  16  17
HETATM   17  N1  UNL     1      24.518   4.735  51.141  1.00  0.00    -0.351 N 
HETATM   18  H6  UNL     1      25.539   4.831  51.108  1.00  0.00     0.166 HD
BRANCH  17  19
HETATM   19  C7  UNL     1      23.807   4.570  49.897  1.00  0.00     0.130 A 
HETATM   20  C8  UNL     1      23.429   3.288  49.485  1.00  0.00     0.077 A 
HETATM   21  C9  UNL     1      22.742   3.206  48.269  1.00  0.00     0.035 A 
HETATM   22  C10 UNL     1      22.297   1.882  47.746  1.00  0.00     0.070 C 
HETATM   23  N2  UNL     1      22.449   4.283  47.516  1.00  0.00    -0.247 NA
HETATM   24  C11 UNL     1      22.837   5.505  47.956  1.00  0.00     0.235 A 
HETATM   25  N3  UNL     1      23.502   5.630  49.125  1.00  0.00    -0.224 NA
ENDBRANCH  17  19
ENDBRANCH  16  17
ENDBRANCH   2  15
TORSDOF 7
ENDMDL
MODEL 7
REMARK VINA RESULT:      -6.9      6.097      8.803
REMARK  7 active torsions:
REMARK  status: ('A' for Active; 'I' for Inactive)
REMARK    1  A    between atoms: C2_2  and  C3_4 
REMARK    2  A    between atoms: C3_4  and  O1_16 
REMARK    3  A    between atoms: C4_5  and  C5_6 
REMARK    4  A    between atoms: C6_7  and  N1_8 
REMARK    5  A    between atoms: N1_8  and  C7_9 
REMARK    6  A    between atoms: O1_16  and  C12_17 
REMARK    7  A    between atoms: C12_17  and  C13_18 
ROOT
HETATM    1  C3  UNL     1      28.798   5.723  48.217  1.00  0.00     0.086 C 
HETATM    2  C4  UNL     1      27.924   4.801  48.583  1.00  0.00     0.039 C 
ENDROOT
BRANCH   1   3
HETATM    3  C2  UNL     1      28.575   7.156  48.101  1.00  0.00     0.042 A 
HETATM    4  C1  UNL     1      28.483   7.975  47.065  1.00  0.00     0.155 A 
HETATM    5 CL1  UNL     1      28.306   8.685  48.906  1.00  0.00    -0.179 Cl
ENDBRANCH   1   3
BRANCH   1   6
HETATM    6  O1  UNL     1      30.104   5.456  47.875  1.00  0.00    -0.345 OA
BRANCH   6   7
HETATM    7  C12 UNL     1      31.214   5.983  48.580  1.00  0.00     0.214 C 
BRANCH   7   8
HETATM    8  C13 UNL     1      32.473   5.210  48.292  1.00  0.00    -0.031 A 
HETATM    9  C14 UNL     1      33.743   5.660  48.592  1.00  0.00     0.009 A 
HETATM   10  C15 UNL     1      34.807   4.832  48.265  1.00  0.00     0.004 A 
HETATM   11  C16 UNL     1      34.663   3.598  47.664  1.00  0.00     0.042 A 
HETATM   12  C17 UNL     1      33.378   3.144  47.361  1.00  0.00     0.117 A 
HETATM   13  F1  UNL     1      33.188   1.938  46.771  1.00  0.00    -0.206 F 
HETATM   14  C18 UNL     1      32.318   3.963  47.684  1.00  0.00     0.051 A 
ENDBRANCH   7   8
ENDBRANCH   6   7
ENDBRANCH   1   6
BRANCH   2  15
HETATM   15  C5  UNL     1      26.566   5.192  48.924  1.00  0.00     0.020 C 
HETATM   16  C6  UNL     1      25.992   4.615  49.969  1.00  0.00     0.090 C 
BRANCH  16  17
HETATM   17  N1  UNL     1      26.738   3.644  50.698  1.00  0.00    -0.351 N 
HETATM   18  H6  UNL     1      27.756   3.608  50.823  1.00  0.00     0.166 HD
BRANCH  17  19
HETATM   19  C7  UNL     1      25.937   2.615  51.315  1.00  0.00     0.130 A 
HETATM   20  C8  UNL     1      26.541   1.415  51.704  1.00  0.00     0.077 A 
HETATM   21  C9  UNL     1      25.703   0.464  52.297  1.00  0.00     0.035 A 
HETATM   22  C10 UNL     1      26.254  -0.847  52.745  1.00  0.00     0.070 C 
HETATM   23  N2  UNL     1      24.386   0.665  52.493  1.00  0.00    -0.247 NA
HETATM   24  C11 UNL     1      23.846   1.844  52.099  1.00  0.00     0.235 A 
HETATM   25  N3  UNL     1      24.619   2.790  51.523  1.00  0.00    -0.224 NA
ENDBRANCH  17  19
ENDBRANCH  16  17
ENDBRANCH   2  15
TORSDOF 7
ENDMDL
MODEL 8
REMARK VINA RESULT:      -6.9      5.265      6.893
REMARK  7 active torsions:
REMARK  status: ('A' for Active; 'I' for Inactive)
REMARK    1  A    between atoms: C2_2  and  C3_4 
REMARK    2  A    between atoms: C3_4  and  O1_16 
REMARK    3  A    between atoms: C4_5  and  C5_6 
REMARK    4  A    between atoms: C6_7  and  N1_8 
REMARK    5  A    between atoms: N1_8  and  C7_9 
REMARK    6  A    between atoms: O1_16  and  C12_17 
REMARK    7  A    between atoms: C12_17  and  C13_18 
ROOT
HETATM    1  C3  UNL     1      26.763   4.324  49.252  1.00  0.00     0.086 C 
HETATM    2  C4  UNL     1      27.856   4.744  48.638  1.00  0.00     0.039 C 
ENDROOT
BRANCH   1   3
HETATM    3  C2  UNL     1      25.561   5.090  49.540  1.00  0.00     0.042 A 
HETATM    4  C1  UNL     1      24.419   5.259  48.891  1.00  0.00     0.155 A 
HETATM    5 CL1  UNL     1      24.714   6.168  50.627  1.00  0.00    -0.179 Cl
ENDBRANCH   1   3
BRANCH   1   6
HETATM    6  O1  UNL     1      26.590   3.045  49.731  1.00  0.00    -0.345 OA
BRANCH   6   7
HETATM    7  C12 UNL     1      25.899   2.754  50.932  1.00  0.00     0.214 C 
BRANCH   7   8
HETATM    8  C13 UNL     1      26.674   1.801  51.803  1.00  0.00    -0.031 A 
HETATM    9  C14 UNL     1      26.498   0.432  51.800  1.00  0.00     0.009 A 
HETATM   10  C15 UNL     1      27.289  -0.314  52.660  1.00  0.00     0.004 A 
HETATM   11  C16 UNL     1      28.230   0.232  53.508  1.00  0.00     0.042 A 
HETATM   12  C17 UNL     1      28.407   1.618  53.511  1.00  0.00     0.117 A 
HETATM   13  F1  UNL     1      29.320   2.200  54.326  1.00  0.00    -0.206 F 
HETATM   14  C18 UNL     1      27.624   2.364  52.657  1.00  0.00     0.051 A 
ENDBRANCH   7   8
ENDBRANCH   6   7
ENDBRANCH   1   6
BRANCH   2  15
HETATM   15  C5  UNL     1      27.936   6.118  48.171  1.00  0.00     0.020 C 
HETATM   16  C6  UNL     1      29.058   6.788  48.385  1.00  0.00     0.090 C 
BRANCH  16  17
HETATM   17  N1  UNL     1      30.121   6.125  49.062  1.00  0.00    -0.351 N 
HETATM   18  H6  UNL     1      30.086   5.673  49.983  1.00  0.00     0.166 HD
BRANCH  17  19
HETATM   19  C7  UNL     1      31.370   6.107  48.340  1.00  0.00     0.130 A 
HETATM   20  C8  UNL     1      32.564   5.896  49.037  1.00  0.00     0.077 A 
HETATM   21  C9  UNL     1      33.736   5.890  48.271  1.00  0.00     0.035 A 
HETATM   22  C10 UNL     1      35.059   5.673  48.924  1.00  0.00     0.070 C 
HETATM   23  N2  UNL     1      33.742   6.076  46.938  1.00  0.00    -0.247 NA
HETATM   24  C11 UNL     1      32.560   6.277  46.307  1.00  0.00     0.235 A 
HETATM   25  N3  UNL     1      31.406   6.289  47.007  1.00  0.00    -0.224 NA
ENDBRANCH  17  19
ENDBRANCH  16  17
ENDBRANCH   2  15
TORSDOF 7
ENDMDL
MODEL 9
REMARK VINA RESULT:      -6.8      4.178      6.655
REMARK  7 active torsions:
REMARK  status: ('A' for Active; 'I' for Inactive)
REMARK    1  A    between atoms: C2_2  and  C3_4 
REMARK    2  A    between atoms: C3_4  and  O1_16 
REMARK    3  A    between atoms: C4_5  and  C5_6 
REMARK    4  A    between atoms: C6_7  and  N1_8 
REMARK    5  A    between atoms: N1_8  and  C7_9 
REMARK    6  A    between atoms: O1_16  and  C12_17 
REMARK    7  A    between atoms: C12_17  and  C13_18 
ROOT
HETATM    1  C3  UNL     1      24.876   4.433  50.341  1.00  0.00     0.086 C 
HETATM    2  C4  UNL     1      24.840   3.269  50.968  1.00  0.00     0.039 C 
ENDROOT
BRANCH   1   3
HETATM    3  C2  UNL     1      24.164   5.650  50.694  1.00  0.00     0.042 A 
HETATM    4  C1  UNL     1      24.562   6.881  50.976  1.00  0.00     0.155 A 
HETATM    5 CL1  UNL     1      22.631   6.438  50.996  1.00  0.00    -0.179 Cl
ENDBRANCH   1   3
BRANCH   1   6
HETATM    6  O1  UNL     1      25.624   4.678  49.211  1.00  0.00    -0.345 OA
BRANCH   6   7
HETATM    7  C12 UNL     1      27.009   4.393  49.121  1.00  0.00     0.214 C 
BRANCH   7   8
HETATM    8  C13 UNL     1      27.767   5.521  48.475  1.00  0.00    -0.031 A 
HETATM    9  C14 UNL     1      29.119   5.486  48.198  1.00  0.00     0.009 A 
HETATM   10  C15 UNL     1      29.676   6.607  47.599  1.00  0.00     0.004 A 
HETATM   11  C16 UNL     1      28.960   7.738  47.271  1.00  0.00     0.042 A 
HETATM   12  C17 UNL     1      27.592   7.773  47.552  1.00  0.00     0.117 A 
HETATM   13  F1  UNL     1      26.847   8.864  47.247  1.00  0.00    -0.206 F 
HETATM   14  C18 UNL     1      27.034   6.662  48.147  1.00  0.00     0.051 A 
ENDBRANCH   7   8
ENDBRANCH   6   7
ENDBRANCH   1   6
BRANCH   2  15
HETATM   15  C5  UNL     1      24.014   3.117  52.155  1.00  0.00     0.020 C 
HETATM   16  C6  UNL     1      24.613   2.830  53.301  1.00  0.00     0.090 C 
BRANCH  16  17
HETATM   17  N1  UNL     1      26.030   2.685  53.305  1.00  0.00    -0.351 N 
HETATM   18  H6  UNL     1      26.731   3.434  53.262  1.00  0.00     0.166 HD
BRANCH  17  19
HETATM   19  C7  UNL     1      26.491   1.321  53.380  1.00  0.00     0.130 A 
HETATM   20  C8  UNL     1      27.865   1.061  53.431  1.00  0.00     0.077 A 
HETATM   21  C9  UNL     1      28.239  -0.285  53.504  1.00  0.00     0.035 A 
HETATM   22  C10 UNL     1      29.680  -0.663  53.562  1.00  0.00     0.070 C 
HETATM   23  N2  UNL     1      27.348  -1.295  53.524  1.00  0.00    -0.247 NA
HETATM   24  C11 UNL     1      26.028  -0.994  53.471  1.00  0.00     0.235 A 
HETATM   25  N3  UNL     1      25.623   0.292  53.401  1.00  0.00    -0.224 NA
ENDBRANCH  17  19
ENDBRANCH  16  17
ENDBRANCH   2  15
TORSDOF 7
ENDMDL
