MODEL 1
REMARK VINA RESULT:      -7.7      0.000      0.000
REMARK  6 active torsions:
REMARK  status: ('A' for Active; 'I' for Inactive)
REMARK    1  A    between atoms: C6_6  and  C7_7 
REMARK    2  A    between atoms: C7_7  and  N1_8 
REMARK    3  A    between atoms: N1_8  and  C8_9 
REMARK    4  A    between atoms: N1_8  and  C15_17 
REMARK    5  A    between atoms: C8_9  and  C9_10 
REMARK    6  A    between atoms: C18_20  and  O1_21 
ROOT
HETATM    1  N1  UNL     1      25.246   0.200  53.094  1.00  0.00    -0.376 N 
ENDROOT
BRANCH   1   2
HETATM    2  C7  UNL     1      25.205   1.650  53.137  1.00  0.00     0.164 C 
BRANCH   2   3
HETATM    3  C6  UNL     1      25.057   2.295  51.834  1.00  0.00    -0.007 A 
HETATM    4  C5  UNL     1      23.810   2.266  51.214  1.00  0.00     0.011 A 
HETATM    5  C4  UNL     1      23.539   2.829  49.981  1.00  0.00     0.001 A 
HETATM    6  C3  UNL     1      24.556   3.465  49.302  1.00  0.00     0.009 A 
HETATM    7  C2  UNL     1      25.795   3.512  49.884  1.00  0.00    -0.028 A 
HETATM    8  C1  UNL     1      26.873   4.208  49.123  1.00  0.00     0.051 C 
HETATM    9  C18 UNL     1      26.034   2.942  51.115  1.00  0.00     0.079 A 
BRANCH   9  10
HETATM   10  O1  UNL     1      27.294   3.013  51.664  1.00  0.00    -0.360 OA
HETATM   11  H18 UNL     1      27.515   2.926  52.630  1.00  0.00     0.217 HD
ENDBRANCH   9  10
ENDBRANCH   2   3
ENDBRANCH   1   2
BRANCH   1  12
HETATM   12  C8  UNL     1      26.037  -0.561  52.149  1.00  0.00     0.161 C 
BRANCH  12  13
HETATM   13  C9  UNL     1      27.383  -0.784  52.753  1.00  0.00    -0.040 A 
HETATM   14  C10 UNL     1      28.167   0.201  53.325  1.00  0.00     0.012 A 
HETATM   15  C11 UNL     1      29.397  -0.151  53.848  1.00  0.00     0.043 A 
HETATM   16  C12 UNL     1      29.845  -1.475  53.803  1.00  0.00     0.116 A 
HETATM   17  F1  UNL     1      31.065  -1.793  54.329  1.00  0.00    -0.206 F 
HETATM   18  C13 UNL     1      29.059  -2.460  53.229  1.00  0.00     0.043 A 
HETATM   19  C14 UNL     1      27.814  -2.106  52.699  1.00  0.00     0.012 A 
ENDBRANCH  12  13
ENDBRANCH   1  12
BRANCH   1  20
HETATM   20  C15 UNL     1      24.434  -0.488  54.071  1.00  0.00     0.007 A 
HETATM   21  C16 UNL     1      23.219  -0.903  54.416  1.00  0.00     0.004 A 
HETATM   22  C17 UNL     1      24.260  -1.231  55.364  1.00  0.00     0.085 A 
ENDBRANCH   1  20
TORSDOF 6
ENDMDL
MODEL 2
REMARK VINA RESULT:      -7.5      3.349      6.599
REMARK  6 active torsions:
REMARK  status: ('A' for Active; 'I' for Inactive)
REMARK    1  A    between atoms: C6_6  and  C7_7 
REMARK    2  A    between atoms: C7_7  and  N1_8 
REMARK    3  A    between atoms: N1_8  and  C8_9 
REMARK    4  A    between atoms: N1_8  and  C15_17 
REMARK    5  A    between atoms: C8_9  and  C9_10 
REMARK    6  A    between atoms: C18_20  and  O1_21 
ROOT
HETATM    1  N1  UNL     1      24.323   3.496  51.664  1.00  0.00    -0.376 N 
ENDROOT
BRANCH   1   2
HETATM    2  C7  UNL     1      24.553   3.240  53.075  1.00  0.00     0.164 C 
BRANCH   2   3
HETATM    3  C6  UNL     1      25.114   1.925  53.374  1.00  0.00    -0.007 A 
HETATM    4  C5  UNL     1      24.318   0.800  53.174  1.00  0.00     0.011 A 
HETATM    5  C4  UNL     1      24.724  -0.497  53.426  1.00  0.00     0.001 A 
HETATM    6  C3  UNL     1      25.997  -0.714  53.909  1.00  0.00     0.009 A 
HETATM    7  C2  UNL     1      26.806   0.371  54.117  1.00  0.00    -0.028 A 
HETATM    8  C1  UNL     1      28.177   0.102  54.640  1.00  0.00     0.051 C 
HETATM    9  C18 UNL     1      26.372   1.652  53.856  1.00  0.00     0.079 A 
BRANCH   9  10
HETATM   10  O1  UNL     1      27.219   2.715  54.078  1.00  0.00    -0.360 OA
HETATM   11  H18 UNL     1      27.069   3.455  54.725  1.00  0.00     0.217 HD
ENDBRANCH   9  10
ENDBRANCH   2   3
ENDBRANCH   1   2
BRANCH   1  12
HETATM   12  C8  UNL     1      23.043   3.877  51.107  1.00  0.00     0.161 C 
BRANCH  12  13
HETATM   13  C9  UNL     1      22.135   2.696  51.194  1.00  0.00    -0.040 A 
HETATM   14  C10 UNL     1      22.225   1.568  50.400  1.00  0.00     0.012 A 
HETATM   15  C11 UNL     1      21.314   0.547  50.592  1.00  0.00     0.043 A 
HETATM   16  C12 UNL     1      20.318   0.647  51.569  1.00  0.00     0.116 A 
HETATM   17  F1  UNL     1      19.432  -0.380  51.736  1.00  0.00    -0.206 F 
HETATM   18  C13 UNL     1      20.229   1.776  52.363  1.00  0.00     0.043 A 
HETATM   19  C14 UNL     1      21.151   2.811  52.171  1.00  0.00     0.012 A 
ENDBRANCH  12  13
ENDBRANCH   1  12
BRANCH   1  20
HETATM   20  C15 UNL     1      25.470   3.348  50.798  1.00  0.00     0.007 A 
HETATM   21  C16 UNL     1      26.417   2.540  50.332  1.00  0.00     0.004 A 
HETATM   22  C17 UNL     1      26.461   3.886  49.807  1.00  0.00     0.085 A 
ENDBRANCH   1  20
TORSDOF 6
ENDMDL
MODEL 3
REMARK VINA RESULT:      -7.4      3.066      6.172
REMARK  6 active torsions:
REMARK  status: ('A' for Active; 'I' for Inactive)
REMARK    1  A    between atoms: C6_6  and  C7_7 
REMARK    2  A    between atoms: C7_7  and  N1_8 
REMARK    3  A    between atoms: N1_8  and  C8_9 
REMARK    4  A    between atoms: N1_8  and  C15_17 
REMARK    5  A    between atoms: C8_9  and  C9_10 
REMARK    6  A    between atoms: C18_20  and  O1_21 
ROOT
HETATM    1  N1  UNL     1      24.939   3.133  51.450  1.00  0.00    -0.376 N 
ENDROOT
BRANCH   1   2
HETATM    2  C7  UNL     1      26.356   2.839  51.338  1.00  0.00     0.164 C 
BRANCH   2   3
HETATM    3  C6  UNL     1      26.786   1.630  52.038  1.00  0.00    -0.007 A 
HETATM    4  C5  UNL     1      26.417   0.393  51.518  1.00  0.00     0.011 A 
HETATM    5  C4  UNL     1      26.750  -0.822  52.087  1.00  0.00     0.001 A 
HETATM    6  C3  UNL     1      27.494  -0.833  53.247  1.00  0.00     0.009 A 
HETATM    7  C2  UNL     1      27.873   0.369  53.786  1.00  0.00    -0.028 A 
HETATM    8  C1  UNL     1      28.677   0.323  55.042  1.00  0.00     0.051 C 
HETATM    9  C18 UNL     1      27.526   1.563  53.195  1.00  0.00     0.079 A 
BRANCH   9  10
HETATM   10  O1  UNL     1      27.929   2.748  53.769  1.00  0.00    -0.360 OA
HETATM   11  H18 UNL     1      28.134   2.889  54.732  1.00  0.00     0.217 HD
ENDBRANCH   9  10
ENDBRANCH   2   3
ENDBRANCH   1   2
BRANCH   1  12
HETATM   12  C8  UNL     1      24.232   3.253  52.708  1.00  0.00     0.161 C 
BRANCH  12  13
HETATM   13  C9  UNL     1      23.059   2.333  52.663  1.00  0.00    -0.040 A 
HETATM   14  C10 UNL     1      21.768   2.711  52.339  1.00  0.00     0.012 A 
HETATM   15  C11 UNL     1      20.776   1.748  52.337  1.00  0.00     0.043 A 
HETATM   16  C12 UNL     1      21.065   0.417  52.656  1.00  0.00     0.116 A 
HETATM   17  F1  UNL     1      20.064  -0.512  52.644  1.00  0.00    -0.206 F 
HETATM   18  C13 UNL     1      22.357   0.041  52.980  1.00  0.00     0.043 A 
HETATM   19  C14 UNL     1      23.363   1.013  52.982  1.00  0.00     0.012 A 
ENDBRANCH  12  13
ENDBRANCH   1  12
BRANCH   1  20
HETATM   20  C15 UNL     1      24.227   3.309  50.205  1.00  0.00     0.007 A 
HETATM   21  C16 UNL     1      23.804   4.160  49.275  1.00  0.00     0.004 A 
HETATM   22  C17 UNL     1      23.451   2.778  49.035  1.00  0.00     0.085 A 
ENDBRANCH   1  20
TORSDOF 6
ENDMDL
MODEL 4
REMARK VINA RESULT:      -7.4      2.997      6.107
REMARK  6 active torsions:
REMARK  status: ('A' for Active; 'I' for Inactive)
REMARK    1  A    between atoms: C6_6  and  C7_7 
REMARK    2  A    between atoms: C7_7  and  N1_8 
REMARK    3  A    between atoms: N1_8  and  C8_9 
REMARK    4  A    between atoms: N1_8  and  C15_17 
REMARK    5  A    between atoms: C8_9  and  C9_10 
REMARK    6  A    between atoms: C18_20  and  O1_21 
ROOT
HETATM    1  N1  UNL     1      23.377   3.093  51.639  1.00  0.00    -0.376 N 
ENDROOT
BRANCH   1   2
HETATM    2  C7  UNL     1      24.207   3.171  52.827  1.00  0.00     0.164 C 
BRANCH   2   3
HETATM    3  C6  UNL     1      24.773   1.896  53.262  1.00  0.00    -0.007 A 
HETATM    4  C5  UNL     1      23.987   0.751  53.164  1.00  0.00     0.011 A 
HETATM    5  C4  UNL     1      24.398  -0.511  53.548  1.00  0.00     0.001 A 
HETATM    6  C3  UNL     1      25.665  -0.670  54.067  1.00  0.00     0.009 A 
HETATM    7  C2  UNL     1      26.464   0.437  54.177  1.00  0.00    -0.028 A 
HETATM    8  C1  UNL     1      27.830   0.231  54.741  1.00  0.00     0.051 C 
HETATM    9  C18 UNL     1      26.026   1.682  53.784  1.00  0.00     0.079 A 
BRANCH   9  10
HETATM   10  O1  UNL     1      26.863   2.768  53.911  1.00  0.00    -0.360 OA
HETATM   11  H18 UNL     1      26.827   3.451  54.633  1.00  0.00     0.217 HD
ENDBRANCH   9  10
ENDBRANCH   2   3
ENDBRANCH   1   2
BRANCH   1  12
HETATM   12  C8  UNL     1      23.846   2.627  50.351  1.00  0.00     0.161 C 
BRANCH  12  13
HETATM   13  C9  UNL     1      24.739   3.677  49.781  1.00  0.00    -0.040 A 
HETATM   14  C10 UNL     1      24.325   4.932  49.372  1.00  0.00     0.012 A 
HETATM   15  C11 UNL     1      25.265   5.807  48.862  1.00  0.00     0.043 A 
HETATM   16  C12 UNL     1      26.610   5.437  48.759  1.00  0.00     0.116 A 
HETATM   17  F1  UNL     1      27.517   6.325  48.252  1.00  0.00    -0.206 F 
HETATM   18  C13 UNL     1      27.023   4.182  49.169  1.00  0.00     0.043 A 
HETATM   19  C14 UNL     1      26.073   3.294  49.685  1.00  0.00     0.012 A 
ENDBRANCH  12  13
ENDBRANCH   1  12
BRANCH   1  20
HETATM   20  C15 UNL     1      22.004   3.516  51.794  1.00  0.00     0.007 A 
HETATM   21  C16 UNL     1      21.089   4.446  51.536  1.00  0.00     0.004 A 
HETATM   22  C17 UNL     1      20.606   3.320  52.304  1.00  0.00     0.085 A 
ENDBRANCH   1  20
TORSDOF 6
ENDMDL
MODEL 5
REMARK VINA RESULT:      -7.3      1.800      2.719
REMARK  6 active torsions:
REMARK  status: ('A' for Active; 'I' for Inactive)
REMARK    1  A    between atoms: C6_6  and  C7_7 
REMARK    2  A    between atoms: C7_7  and  N1_8 
REMARK    3  A    between atoms: N1_8  and  C8_9 
REMARK    4  A    between atoms: N1_8  and  C15_17 
REMARK    5  A    between atoms: C8_9  and  C9_10 
REMARK    6  A    between atoms: C18_20  and  O1_21 
ROOT
HETATM    1  N1  UNL     1      23.614   1.136  52.897  1.00  0.00    -0.376 N 
ENDROOT
BRANCH   1   2
HETATM    2  C7  UNL     1      24.168   2.470  53.038  1.00  0.00     0.164 C 
BRANCH   2   3
HETATM    3  C6  UNL     1      24.774   3.011  51.823  1.00  0.00    -0.007 A 
HETATM    4  C5  UNL     1      25.947   2.430  51.348  1.00  0.00     0.011 A 
HETATM    5  C4  UNL     1      26.623   2.851  50.218  1.00  0.00     0.001 A 
HETATM    6  C3  UNL     1      26.123   3.916  49.501  1.00  0.00     0.009 A 
HETATM    7  C2  UNL     1      24.970   4.511  49.942  1.00  0.00    -0.028 A 
HETATM    8  C1  UNL     1      24.455   5.661  49.143  1.00  0.00     0.051 C 
HETATM    9  C18 UNL     1      24.319   4.068  51.071  1.00  0.00     0.079 A 
BRANCH   9  10
HETATM   10  O1  UNL     1      23.162   4.694  51.478  1.00  0.00    -0.360 OA
HETATM   11  H18 UNL     1      22.981   5.671  51.434  1.00  0.00     0.217 HD
ENDBRANCH   9  10
ENDBRANCH   2   3
ENDBRANCH   1   2
BRANCH   1  12
HETATM   12  C8  UNL     1      23.956   0.021  53.754  1.00  0.00     0.161 C 
BRANCH  12  13
HETATM   13  C9  UNL     1      25.441  -0.127  53.743  1.00  0.00    -0.040 A 
HETATM   14  C10 UNL     1      26.297   0.403  54.691  1.00  0.00     0.012 A 
HETATM   15  C11 UNL     1      27.655   0.185  54.555  1.00  0.00     0.043 A 
HETATM   16  C12 UNL     1      28.159  -0.555  53.481  1.00  0.00     0.116 A 
HETATM   17  F1  UNL     1      29.507  -0.755  53.373  1.00  0.00    -0.206 F 
HETATM   18  C13 UNL     1      27.302  -1.085  52.533  1.00  0.00     0.043 A 
HETATM   19  C14 UNL     1      25.927  -0.867  52.669  1.00  0.00     0.012 A 
ENDBRANCH  12  13
ENDBRANCH   1  12
BRANCH   1  20
HETATM   20  C15 UNL     1      22.666   0.953  51.821  1.00  0.00     0.007 A 
HETATM   21  C16 UNL     1      21.534   0.383  51.420  1.00  0.00     0.004 A 
HETATM   22  C17 UNL     1      22.187   1.199  50.421  1.00  0.00     0.085 A 
ENDBRANCH   1  20
TORSDOF 6
ENDMDL
MODEL 6
REMARK VINA RESULT:      -7.3      3.625      6.484
REMARK  6 active torsions:
REMARK  status: ('A' for Active; 'I' for Inactive)
REMARK    1  A    between atoms: C6_6  and  C7_7 
REMARK    2  A    between atoms: C7_7  and  N1_8 
REMARK    3  A    between atoms: N1_8  and  C8_9 
REMARK    4  A    between atoms: N1_8  and  C15_17 
REMARK    5  A    between atoms: C8_9  and  C9_10 
REMARK    6  A    between atoms: C18_20  and  O1_21 
ROOT
HETATM    1  N1  UNL     1      24.504   1.213  52.707  1.00  0.00    -0.376 N 
ENDROOT
BRANCH   1   2
HETATM    2  C7  UNL     1      25.657   0.996  51.852  1.00  0.00     0.164 C 
BRANCH   2   3
HETATM    3  C6  UNL     1      26.937   0.944  52.555  1.00  0.00    -0.007 A 
HETATM    4  C5  UNL     1      27.514   2.139  52.977  1.00  0.00     0.011 A 
HETATM    5  C4  UNL     1      28.722   2.229  53.642  1.00  0.00     0.001 A 
HETATM    6  C3  UNL     1      29.420   1.071  53.913  1.00  0.00     0.009 A 
HETATM    7  C2  UNL     1      28.880  -0.122  53.511  1.00  0.00    -0.028 A 
HETATM    8  C1  UNL     1      29.661  -1.355  53.820  1.00  0.00     0.051 C 
HETATM    9  C18 UNL     1      27.673  -0.178  52.850  1.00  0.00     0.079 A 
BRANCH   9  10
HETATM   10  O1  UNL     1      27.166  -1.399  52.465  1.00  0.00    -0.360 OA
HETATM   11  H18 UNL     1      26.469  -1.548  51.772  1.00  0.00     0.217 HD
ENDBRANCH   9  10
ENDBRANCH   2   3
ENDBRANCH   1   2
BRANCH   1  12
HETATM   12  C8  UNL     1      23.846   0.167  53.461  1.00  0.00     0.161 C 
BRANCH  12  13
HETATM   13  C9  UNL     1      22.415   0.129  53.039  1.00  0.00    -0.040 A 
HETATM   14  C10 UNL     1      21.971   0.240  51.734  1.00  0.00     0.012 A 
HETATM   15  C11 UNL     1      20.612   0.187  51.489  1.00  0.00     0.043 A 
HETATM   16  C12 UNL     1      19.699   0.024  52.536  1.00  0.00     0.116 A 
HETATM   17  F1  UNL     1      18.361  -0.025  52.262  1.00  0.00    -0.206 F 
HETATM   18  C13 UNL     1      20.145  -0.087  53.841  1.00  0.00     0.043 A 
HETATM   19  C14 UNL     1      21.520  -0.034  54.091  1.00  0.00     0.012 A 
ENDBRANCH  12  13
ENDBRANCH   1  12
BRANCH   1  20
HETATM   20  C15 UNL     1      24.015   2.570  52.781  1.00  0.00     0.007 A 
HETATM   21  C16 UNL     1      24.092   3.750  53.389  1.00  0.00     0.004 A 
HETATM   22  C17 UNL     1      23.125   3.686  52.317  1.00  0.00     0.085 A 
ENDBRANCH   1  20
TORSDOF 6
ENDMDL
MODEL 7
REMARK VINA RESULT:      -7.2      2.831      5.937
REMARK  6 active torsions:
REMARK  status: ('A' for Active; 'I' for Inactive)
REMARK    1  A    between atoms: C6_6  and  C7_7 
REMARK    2  A    between atoms: C7_7  and  N1_8 
REMARK    3  A    between atoms: N1_8  and  C8_9 
REMARK    4  A    between atoms: N1_8  and  C15_17 
REMARK    5  A    between atoms: C8_9  and  C9_10 
REMARK    6  A    between atoms: C18_20  and  O1_21 
ROOT
HETATM    1  N1  UNL     1      26.419   0.675  53.412  1.00  0.00    -0.376 N 
ENDROOT
BRANCH   1   2
HETATM    2  C7  UNL     1      25.527  -0.294  52.802  1.00  0.00     0.164 C 
BRANCH   2   3
HETATM    3  C6  UNL     1      24.248  -0.464  53.487  1.00  0.00    -0.007 A 
HETATM    4  C5  UNL     1      24.239  -1.071  54.740  1.00  0.00     0.011 A 
HETATM    5  C4  UNL     1      23.099  -1.299  55.488  1.00  0.00     0.001 A 
HETATM    6  C3  UNL     1      21.880  -0.908  54.978  1.00  0.00     0.009 A 
HETATM    7  C2  UNL     1      21.853  -0.307  53.747  1.00  0.00    -0.028 A 
HETATM    8  C1  UNL     1      20.517   0.104  53.225  1.00  0.00     0.051 C 
HETATM    9  C18 UNL     1      23.007  -0.094  53.026  1.00  0.00     0.079 A 
BRANCH   9  10
HETATM   10  O1  UNL     1      22.935   0.515  51.793  1.00  0.00    -0.360 OA
HETATM   11  H18 UNL     1      23.337   0.175  50.950  1.00  0.00     0.217 HD
ENDBRANCH   9  10
ENDBRANCH   2   3
ENDBRANCH   1   2
BRANCH   1  12
HETATM   12  C8  UNL     1      26.091   2.073  53.599  1.00  0.00     0.161 C 
BRANCH  12  13
HETATM   13  C9  UNL     1      25.796   2.658  52.258  1.00  0.00    -0.040 A 
HETATM   14  C10 UNL     1      26.644   2.605  51.167  1.00  0.00     0.012 A 
HETATM   15  C11 UNL     1      26.238   3.191  49.983  1.00  0.00     0.043 A 
HETATM   16  C12 UNL     1      24.995   3.825  49.883  1.00  0.00     0.116 A 
HETATM   17  F1  UNL     1      24.621   4.395  48.699  1.00  0.00    -0.206 F 
HETATM   18  C13 UNL     1      24.148   3.877  50.976  1.00  0.00     0.043 A 
HETATM   19  C14 UNL     1      24.556   3.285  52.176  1.00  0.00     0.012 A 
ENDBRANCH  12  13
ENDBRANCH   1  12
BRANCH   1  20
HETATM   20  C15 UNL     1      27.703   0.173  53.844  1.00  0.00     0.007 A 
HETATM   21  C16 UNL     1      28.594   0.094  54.828  1.00  0.00     0.004 A 
HETATM   22  C17 UNL     1      28.976  -0.586  53.611  1.00  0.00     0.085 A 
ENDBRANCH   1  20
TORSDOF 6
ENDMDL
MODEL 8
REMARK VINA RESULT:      -7.2      2.697      4.550
REMARK  6 active torsions:
REMARK  status: ('A' for Active; 'I' for Inactive)
REMARK    1  A    between atoms: C6_6  and  C7_7 
REMARK    2  A    between atoms: C7_7  and  N1_8 
REMARK    3  A    between atoms: N1_8  and  C8_9 
REMARK    4  A    between atoms: N1_8  and  C15_17 
REMARK    5  A    between atoms: C8_9  and  C9_10 
REMARK    6  A    between atoms: C18_20  and  O1_21 
ROOT
HETATM    1  N1  UNL     1      26.673   0.709  53.242  1.00  0.00    -0.376 N 
ENDROOT
BRANCH   1   2
HETATM    2  C7  UNL     1      26.166   2.067  53.314  1.00  0.00     0.164 C 
BRANCH   2   3
HETATM    3  C6  UNL     1      25.754   2.634  52.032  1.00  0.00    -0.007 A 
HETATM    4  C5  UNL     1      26.680   2.673  50.993  1.00  0.00     0.011 A 
HETATM    5  C4  UNL     1      26.421   3.190  49.738  1.00  0.00     0.001 A 
HETATM    6  C3  UNL     1      25.171   3.708  49.475  1.00  0.00     0.009 A 
HETATM    7  C2  UNL     1      24.237   3.686  50.477  1.00  0.00    -0.028 A 
HETATM    8  C1  UNL     1      22.894   4.254  50.161  1.00  0.00     0.051 C 
HETATM    9  C18 UNL     1      24.525   3.163  51.718  1.00  0.00     0.079 A 
BRANCH   9  10
HETATM   10  O1  UNL     1      23.555   3.159  52.695  1.00  0.00    -0.360 OA
HETATM   11  H18 UNL     1      22.609   3.443  52.580  1.00  0.00     0.217 HD
ENDBRANCH   9  10
ENDBRANCH   2   3
ENDBRANCH   1   2
BRANCH   1  12
HETATM   12  C8  UNL     1      25.952  -0.395  52.644  1.00  0.00     0.161 C 
BRANCH  12  13
HETATM   13  C9  UNL     1      24.683  -0.580  53.406  1.00  0.00    -0.040 A 
HETATM   14  C10 UNL     1      24.604  -1.001  54.722  1.00  0.00     0.012 A 
HETATM   15  C11 UNL     1      23.356  -1.128  55.303  1.00  0.00     0.043 A 
HETATM   16  C12 UNL     1      22.194  -0.839  54.581  1.00  0.00     0.116 A 
HETATM   17  F1  UNL     1      20.975  -0.973  55.183  1.00  0.00    -0.206 F 
HETATM   18  C13 UNL     1      22.275  -0.418  53.266  1.00  0.00     0.043 A 
HETATM   19  C14 UNL     1      23.536  -0.288  52.675  1.00  0.00     0.012 A 
ENDBRANCH  12  13
ENDBRANCH   1  12
BRANCH   1  20
HETATM   20  C15 UNL     1      27.981   0.488  53.816  1.00  0.00     0.007 A 
HETATM   21  C16 UNL     1      28.682   0.157  54.896  1.00  0.00     0.004 A 
HETATM   22  C17 UNL     1      29.478   0.442  53.723  1.00  0.00     0.085 A 
ENDBRANCH   1  20
TORSDOF 6
ENDMDL
MODEL 9
REMARK VINA RESULT:      -7.2      2.172      4.789
REMARK  6 active torsions:
REMARK  status: ('A' for Active; 'I' for Inactive)
REMARK    1  A    between atoms: C6_6  and  C7_7 
REMARK    2  A    between atoms: C7_7  and  N1_8 
REMARK    3  A    between atoms: N1_8  and  C8_9 
REMARK    4  A    between atoms: N1_8  and  C15_17 
REMARK    5  A    between atoms: C8_9  and  C9_10 
REMARK    6  A    between atoms: C18_20  and  O1_21 
ROOT
HETATM    1  N1  UNL     1      24.907   2.270  51.723  1.00  0.00    -0.376 N 
ENDROOT
BRANCH   1   2
HETATM    2  C7  UNL     1      23.874   1.397  51.197  1.00  0.00     0.164 C 
BRANCH   2   3
HETATM    3  C6  UNL     1      22.769   1.135  52.117  1.00  0.00    -0.007 A 
HETATM    4  C5  UNL     1      21.704   2.031  52.151  1.00  0.00     0.011 A 
HETATM    5  C4  UNL     1      20.605   1.904  52.980  1.00  0.00     0.001 A 
HETATM    6  C3  UNL     1      20.539   0.828  53.838  1.00  0.00     0.009 A 
HETATM    7  C2  UNL     1      21.572  -0.073  53.830  1.00  0.00    -0.028 A 
HETATM    8  C1  UNL     1      21.470  -1.226  54.771  1.00  0.00     0.051 C 
HETATM    9  C18 UNL     1      22.653   0.081  52.992  1.00  0.00     0.079 A 
BRANCH   9  10
HETATM   10  O1  UNL     1      23.669  -0.849  53.015  1.00  0.00    -0.360 OA
HETATM   11  H18 UNL     1      23.665  -1.704  53.522  1.00  0.00     0.217 HD
ENDBRANCH   9  10
ENDBRANCH   2   3
ENDBRANCH   1   2
BRANCH   1  12
HETATM   12  C8  UNL     1      25.311   2.302  53.113  1.00  0.00     0.161 C 
BRANCH  12  13
HETATM   13  C9  UNL     1      26.613   1.581  53.228  1.00  0.00    -0.040 A 
HETATM   14  C10 UNL     1      26.802   0.239  52.951  1.00  0.00     0.012 A 
HETATM   15  C11 UNL     1      28.067  -0.297  53.101  1.00  0.00     0.043 A 
HETATM   16  C12 UNL     1      29.138   0.496  53.525  1.00  0.00     0.116 A 
HETATM   17  F1  UNL     1      30.377  -0.062  53.663  1.00  0.00    -0.206 F 
HETATM   18  C13 UNL     1      28.947   1.838  53.801  1.00  0.00     0.043 A 
HETATM   19  C14 UNL     1      27.668   2.384  53.650  1.00  0.00     0.012 A 
ENDBRANCH  12  13
ENDBRANCH   1  12
BRANCH   1  20
HETATM   20  C15 UNL     1      25.546   3.146  50.768  1.00  0.00     0.007 A 
HETATM   21  C16 UNL     1      26.495   3.287  49.847  1.00  0.00     0.004 A 
HETATM   22  C17 UNL     1      25.689   4.467  50.070  1.00  0.00     0.085 A 
ENDBRANCH   1  20
TORSDOF 6
ENDMDL
