MODEL 1
REMARK VINA RESULT:      -7.9      0.000      0.000
REMARK  6 active torsions:
REMARK  status: ('A' for Active; 'I' for Inactive)
REMARK    1  A    between atoms: C2_2  and  O1_3 
REMARK    2  A    between atoms: C2_2  and  C4_5 
REMARK    3  A    between atoms: C4_5  and  O2_23 
REMARK    4  A    between atoms: C5_6  and  C6_7 
REMARK    5  A    between atoms: C8_11  and  N3_12 
REMARK    6  A    between atoms: N3_12  and  C9_13 
ROOT
HETATM    1  C6  UNL     1      23.071   2.410  52.518  1.00  0.00     0.083 A 
HETATM    2  N1  UNL     1      22.330   3.410  52.271  1.00  0.00    -0.243 NA
HETATM    3  C7  UNL     1      23.068   4.471  51.739  1.00  0.00     0.230 A 
HETATM    4  N2  UNL     1      24.301   4.155  51.643  1.00  0.00    -0.250 NA
HETATM    5  C8  UNL     1      24.465   2.809  52.125  1.00  0.00     0.276 A 
ENDROOT
BRANCH   5   6
HETATM    6  N3  UNL     1      25.217   2.818  53.392  1.00  0.00    -0.192 N 
HETATM    7  H9  UNL     1      24.979   3.435  54.221  1.00  0.00     0.180 HD
BRANCH   6   8
HETATM    8  C9  UNL     1      26.354   1.941  53.547  1.00  0.00     0.743 A 
HETATM    9  N4  UNL     1      27.485   2.364  54.144  1.00  0.00     0.044 NA
HETATM   10  N5  UNL     1      28.528   1.544  54.280  1.00  0.00    -0.132 NA
HETATM   11  C10 UNL     1      28.446   0.269  53.811  1.00  0.00     0.109 A 
HETATM   12  C11 UNL     1      29.559  -0.565  53.970  1.00  0.00     0.036 A 
HETATM   13  C15 UNL     1      27.291  -0.211  53.184  1.00  0.00     0.106 A 
HETATM   14  C12 UNL     1      29.437  -1.848  53.481  1.00  0.00     0.003 A 
HETATM   15  C13 UNL     1      28.310  -2.330  52.865  1.00  0.00     0.002 A 
HETATM   16  C14 UNL     1      27.224  -1.507  52.713  1.00  0.00     0.035 A 
HETATM   17  N6  UNL     1      26.283   0.686  53.089  1.00  0.00    -0.059 NA
ENDBRANCH   6   8
ENDBRANCH   5   6
BRANCH   1  18
HETATM   18  C5  UNL     1      22.717   1.092  53.079  1.00  0.00     0.070 C 
HETATM   19  C4  UNL     1      21.905   0.188  52.571  1.00  0.00     0.099 C 
BRANCH  19  20
HETATM   20  C2  UNL     1      21.173   0.312  51.324  1.00  0.00     0.079 C 
HETATM   21  C1  UNL     1      19.855   0.336  51.376  1.00  0.00     0.074 C 
BRANCH  20  22
HETATM   22  O1  UNL     1      21.479   0.423  49.991  1.00  0.00    -0.357 OA
HETATM   23  C3  UNL     1      20.999   1.412  49.135  1.00  0.00     0.209 C 
ENDBRANCH  20  22
ENDBRANCH  19  20
BRANCH  19  24
HETATM   24  O2  UNL     1      21.730  -0.996  53.296  1.00  0.00    -0.353 OA
HETATM   25  C16 UNL     1      21.819  -1.092  54.688  1.00  0.00     0.210 C 
ENDBRANCH  19  24
ENDBRANCH   1  18
TORSDOF 6
ENDMDL
MODEL 2
REMARK VINA RESULT:      -7.5      2.519      6.198
REMARK  6 active torsions:
REMARK  status: ('A' for Active; 'I' for Inactive)
REMARK    1  A    between atoms: C2_2  and  O1_3 
REMARK    2  A    between atoms: C2_2  and  C4_5 
REMARK    3  A    between atoms: C4_5  and  O2_23 
REMARK    4  A    between atoms: C5_6  and  C6_7 
REMARK    5  A    between atoms: C8_11  and  N3_12 
REMARK    6  A    between atoms: N3_12  and  C9_13 
ROOT
HETATM    1  C6  UNL     1      26.103   1.007  53.632  1.00  0.00     0.083 A 
HETATM    2  N1  UNL     1      27.350   0.817  53.771  1.00  0.00    -0.243 NA
HETATM    3  C7  UNL     1      27.688  -0.521  53.547  1.00  0.00     0.230 A 
HETATM    4  N2  UNL     1      26.649  -1.204  53.260  1.00  0.00    -0.250 NA
HETATM    5  C8  UNL     1      25.509  -0.327  53.277  1.00  0.00     0.276 A 
ENDROOT
BRANCH   5   6
HETATM    6  N3  UNL     1      24.639  -0.657  54.421  1.00  0.00    -0.192 N 
HETATM    7  H9  UNL     1      24.988  -0.808  55.410  1.00  0.00     0.180 HD
BRANCH   6   8
HETATM    8  C9  UNL     1      23.216  -0.789  54.213  1.00  0.00     0.743 A 
HETATM    9  N4  UNL     1      22.447  -1.487  55.071  1.00  0.00     0.044 NA
HETATM   10  N5  UNL     1      21.134  -1.601  54.867  1.00  0.00    -0.132 NA
HETATM   11  C10 UNL     1      20.569  -1.006  53.781  1.00  0.00     0.109 A 
HETATM   12  C11 UNL     1      19.188  -1.147  53.597  1.00  0.00     0.036 A 
HETATM   13  C15 UNL     1      21.330  -0.273  52.864  1.00  0.00     0.106 A 
HETATM   14  C12 UNL     1      18.653  -0.530  52.485  1.00  0.00     0.003 A 
HETATM   15  C13 UNL     1      19.389   0.191  51.580  1.00  0.00     0.002 A 
HETATM   16  C14 UNL     1      20.741   0.324  51.768  1.00  0.00     0.035 A 
HETATM   17  N6  UNL     1      22.651  -0.207  53.148  1.00  0.00    -0.059 NA
ENDBRANCH   6   8
ENDBRANCH   5   6
BRANCH   1  18
HETATM   18  C5  UNL     1      25.319   2.249  53.773  1.00  0.00     0.070 C 
HETATM   19  C4  UNL     1      24.654   2.897  52.838  1.00  0.00     0.099 C 
BRANCH  19  20
HETATM   20  C2  UNL     1      24.559   2.508  51.443  1.00  0.00     0.079 C 
HETATM   21  C1  UNL     1      25.569   2.802  50.646  1.00  0.00     0.074 C 
BRANCH  20  22
HETATM   22  O1  UNL     1      23.648   1.868  50.641  1.00  0.00    -0.357 OA
HETATM   23  C3  UNL     1      22.958   2.453  49.582  1.00  0.00     0.209 C 
ENDBRANCH  20  22
ENDBRANCH  19  20
BRANCH  19  24
HETATM   24  O2  UNL     1      23.981   4.062  53.221  1.00  0.00    -0.353 OA
HETATM   25  C16 UNL     1      23.249   4.876  52.351  1.00  0.00     0.210 C 
ENDBRANCH  19  24
ENDBRANCH   1  18
TORSDOF 6
ENDMDL
MODEL 3
REMARK VINA RESULT:      -7.4      2.805      5.983
REMARK  6 active torsions:
REMARK  status: ('A' for Active; 'I' for Inactive)
REMARK    1  A    between atoms: C2_2  and  O1_3 
REMARK    2  A    between atoms: C2_2  and  C4_5 
REMARK    3  A    between atoms: C4_5  and  O2_23 
REMARK    4  A    between atoms: C5_6  and  C6_7 
REMARK    5  A    between atoms: C8_11  and  N3_12 
REMARK    6  A    between atoms: N3_12  and  C9_13 
ROOT
HETATM    1  C6  UNL     1      23.978  -0.237  54.046  1.00  0.00     0.083 A 
HETATM    2  N1  UNL     1      23.164  -1.111  54.474  1.00  0.00    -0.243 NA
HETATM    3  C7  UNL     1      22.073  -1.253  53.612  1.00  0.00     0.230 A 
HETATM    4  N2  UNL     1      22.181  -0.461  52.617  1.00  0.00    -0.250 NA
HETATM    5  C8  UNL     1      23.401   0.287  52.762  1.00  0.00     0.276 A 
ENDROOT
BRANCH   5   6
HETATM    6  N3  UNL     1      23.092   1.700  53.047  1.00  0.00    -0.192 N 
HETATM    7  H9  UNL     1      22.486   2.025  53.853  1.00  0.00     0.180 HD
BRANCH   6   8
HETATM    8  C9  UNL     1      23.635   2.730  52.192  1.00  0.00     0.743 A 
HETATM    9  N4  UNL     1      23.033   3.929  52.075  1.00  0.00     0.044 NA
HETATM   10  N5  UNL     1      23.545   4.871  51.282  1.00  0.00    -0.132 NA
HETATM   11  C10 UNL     1      24.685   4.615  50.584  1.00  0.00     0.109 A 
HETATM   12  C11 UNL     1      25.194   5.626  49.761  1.00  0.00     0.036 A 
HETATM   13  C15 UNL     1      25.342   3.383  50.675  1.00  0.00     0.106 A 
HETATM   14  C12 UNL     1      26.351   5.328  49.071  1.00  0.00     0.003 A 
HETATM   15  C13 UNL     1      27.004   4.125  49.151  1.00  0.00     0.002 A 
HETATM   16  C14 UNL     1      26.498   3.140  49.961  1.00  0.00     0.035 A 
HETATM   17  N6  UNL     1      24.756   2.488  51.502  1.00  0.00    -0.059 NA
ENDBRANCH   6   8
ENDBRANCH   5   6
BRANCH   1  18
HETATM   18  C5  UNL     1      25.250   0.231  54.630  1.00  0.00     0.070 C 
HETATM   19  C4  UNL     1      26.475  -0.064  54.244  1.00  0.00     0.099 C 
BRANCH  19  20
HETATM   20  C2  UNL     1      26.827  -0.933  53.136  1.00  0.00     0.079 C 
HETATM   21  C1  UNL     1      26.849  -0.415  51.923  1.00  0.00     0.074 C 
BRANCH  20  22
HETATM   22  O1  UNL     1      27.174  -2.250  52.967  1.00  0.00    -0.357 OA
HETATM   23  C3  UNL     1      28.476  -2.744  52.960  1.00  0.00     0.209 C 
ENDBRANCH  20  22
ENDBRANCH  19  20
BRANCH  19  24
HETATM   24  O2  UNL     1      27.529   0.509  54.963  1.00  0.00    -0.353 OA
HETATM   25  C16 UNL     1      28.881   0.359  54.640  1.00  0.00     0.210 C 
ENDBRANCH  19  24
ENDBRANCH   1  18
TORSDOF 6
ENDMDL
MODEL 4
REMARK VINA RESULT:      -7.2      2.150      3.631
REMARK  6 active torsions:
REMARK  status: ('A' for Active; 'I' for Inactive)
REMARK    1  A    between atoms: C2_2  and  O1_3 
REMARK    2  A    between atoms: C2_2  and  C4_5 
REMARK    3  A    between atoms: C4_5  and  O2_23 
REMARK    4  A    between atoms: C5_6  and  C6_7 
REMARK    5  A    between atoms: C8_11  and  N3_12 
REMARK    6  A    between atoms: N3_12  and  C9_13 
ROOT
HETATM    1  C6  UNL     1      21.883   0.751  52.116  1.00  0.00     0.083 A 
HETATM    2  N1  UNL     1      20.708   0.291  52.256  1.00  0.00    -0.243 NA
HETATM    3  C7  UNL     1      20.496  -0.173  53.558  1.00  0.00     0.230 A 
HETATM    4  N2  UNL     1      21.545  -0.013  54.267  1.00  0.00    -0.250 NA
HETATM    5  C8  UNL     1      22.561   0.592  53.447  1.00  0.00     0.276 A 
ENDROOT
BRANCH   5   6
HETATM    6  N3  UNL     1      23.643  -0.376  53.194  1.00  0.00    -0.192 N 
HETATM    7  H9  UNL     1      23.488  -1.369  52.860  1.00  0.00     0.180 HD
BRANCH   6   8
HETATM    8  C9  UNL     1      25.015   0.025  53.405  1.00  0.00     0.743 A 
HETATM    9  N4  UNL     1      25.323   1.276  53.800  1.00  0.00     0.044 NA
HETATM   10  N5  UNL     1      26.594   1.633  53.990  1.00  0.00    -0.132 NA
HETATM   11  C10 UNL     1      27.586   0.725  53.782  1.00  0.00     0.109 A 
HETATM   12  C11 UNL     1      28.909   1.134  53.990  1.00  0.00     0.036 A 
HETATM   13  C15 UNL     1      27.311  -0.584  53.370  1.00  0.00     0.106 A 
HETATM   14  C12 UNL     1      29.885   0.185  53.769  1.00  0.00     0.003 A 
HETATM   15  C13 UNL     1      29.627  -1.100  53.366  1.00  0.00     0.002 A 
HETATM   16  C14 UNL     1      28.328  -1.492  53.164  1.00  0.00     0.035 A 
HETATM   17  N6  UNL     1      25.997  -0.861  53.203  1.00  0.00    -0.059 NA
ENDBRANCH   6   8
ENDBRANCH   5   6
BRANCH   1  18
HETATM   18  C5  UNL     1      22.528   1.336  50.926  1.00  0.00     0.070 C 
HETATM   19  C4  UNL     1      22.719   2.611  50.653  1.00  0.00     0.099 C 
BRANCH  19  20
HETATM   20  C2  UNL     1      22.320   3.726  51.492  1.00  0.00     0.079 C 
HETATM   21  C1  UNL     1      23.226   4.260  52.288  1.00  0.00     0.074 C 
BRANCH  20  22
HETATM   22  O1  UNL     1      21.176   4.449  51.719  1.00  0.00    -0.357 OA
HETATM   23  C3  UNL     1      19.977   4.295  51.029  1.00  0.00     0.209 C 
ENDBRANCH  20  22
ENDBRANCH  19  20
BRANCH  19  24
HETATM   24  O2  UNL     1      23.362   2.920  49.449  1.00  0.00    -0.353 OA
HETATM   25  C16 UNL     1      22.706   3.321  48.282  1.00  0.00     0.210 C 
ENDBRANCH  19  24
ENDBRANCH   1  18
TORSDOF 6
ENDMDL
MODEL 5
REMARK VINA RESULT:      -7.2      2.257      3.880
REMARK  6 active torsions:
REMARK  status: ('A' for Active; 'I' for Inactive)
REMARK    1  A    between atoms: C2_2  and  O1_3 
REMARK    2  A    between atoms: C2_2  and  C4_5 
REMARK    3  A    between atoms: C4_5  and  O2_23 
REMARK    4  A    between atoms: C5_6  and  C6_7 
REMARK    5  A    between atoms: C8_11  and  N3_12 
REMARK    6  A    between atoms: N3_12  and  C9_13 
ROOT
HETATM    1  C6  UNL     1      22.469   3.019  52.216  1.00  0.00     0.083 A 
HETATM    2  N1  UNL     1      21.315   2.690  51.806  1.00  0.00    -0.243 NA
HETATM    3  C7  UNL     1      21.050   1.341  52.059  1.00  0.00     0.230 A 
HETATM    4  N2  UNL     1      22.045   0.791  52.638  1.00  0.00    -0.250 NA
HETATM    5  C8  UNL     1      23.075   1.780  52.813  1.00  0.00     0.276 A 
ENDROOT
BRANCH   5   6
HETATM    6  N3  UNL     1      24.220   1.473  51.938  1.00  0.00    -0.192 N 
HETATM    7  H9  UNL     1      24.158   1.391  50.883  1.00  0.00     0.180 HD
BRANCH   6   8
HETATM    8  C9  UNL     1      25.524   1.266  52.524  1.00  0.00     0.743 A 
HETATM    9  N4  UNL     1      26.151   2.252  53.195  1.00  0.00     0.044 NA
HETATM   10  N5  UNL     1      27.355   2.047  53.731  1.00  0.00    -0.132 NA
HETATM   11  C10 UNL     1      27.953   0.831  53.598  1.00  0.00     0.109 A 
HETATM   12  C11 UNL     1      29.217   0.652  54.173  1.00  0.00     0.036 A 
HETATM   13  C15 UNL     1      27.337  -0.219  52.909  1.00  0.00     0.106 A 
HETATM   14  C12 UNL     1      29.789  -0.593  54.015  1.00  0.00     0.003 A 
HETATM   15  C13 UNL     1      29.195  -1.630  53.343  1.00  0.00     0.002 A 
HETATM   16  C14 UNL     1      27.957  -1.446  52.783  1.00  0.00     0.035 A 
HETATM   17  N6  UNL     1      26.119   0.074  52.399  1.00  0.00    -0.059 NA
ENDBRANCH   6   8
ENDBRANCH   5   6
BRANCH   1  18
HETATM   18  C5  UNL     1      23.153   4.325  52.157  1.00  0.00     0.070 C 
HETATM   19  C4  UNL     1      23.886   4.812  51.176  1.00  0.00     0.099 C 
BRANCH  19  20
HETATM   20  C2  UNL     1      24.177   4.139  49.923  1.00  0.00     0.079 C 
HETATM   21  C1  UNL     1      23.315   4.271  48.933  1.00  0.00     0.074 C 
BRANCH  20  22
HETATM   22  O1  UNL     1      25.172   3.338  49.425  1.00  0.00    -0.357 OA
HETATM   23  C3  UNL     1      26.531   3.476  49.700  1.00  0.00     0.209 C 
ENDBRANCH  20  22
ENDBRANCH  19  20
BRANCH  19  24
HETATM   24  O2  UNL     1      24.433   6.087  51.356  1.00  0.00    -0.353 OA
HETATM   25  C16 UNL     1      23.835   7.273  50.921  1.00  0.00     0.210 C 
ENDBRANCH  19  24
ENDBRANCH   1  18
TORSDOF 6
ENDMDL
MODEL 6
REMARK VINA RESULT:      -7.1      3.172      7.875
REMARK  6 active torsions:
REMARK  status: ('A' for Active; 'I' for Inactive)
REMARK    1  A    between atoms: C2_2  and  O1_3 
REMARK    2  A    between atoms: C2_2  and  C4_5 
REMARK    3  A    between atoms: C4_5  and  O2_23 
REMARK    4  A    between atoms: C5_6  and  C6_7 
REMARK    5  A    between atoms: C8_11  and  N3_12 
REMARK    6  A    between atoms: N3_12  and  C9_13 
ROOT
HETATM    1  C6  UNL     1      24.459  -0.558  54.089  1.00  0.00     0.083 A 
HETATM    2  N1  UNL     1      24.868  -0.872  55.248  1.00  0.00    -0.243 NA
HETATM    3  C7  UNL     1      23.885  -1.559  55.966  1.00  0.00     0.230 A 
HETATM    4  N2  UNL     1      22.827  -1.689  55.264  1.00  0.00    -0.250 NA
HETATM    5  C8  UNL     1      23.051  -1.071  53.984  1.00  0.00     0.276 A 
ENDROOT
BRANCH   5   6
HETATM    6  N3  UNL     1      22.225   0.143  53.862  1.00  0.00    -0.192 N 
HETATM    7  H9  UNL     1      22.444   1.062  54.341  1.00  0.00     0.180 HD
BRANCH   6   8
HETATM    8  C9  UNL     1      21.036   0.111  53.041  1.00  0.00     0.743 A 
HETATM    9  N4  UNL     1      21.007   0.706  51.833  1.00  0.00     0.044 NA
HETATM   10  N5  UNL     1      19.903   0.669  51.086  1.00  0.00    -0.132 NA
HETATM   11  C10 UNL     1      18.797   0.025  51.551  1.00  0.00     0.109 A 
HETATM   12  C11 UNL     1      17.656   0.007  50.741  1.00  0.00     0.036 A 
HETATM   13  C15 UNL     1      18.785  -0.605  52.800  1.00  0.00     0.106 A 
HETATM   14  C12 UNL     1      16.557  -0.655  51.248  1.00  0.00     0.003 A 
HETATM   15  C13 UNL     1      16.533  -1.277  52.470  1.00  0.00     0.002 A 
HETATM   16  C14 UNL     1      17.656  -1.254  53.257  1.00  0.00     0.035 A 
HETATM   17  N6  UNL     1      19.945  -0.520  53.490  1.00  0.00    -0.059 NA
ENDBRANCH   6   8
ENDBRANCH   5   6
BRANCH   1  18
HETATM   18  C5  UNL     1      25.157   0.164  53.008  1.00  0.00     0.070 C 
HETATM   19  C4  UNL     1      26.350  -0.085  52.507  1.00  0.00     0.099 C 
BRANCH  19  20
HETATM   20  C2  UNL     1      27.241  -1.148  52.931  1.00  0.00     0.079 C 
HETATM   21  C1  UNL     1      27.089  -2.340  52.386  1.00  0.00     0.074 C 
BRANCH  20  22
HETATM   22  O1  UNL     1      28.286  -1.289  53.809  1.00  0.00    -0.357 OA
HETATM   23  C3  UNL     1      29.402  -0.458  53.872  1.00  0.00     0.209 C 
ENDBRANCH  20  22
ENDBRANCH  19  20
BRANCH  19  24
HETATM   24  O2  UNL     1      26.798   0.748  51.477  1.00  0.00    -0.353 OA
HETATM   25  C16 UNL     1      26.434   2.090  51.328  1.00  0.00     0.210 C 
ENDBRANCH  19  24
ENDBRANCH   1  18
TORSDOF 6
ENDMDL
MODEL 7
REMARK VINA RESULT:      -7.1      2.425      2.975
REMARK  6 active torsions:
REMARK  status: ('A' for Active; 'I' for Inactive)
REMARK    1  A    between atoms: C2_2  and  O1_3 
REMARK    2  A    between atoms: C2_2  and  C4_5 
REMARK    3  A    between atoms: C4_5  and  O2_23 
REMARK    4  A    between atoms: C5_6  and  C6_7 
REMARK    5  A    between atoms: C8_11  and  N3_12 
REMARK    6  A    between atoms: N3_12  and  C9_13 
ROOT
HETATM    1  C6  UNL     1      24.782   4.261  50.541  1.00  0.00     0.083 A 
HETATM    2  N1  UNL     1      25.435   5.066  49.809  1.00  0.00    -0.243 NA
HETATM    3  C7  UNL     1      26.633   4.496  49.370  1.00  0.00     0.230 A 
HETATM    4  N2  UNL     1      26.758   3.309  49.824  1.00  0.00    -0.250 NA
HETATM    5  C8  UNL     1      25.603   3.005  50.626  1.00  0.00     0.276 A 
ENDROOT
BRANCH   5   6
HETATM    6  N3  UNL     1      25.988   2.913  52.045  1.00  0.00    -0.192 N 
HETATM    7  H9  UNL     1      25.581   3.520  52.813  1.00  0.00     0.180 HD
BRANCH   6   8
HETATM    8  C9  UNL     1      26.979   1.943  52.449  1.00  0.00     0.743 A 
HETATM    9  N4  UNL     1      28.177   2.328  52.930  1.00  0.00     0.044 NA
HETATM   10  N5  UNL     1      29.083   1.422  53.298  1.00  0.00    -0.132 NA
HETATM   11  C10 UNL     1      28.793   0.097  53.186  1.00  0.00     0.109 A 
HETATM   12  C11 UNL     1      29.768  -0.827  53.581  1.00  0.00     0.036 A 
HETATM   13  C15 UNL     1      27.562  -0.347  52.691  1.00  0.00     0.106 A 
HETATM   14  C12 UNL     1      29.436  -2.159  53.452  1.00  0.00     0.003 A 
HETATM   15  C13 UNL     1      28.233  -2.606  52.968  1.00  0.00     0.002 A 
HETATM   16  C14 UNL     1      27.284  -1.694  52.583  1.00  0.00     0.035 A 
HETATM   17  N6  UNL     1      26.703   0.638  52.342  1.00  0.00    -0.059 NA
ENDBRANCH   6   8
ENDBRANCH   5   6
BRANCH   1  18
HETATM   18  C5  UNL     1      23.480   4.442  51.211  1.00  0.00     0.070 C 
HETATM   19  C4  UNL     1      22.286   4.112  50.762  1.00  0.00     0.099 C 
BRANCH  19  20
HETATM   20  C2  UNL     1      22.005   3.488  49.482  1.00  0.00     0.079 C 
HETATM   21  C1  UNL     1      21.466   4.231  48.534  1.00  0.00     0.074 C 
BRANCH  20  22
HETATM   22  O1  UNL     1      22.150   2.244  48.922  1.00  0.00    -0.357 OA
HETATM   23  C3  UNL     1      21.412   1.115  49.267  1.00  0.00     0.209 C 
ENDBRANCH  20  22
ENDBRANCH  19  20
BRANCH  19  24
HETATM   24  O2  UNL     1      21.192   4.387  51.590  1.00  0.00    -0.353 OA
HETATM   25  C16 UNL     1      20.206   3.457  51.934  1.00  0.00     0.210 C 
ENDBRANCH  19  24
ENDBRANCH   1  18
TORSDOF 6
ENDMDL
MODEL 8
REMARK VINA RESULT:      -7.0      3.563      6.105
REMARK  6 active torsions:
REMARK  status: ('A' for Active; 'I' for Inactive)
REMARK    1  A    between atoms: C2_2  and  O1_3 
REMARK    2  A    between atoms: C2_2  and  C4_5 
REMARK    3  A    between atoms: C4_5  and  O2_23 
REMARK    4  A    between atoms: C5_6  and  C6_7 
REMARK    5  A    between atoms: C8_11  and  N3_12 
REMARK    6  A    between atoms: N3_12  and  C9_13 
ROOT
HETATM    1  C6  UNL     1      24.103   1.571  52.745  1.00  0.00     0.083 A 
HETATM    2  N1  UNL     1      23.014   1.141  53.235  1.00  0.00    -0.243 NA
HETATM    3  C7  UNL     1      22.016   1.060  52.260  1.00  0.00     0.230 A 
HETATM    4  N2  UNL     1      22.462   1.443  51.128  1.00  0.00    -0.250 NA
HETATM    5  C8  UNL     1      23.842   1.818  51.286  1.00  0.00     0.276 A 
ENDROOT
BRANCH   5   6
HETATM    6  N3  UNL     1      23.987   3.276  51.129  1.00  0.00    -0.192 N 
HETATM    7  H9  UNL     1      23.314   3.988  51.533  1.00  0.00     0.180 HD
BRANCH   6   8
HETATM    8  C9  UNL     1      25.108   3.800  50.383  1.00  0.00     0.743 A 
HETATM    9  N4  UNL     1      26.157   3.019  50.061  1.00  0.00     0.044 NA
HETATM   10  N5  UNL     1      27.186   3.515  49.372  1.00  0.00    -0.132 NA
HETATM   11  C10 UNL     1      27.173   4.823  48.994  1.00  0.00     0.109 A 
HETATM   12  C11 UNL     1      28.269   5.311  48.273  1.00  0.00     0.036 A 
HETATM   13  C15 UNL     1      26.104   5.669  49.308  1.00  0.00     0.106 A 
HETATM   14  C12 UNL     1      28.219   6.640  47.908  1.00  0.00     0.003 A 
HETATM   15  C13 UNL     1      27.176   7.478  48.210  1.00  0.00     0.002 A 
HETATM   16  C14 UNL     1      26.106   6.992  48.916  1.00  0.00     0.035 A 
HETATM   17  N6  UNL     1      25.104   5.083  50.006  1.00  0.00    -0.059 NA
ENDBRANCH   6   8
ENDBRANCH   5   6
BRANCH   1  18
HETATM   18  C5  UNL     1      25.401   1.810  53.403  1.00  0.00     0.070 C 
HETATM   19  C4  UNL     1      26.179   0.932  54.005  1.00  0.00     0.099 C 
BRANCH  19  20
HETATM   20  C2  UNL     1      25.903  -0.486  54.145  1.00  0.00     0.079 C 
HETATM   21  C1  UNL     1      25.081  -0.867  55.104  1.00  0.00     0.074 C 
BRANCH  20  22
HETATM   22  O1  UNL     1      26.279  -1.646  53.517  1.00  0.00    -0.357 OA
HETATM   23  C3  UNL     1      26.856  -1.725  52.251  1.00  0.00     0.209 C 
ENDBRANCH  20  22
ENDBRANCH  19  20
BRANCH  19  24
HETATM   24  O2  UNL     1      27.373   1.406  54.558  1.00  0.00    -0.353 OA
HETATM   25  C16 UNL     1      28.473   0.603  54.873  1.00  0.00     0.210 C 
ENDBRANCH  19  24
ENDBRANCH   1  18
TORSDOF 6
ENDMDL
MODEL 9
REMARK VINA RESULT:      -6.8      1.049      2.321
REMARK  6 active torsions:
REMARK  status: ('A' for Active; 'I' for Inactive)
REMARK    1  A    between atoms: C2_2  and  O1_3 
REMARK    2  A    between atoms: C2_2  and  C4_5 
REMARK    3  A    between atoms: C4_5  and  O2_23 
REMARK    4  A    between atoms: C5_6  and  C6_7 
REMARK    5  A    between atoms: C8_11  and  N3_12 
REMARK    6  A    between atoms: N3_12  and  C9_13 
ROOT
HETATM    1  C6  UNL     1      22.889   3.379  51.692  1.00  0.00     0.083 A 
HETATM    2  N1  UNL     1      22.172   4.249  52.273  1.00  0.00    -0.243 NA
HETATM    3  C7  UNL     1      22.870   4.871  53.312  1.00  0.00     0.230 A 
HETATM    4  N2  UNL     1      24.051   4.397  53.405  1.00  0.00    -0.250 NA
HETATM    5  C8  UNL     1      24.218   3.389  52.392  1.00  0.00     0.276 A 
ENDROOT
BRANCH   5   6
HETATM    6  N3  UNL     1      24.313   2.059  53.019  1.00  0.00    -0.192 N 
HETATM    7  H9  UNL     1      23.476   1.466  53.287  1.00  0.00     0.180 HD
BRANCH   6   8
HETATM    8  C9  UNL     1      25.615   1.499  53.299  1.00  0.00     0.743 A 
HETATM    9  N4  UNL     1      26.550   2.206  53.964  1.00  0.00     0.044 NA
HETATM   10  N5  UNL     1      27.748   1.677  54.215  1.00  0.00    -0.132 NA
HETATM   11  C10 UNL     1      28.027   0.413  53.794  1.00  0.00     0.109 A 
HETATM   12  C11 UNL     1      29.295  -0.110  54.074  1.00  0.00     0.036 A 
HETATM   13  C15 UNL     1      27.085  -0.356  53.100  1.00  0.00     0.106 A 
HETATM   14  C12 UNL     1      29.538  -1.394  53.632  1.00  0.00     0.003 A 
HETATM   15  C13 UNL     1      28.624  -2.156  52.951  1.00  0.00     0.002 A 
HETATM   16  C14 UNL     1      27.384  -1.636  52.681  1.00  0.00     0.035 A 
HETATM   17  N6  UNL     1      25.898   0.257  52.890  1.00  0.00    -0.059 NA
ENDBRANCH   6   8
ENDBRANCH   5   6
BRANCH   1  18
HETATM   18  C5  UNL     1      22.561   2.495  50.557  1.00  0.00     0.070 C 
HETATM   19  C4  UNL     1      21.864   1.376  50.577  1.00  0.00     0.099 C 
BRANCH  19  20
HETATM   20  C2  UNL     1      21.264   0.774  51.753  1.00  0.00     0.079 C 
HETATM   21  C1  UNL     1      19.991   0.432  51.695  1.00  0.00     0.074 C 
BRANCH  20  22
HETATM   22  O1  UNL     1      21.669   0.425  53.016  1.00  0.00    -0.357 OA
HETATM   23  C3  UNL     1      22.276  -0.780  53.363  1.00  0.00     0.209 C 
ENDBRANCH  20  22
ENDBRANCH  19  20
BRANCH  19  24
HETATM   24  O2  UNL     1      21.686   0.710  49.360  1.00  0.00    -0.353 OA
HETATM   25  C16 UNL     1      21.831   1.306  48.103  1.00  0.00     0.210 C 
ENDBRANCH  19  24
ENDBRANCH   1  18
TORSDOF 6
ENDMDL
