MODEL 1
REMARK VINA RESULT:      -8.2      0.000      0.000
REMARK  7 active torsions:
REMARK  status: ('A' for Active; 'I' for Inactive)
REMARK    1  A    between atoms: N1_3  and  C3_4 
REMARK    2  A    between atoms: C3_4  and  C13_16 
REMARK    3  A    between atoms: C4_5  and  C5_6 
REMARK    4  A    between atoms: C13_16  and  C15_18 
REMARK    5  A    between atoms: C15_18  and  C16_19 
REMARK    6  A    between atoms: C16_19  and  C17_20 
REMARK    7  A    between atoms: C17_20  and  O3_22 
ROOT
HETATM    1  C3  UNL     1      26.515   0.500  52.546  1.00  0.00     0.059 C 
HETATM    2  C4  UNL     1      25.439   0.752  53.482  1.00  0.00     0.050 C 
ENDROOT
BRANCH   1   3
HETATM    3  N1  UNL     1      26.627   1.380  51.437  1.00  0.00    -0.265 NA
HETATM    4  C2  UNL     1      26.013   2.502  51.309  1.00  0.00     0.086 C 
HETATM    5  C1  UNL     1      26.459   3.046  49.981  1.00  0.00     0.057 C 
ENDBRANCH   1   3
BRANCH   1   6
HETATM    6  C13 UNL     1      27.214  -0.582  52.939  1.00  0.00    -0.054 C 
HETATM    7  C14 UNL     1      27.214  -2.004  52.524  1.00  0.00     0.046 C 
BRANCH   6   8
HETATM    8  C15 UNL     1      28.242  -0.395  54.026  1.00  0.00     0.046 C 
BRANCH   8   9
HETATM    9  C16 UNL     1      29.367   0.439  53.497  1.00  0.00     0.114 C 
BRANCH   9  10
HETATM   10  C17 UNL     1      29.293   1.855  53.951  1.00  0.00     0.139 C 
HETATM   11  O2  UNL     1      29.450   2.204  55.167  1.00  0.00    -0.650 OA
BRANCH  10  12
HETATM   12  O3  UNL     1      29.042   2.852  53.026  1.00  0.00    -0.776 OA
HETATM   13  H18 UNL     1      29.715   3.343  52.483  1.00  0.00     0.167 HD
ENDBRANCH  10  12
ENDBRANCH   9  10
ENDBRANCH   8   9
ENDBRANCH   6   8
ENDBRANCH   1   6
BRANCH   2  14
HETATM   14  C5  UNL     1      24.373   0.089  53.814  1.00  0.00     0.047 A 
HETATM   15  C6  UNL     1      24.153  -0.893  54.867  1.00  0.00     0.257 A 
HETATM   16  O1  UNL     1      24.986  -1.325  55.683  1.00  0.00    -0.267 OA
HETATM   17  N2  UNL     1      22.797  -1.322  54.844  1.00  0.00    -0.322 N 
HETATM   18  C7  UNL     1      22.210  -0.595  53.777  1.00  0.00     0.046 A 
HETATM   19  H6  UNL     1      22.354  -2.009  55.471  1.00  0.00     0.169 HD
HETATM   20  C8  UNL     1      20.894  -0.643  53.331  1.00  0.00     0.030 A 
HETATM   21  C12 UNL     1      23.090   0.246  53.142  1.00  0.00     0.006 A 
HETATM   22  C9  UNL     1      20.500   0.141  52.272  1.00  0.00     0.002 A 
HETATM   23  C10 UNL     1      21.361   1.008  51.598  1.00  0.00     0.001 A 
HETATM   24  C11 UNL     1      22.669   1.011  52.095  1.00  0.00     0.015 A 
ENDBRANCH   2  14
TORSDOF 7
ENDMDL
MODEL 2
REMARK VINA RESULT:      -8.1      1.940      2.555
REMARK  7 active torsions:
REMARK  status: ('A' for Active; 'I' for Inactive)
REMARK    1  A    between atoms: N1_3  and  C3_4 
REMARK    2  A    between atoms: C3_4  and  C13_16 
REMARK    3  A    between atoms: C4_5  and  C5_6 
REMARK    4  A    between atoms: C13_16  and  C15_18 
REMARK    5  A    between atoms: C15_18  and  C16_19 
REMARK    6  A    between atoms: C16_19  and  C17_20 
REMARK    7  A    between atoms: C17_20  and  O3_22 
ROOT
HETATM    1  C3  UNL     1      26.090   1.566  51.885  1.00  0.00     0.059 C 
HETATM    2  C4  UNL     1      24.743   1.817  52.352  1.00  0.00     0.050 C 
ENDROOT
BRANCH   1   3
HETATM    3  N1  UNL     1      26.636   2.490  50.955  1.00  0.00    -0.265 NA
HETATM    4  C2  UNL     1      25.966   3.156  50.084  1.00  0.00     0.086 C 
HETATM    5  C1  UNL     1      26.985   3.983  49.352  1.00  0.00     0.057 C 
ENDBRANCH   1   3
BRANCH   1   6
HETATM    6  C13 UNL     1      26.564   0.439  52.452  1.00  0.00    -0.054 C 
HETATM    7  C14 UNL     1      26.643  -0.972  52.009  1.00  0.00     0.046 C 
BRANCH   6   8
HETATM    8  C15 UNL     1      27.164   0.548  53.830  1.00  0.00     0.046 C 
BRANCH   8   9
HETATM    9  C16 UNL     1      28.651   0.671  53.709  1.00  0.00     0.114 C 
BRANCH   9  10
HETATM   10  C17 UNL     1      29.133   2.058  53.958  1.00  0.00     0.139 C 
HETATM   11  O2  UNL     1      29.721   2.407  55.034  1.00  0.00    -0.650 OA
BRANCH  10  12
HETATM   12  O3  UNL     1      28.941   3.026  52.989  1.00  0.00    -0.776 OA
HETATM   13  H18 UNL     1      28.132   3.590  52.863  1.00  0.00     0.167 HD
ENDBRANCH  10  12
ENDBRANCH   9  10
ENDBRANCH   8   9
ENDBRANCH   6   8
ENDBRANCH   1   6
BRANCH   2  14
HETATM   14  C5  UNL     1      23.618   1.184  52.213  1.00  0.00     0.047 A 
HETATM   15  C6  UNL     1      22.621   1.237  51.152  1.00  0.00     0.257 A 
HETATM   16  O1  UNL     1      22.643   1.943  50.130  1.00  0.00    -0.267 OA
HETATM   17  N2  UNL     1      21.562   0.333  51.447  1.00  0.00    -0.322 N 
HETATM   18  C7  UNL     1      21.929  -0.257  52.684  1.00  0.00     0.046 A 
HETATM   19  H6  UNL     1      20.722   0.156  50.878  1.00  0.00     0.169 HD
HETATM   20  C8  UNL     1      21.234  -1.214  53.414  1.00  0.00     0.030 A 
HETATM   21  C12 UNL     1      23.125   0.207  53.175  1.00  0.00     0.006 A 
HETATM   22  C9  UNL     1      21.748  -1.674  54.604  1.00  0.00     0.002 A 
HETATM   23  C10 UNL     1      22.958  -1.230  55.140  1.00  0.00     0.001 A 
HETATM   24  C11 UNL     1      23.608  -0.269  54.357  1.00  0.00     0.015 A 
ENDBRANCH   2  14
TORSDOF 7
ENDMDL
MODEL 3
REMARK VINA RESULT:      -7.7      2.634      5.335
REMARK  7 active torsions:
REMARK  status: ('A' for Active; 'I' for Inactive)
REMARK    1  A    between atoms: N1_3  and  C3_4 
REMARK    2  A    between atoms: C3_4  and  C13_16 
REMARK    3  A    between atoms: C4_5  and  C5_6 
REMARK    4  A    between atoms: C13_16  and  C15_18 
REMARK    5  A    between atoms: C15_18  and  C16_19 
REMARK    6  A    between atoms: C16_19  and  C17_20 
REMARK    7  A    between atoms: C17_20  and  O3_22 
ROOT
HETATM    1  C3  UNL     1      24.458   0.606  52.730  1.00  0.00     0.059 C 
HETATM    2  C4  UNL     1      24.017   1.376  51.586  1.00  0.00     0.050 C 
ENDROOT
BRANCH   1   3
HETATM    3  N1  UNL     1      23.477  -0.168  53.406  1.00  0.00    -0.265 NA
HETATM    4  C2  UNL     1      22.286   0.220  53.691  1.00  0.00     0.086 C 
HETATM    5  C1  UNL     1      21.651  -0.945  54.396  1.00  0.00     0.057 C 
ENDBRANCH   1   3
BRANCH   1   6
HETATM    6  C13 UNL     1      25.774   0.807  52.933  1.00  0.00    -0.054 C 
HETATM    7  C14 UNL     1      26.546   1.693  53.836  1.00  0.00     0.046 C 
BRANCH   6   8
HETATM    8  C15 UNL     1      26.741  -0.004  52.109  1.00  0.00     0.046 C 
BRANCH   8   9
HETATM    9  C16 UNL     1      26.645  -1.441  52.516  1.00  0.00     0.114 C 
BRANCH   9  10
HETATM   10  C17 UNL     1      27.920  -1.963  53.081  1.00  0.00     0.139 C 
HETATM   11  O2  UNL     1      28.708  -1.254  53.790  1.00  0.00    -0.650 OA
BRANCH  10  12
HETATM   12  O3  UNL     1      28.284  -3.274  52.835  1.00  0.00    -0.776 OA
HETATM   13  H18 UNL     1      29.146  -3.708  53.076  1.00  0.00     0.167 HD
ENDBRANCH  10  12
ENDBRANCH   9  10
ENDBRANCH   8   9
ENDBRANCH   6   8
ENDBRANCH   1   6
BRANCH   2  14
HETATM   14  C5  UNL     1      23.937   2.650  51.344  1.00  0.00     0.047 A 
HETATM   15  C6  UNL     1      22.944   3.634  51.752  1.00  0.00     0.257 A 
HETATM   16  O1  UNL     1      21.921   3.439  52.429  1.00  0.00    -0.267 OA
HETATM   17  N2  UNL     1      23.308   4.915  51.251  1.00  0.00    -0.322 N 
HETATM   18  C7  UNL     1      24.519   4.692  50.546  1.00  0.00     0.046 A 
HETATM   19  H6  UNL     1      22.798   5.800  51.382  1.00  0.00     0.169 HD
HETATM   20  C8  UNL     1      25.295   5.622  49.864  1.00  0.00     0.030 A 
HETATM   21  C12 UNL     1      24.930   3.381  50.569  1.00  0.00     0.006 A 
HETATM   22  C9  UNL     1      26.449   5.220  49.232  1.00  0.00     0.002 A 
HETATM   23  C10 UNL     1      26.902   3.900  49.231  1.00  0.00     0.001 A 
HETATM   24  C11 UNL     1      26.077   3.015  49.933  1.00  0.00     0.015 A 
ENDBRANCH   2  14
TORSDOF 7
ENDMDL
MODEL 4
REMARK VINA RESULT:      -7.7      1.774      2.585
REMARK  7 active torsions:
REMARK  status: ('A' for Active; 'I' for Inactive)
REMARK    1  A    between atoms: N1_3  and  C3_4 
REMARK    2  A    between atoms: C3_4  and  C13_16 
REMARK    3  A    between atoms: C4_5  and  C5_6 
REMARK    4  A    between atoms: C13_16  and  C15_18 
REMARK    5  A    between atoms: C15_18  and  C16_19 
REMARK    6  A    between atoms: C16_19  and  C17_20 
REMARK    7  A    between atoms: C17_20  and  O3_22 
ROOT
HETATM    1  C3  UNL     1      27.317   1.954  52.709  1.00  0.00     0.059 C 
HETATM    2  C4  UNL     1      26.108   1.841  53.499  1.00  0.00     0.050 C 
ENDROOT
BRANCH   1   3
HETATM    3  N1  UNL     1      27.259   2.775  51.551  1.00  0.00    -0.265 NA
HETATM    4  C2  UNL     1      26.434   2.632  50.575  1.00  0.00     0.086 C 
HETATM    5  C1  UNL     1      26.773   3.732  49.610  1.00  0.00     0.057 C 
ENDBRANCH   1   3
BRANCH   1   6
HETATM    6  C13 UNL     1      28.291   1.206  53.260  1.00  0.00    -0.054 C 
HETATM    7  C14 UNL     1      29.064   1.303  54.521  1.00  0.00     0.046 C 
BRANCH   6   8
HETATM    8  C15 UNL     1      28.752  -0.012  52.502  1.00  0.00     0.046 C 
BRANCH   8   9
HETATM    9  C16 UNL     1      28.945  -1.143  53.464  1.00  0.00     0.114 C 
BRANCH   9  10
HETATM   10  C17 UNL     1      28.155  -2.350  53.094  1.00  0.00     0.139 C 
HETATM   11  O2  UNL     1      27.045  -2.290  52.470  1.00  0.00    -0.650 OA
BRANCH  10  12
HETATM   12  O3  UNL     1      28.631  -3.603  53.435  1.00  0.00    -0.776 OA
HETATM   13  H18 UNL     1      29.567  -3.927  53.351  1.00  0.00     0.167 HD
ENDBRANCH  10  12
ENDBRANCH   9  10
ENDBRANCH   8   9
ENDBRANCH   6   8
ENDBRANCH   1   6
BRANCH   2  14
HETATM   14  C5  UNL     1      25.305   0.856  53.765  1.00  0.00     0.047 A 
HETATM   15  C6  UNL     1      25.406  -0.213  54.750  1.00  0.00     0.257 A 
HETATM   16  O1  UNL     1      26.330  -0.412  55.556  1.00  0.00    -0.267 OA
HETATM   17  N2  UNL     1      24.255  -1.045  54.670  1.00  0.00    -0.322 N 
HETATM   18  C7  UNL     1      23.469  -0.471  53.638  1.00  0.00     0.046 A 
HETATM   19  H6  UNL     1      24.050  -1.876  55.243  1.00  0.00     0.169 HD
HETATM   20  C8  UNL     1      22.237  -0.902  53.160  1.00  0.00     0.030 A 
HETATM   21  C12 UNL     1      24.040   0.645  53.075  1.00  0.00     0.006 A 
HETATM   22  C9  UNL     1      21.617  -0.213  52.143  1.00  0.00     0.002 A 
HETATM   23  C10 UNL     1      22.162   0.923  51.543  1.00  0.00     0.001 A 
HETATM   24  C11 UNL     1      23.401   1.305  52.069  1.00  0.00     0.015 A 
ENDBRANCH   2  14
TORSDOF 7
ENDMDL
MODEL 5
REMARK VINA RESULT:      -7.7      2.164      3.505
REMARK  7 active torsions:
REMARK  status: ('A' for Active; 'I' for Inactive)
REMARK    1  A    between atoms: N1_3  and  C3_4 
REMARK    2  A    between atoms: C3_4  and  C13_16 
REMARK    3  A    between atoms: C4_5  and  C5_6 
REMARK    4  A    between atoms: C13_16  and  C15_18 
REMARK    5  A    between atoms: C15_18  and  C16_19 
REMARK    6  A    between atoms: C16_19  and  C17_20 
REMARK    7  A    between atoms: C17_20  and  O3_22 
ROOT
HETATM    1  C3  UNL     1      25.197   0.653  53.363  1.00  0.00     0.059 C 
HETATM    2  C4  UNL     1      24.212  -0.390  53.162  1.00  0.00     0.050 C 
ENDROOT
BRANCH   1   3
HETATM    3  N1  UNL     1      26.350   0.317  54.121  1.00  0.00    -0.265 NA
HETATM    4  C2  UNL     1      27.547   0.714  53.874  1.00  0.00     0.086 C 
HETATM    5  C1  UNL     1      28.396   0.095  54.948  1.00  0.00     0.057 C 
ENDBRANCH   1   3
BRANCH   1   6
HETATM    6  C13 UNL     1      24.784   1.788  52.766  1.00  0.00    -0.054 C 
HETATM    7  C14 UNL     1      24.153   3.033  53.265  1.00  0.00     0.046 C 
BRANCH   6   8
HETATM    8  C15 UNL     1      24.967   1.902  51.275  1.00  0.00     0.046 C 
BRANCH   8   9
HETATM    9  C16 UNL     1      26.323   2.471  50.991  1.00  0.00     0.114 C 
BRANCH   9  10
HETATM   10  C17 UNL     1      26.261   3.715  50.175  1.00  0.00     0.139 C 
HETATM   11  O2  UNL     1      25.173   4.331  49.927  1.00  0.00    -0.650 OA
BRANCH  10  12
HETATM   12  O3  UNL     1      27.428   4.241  49.652  1.00  0.00    -0.776 OA
HETATM   13  H18 UNL     1      28.209   4.583  50.165  1.00  0.00     0.167 HD
ENDBRANCH  10  12
ENDBRANCH   9  10
ENDBRANCH   8   9
ENDBRANCH   6   8
ENDBRANCH   1   6
BRANCH   2  14
HETATM   14  C5  UNL     1      22.983  -0.543  53.551  1.00  0.00     0.047 A 
HETATM   15  C6  UNL     1      22.438  -1.042  54.807  1.00  0.00     0.257 A 
HETATM   16  O1  UNL     1      23.071  -1.453  55.795  1.00  0.00    -0.267 OA
HETATM   17  N2  UNL     1      21.017  -0.999  54.761  1.00  0.00    -0.322 N 
HETATM   18  C7  UNL     1      20.716  -0.475  53.477  1.00  0.00     0.046 A 
HETATM   19  H6  UNL     1      20.364  -1.286  55.504  1.00  0.00     0.169 HD
HETATM   20  C8  UNL     1      19.464  -0.229  52.925  1.00  0.00     0.030 A 
HETATM   21  C12 UNL     1      21.833  -0.192  52.729  1.00  0.00     0.006 A 
HETATM   22  C9  UNL     1      19.365   0.286  51.654  1.00  0.00     0.002 A 
HETATM   23  C10 UNL     1      20.473   0.587  50.860  1.00  0.00     0.001 A 
HETATM   24  C11 UNL     1      21.701   0.318  51.473  1.00  0.00     0.015 A 
ENDBRANCH   2  14
TORSDOF 7
ENDMDL
MODEL 6
REMARK VINA RESULT:      -7.5      2.410      4.534
REMARK  7 active torsions:
REMARK  status: ('A' for Active; 'I' for Inactive)
REMARK    1  A    between atoms: N1_3  and  C3_4 
REMARK    2  A    between atoms: C3_4  and  C13_16 
REMARK    3  A    between atoms: C4_5  and  C5_6 
REMARK    4  A    between atoms: C13_16  and  C15_18 
REMARK    5  A    between atoms: C15_18  and  C16_19 
REMARK    6  A    between atoms: C16_19  and  C17_20 
REMARK    7  A    between atoms: C17_20  and  O3_22 
ROOT
HETATM    1  C3  UNL     1      24.523  -0.212  53.364  1.00  0.00     0.059 C 
HETATM    2  C4  UNL     1      24.389   0.572  52.155  1.00  0.00     0.050 C 
ENDROOT
BRANCH   1   3
HETATM    3  N1  UNL     1      23.330  -0.728  53.938  1.00  0.00    -0.265 NA
HETATM    4  C2  UNL     1      22.182  -0.765  53.363  1.00  0.00     0.086 C 
HETATM    5  C1  UNL     1      21.259  -1.392  54.369  1.00  0.00     0.057 C 
ENDBRANCH   1   3
BRANCH   1   6
HETATM    6  C13 UNL     1      25.821  -0.281  53.718  1.00  0.00    -0.054 C 
HETATM    7  C14 UNL     1      26.670   0.500  54.649  1.00  0.00     0.046 C 
BRANCH   6   8
HETATM    8  C15 UNL     1      26.664  -1.357  53.083  1.00  0.00     0.046 C 
BRANCH   8   9
HETATM    9  C16 UNL     1      28.073  -0.866  52.959  1.00  0.00     0.114 C 
BRANCH   9  10
HETATM   10  C17 UNL     1      29.072  -1.871  53.416  1.00  0.00     0.139 C 
HETATM   11  O2  UNL     1      30.223  -1.555  53.862  1.00  0.00    -0.650 OA
BRANCH  10  12
HETATM   12  O3  UNL     1      28.753  -3.216  53.362  1.00  0.00    -0.776 OA
HETATM   13  H18 UNL     1      29.376  -3.968  53.172  1.00  0.00     0.167 HD
ENDBRANCH  10  12
ENDBRANCH   9  10
ENDBRANCH   8   9
ENDBRANCH   6   8
ENDBRANCH   1   6
BRANCH   2  14
HETATM   14  C5  UNL     1      24.611   1.820  51.871  1.00  0.00     0.047 A 
HETATM   15  C6  UNL     1      25.827   2.494  51.436  1.00  0.00     0.257 A 
HETATM   16  O1  UNL     1      26.948   1.989  51.258  1.00  0.00    -0.267 OA
HETATM   17  N2  UNL     1      25.559   3.876  51.231  1.00  0.00    -0.322 N 
HETATM   18  C7  UNL     1      24.183   4.024  51.544  1.00  0.00     0.046 A 
HETATM   19  H6  UNL     1      26.225   4.598  50.922  1.00  0.00     0.169 HD
HETATM   20  C8  UNL     1      23.417   5.183  51.506  1.00  0.00     0.030 A 
HETATM   21  C12 UNL     1      23.582   2.849  51.925  1.00  0.00     0.006 A 
HETATM   22  C9  UNL     1      22.085   5.136  51.847  1.00  0.00     0.002 A 
HETATM   23  C10 UNL     1      21.435   3.965  52.240  1.00  0.00     0.001 A 
HETATM   24  C11 UNL     1      22.260   2.835  52.257  1.00  0.00     0.015 A 
ENDBRANCH   2  14
TORSDOF 7
ENDMDL
MODEL 7
REMARK VINA RESULT:      -7.4      2.561      6.576
REMARK  7 active torsions:
REMARK  status: ('A' for Active; 'I' for Inactive)
REMARK    1  A    between atoms: N1_3  and  C3_4 
REMARK    2  A    between atoms: C3_4  and  C13_16 
REMARK    3  A    between atoms: C4_5  and  C5_6 
REMARK    4  A    between atoms: C13_16  and  C15_18 
REMARK    5  A    between atoms: C15_18  and  C16_19 
REMARK    6  A    between atoms: C16_19  and  C17_20 
REMARK    7  A    between atoms: C17_20  and  O3_22 
ROOT
HETATM    1  C3  UNL     1      23.284   0.044  52.858  1.00  0.00     0.059 C 
HETATM    2  C4  UNL     1      24.698   0.121  52.559  1.00  0.00     0.050 C 
ENDROOT
BRANCH   1   3
HETATM    3  N1  UNL     1      22.385   0.499  51.856  1.00  0.00    -0.265 NA
HETATM    4  C2  UNL     1      22.608   1.464  51.036  1.00  0.00     0.086 C 
HETATM    5  C1  UNL     1      21.370   1.554  50.189  1.00  0.00     0.057 C 
ENDBRANCH   1   3
BRANCH   1   6
HETATM    6  C13 UNL     1      23.108  -0.457  54.095  1.00  0.00    -0.054 C 
HETATM    7  C14 UNL     1      24.010  -1.114  55.070  1.00  0.00     0.046 C 
BRANCH   6   8
HETATM    8  C15 UNL     1      21.728  -0.369  54.696  1.00  0.00     0.046 C 
BRANCH   8   9
HETATM    9  C16 UNL     1      20.946  -1.585  54.306  1.00  0.00     0.114 C 
BRANCH   9  10
HETATM   10  C17 UNL     1      19.598  -1.250  53.770  1.00  0.00     0.139 C 
HETATM   11  O2  UNL     1      19.356  -0.185  53.112  1.00  0.00    -0.650 OA
BRANCH  10  12
HETATM   12  O3  UNL     1      18.547  -2.123  53.985  1.00  0.00    -0.776 OA
HETATM   13  H18 UNL     1      18.297  -2.905  53.424  1.00  0.00     0.167 HD
ENDBRANCH  10  12
ENDBRANCH   9  10
ENDBRANCH   8   9
ENDBRANCH   6   8
ENDBRANCH   1   6
BRANCH   2  14
HETATM   14  C5  UNL     1      25.680   0.808  53.059  1.00  0.00     0.047 A 
HETATM   15  C6  UNL     1      25.729   2.178  53.551  1.00  0.00     0.257 A 
HETATM   16  O1  UNL     1      24.802   3.005  53.575  1.00  0.00    -0.267 OA
HETATM   17  N2  UNL     1      27.039   2.469  54.024  1.00  0.00    -0.322 N 
HETATM   18  C7  UNL     1      27.769   1.272  53.813  1.00  0.00     0.046 A 
HETATM   19  H6  UNL     1      27.368   3.357  54.429  1.00  0.00     0.169 HD
HETATM   20  C8  UNL     1      29.105   1.022  54.106  1.00  0.00     0.030 A 
HETATM   21  C12 UNL     1      27.020   0.268  53.250  1.00  0.00     0.006 A 
HETATM   22  C9  UNL     1      29.649  -0.211  53.829  1.00  0.00     0.002 A 
HETATM   23  C10 UNL     1      28.924  -1.258  53.258  1.00  0.00     0.001 A 
HETATM   24  C11 UNL     1      27.587  -0.943  52.989  1.00  0.00     0.015 A 
ENDBRANCH   2  14
TORSDOF 7
ENDMDL
MODEL 8
REMARK VINA RESULT:      -7.4      2.447      5.171
REMARK  7 active torsions:
REMARK  status: ('A' for Active; 'I' for Inactive)
REMARK    1  A    between atoms: N1_3  and  C3_4 
REMARK    2  A    between atoms: C3_4  and  C13_16 
REMARK    3  A    between atoms: C4_5  and  C5_6 
REMARK    4  A    between atoms: C13_16  and  C15_18 
REMARK    5  A    between atoms: C15_18  and  C16_19 
REMARK    6  A    between atoms: C16_19  and  C17_20 
REMARK    7  A    between atoms: C17_20  and  O3_22 
ROOT
HETATM    1  C3  UNL     1      24.040   0.846  52.651  1.00  0.00     0.059 C 
HETATM    2  C4  UNL     1      23.663   1.711  51.554  1.00  0.00     0.050 C 
ENDROOT
BRANCH   1   3
HETATM    3  N1  UNL     1      22.987   0.256  53.401  1.00  0.00    -0.265 NA
HETATM    4  C2  UNL     1      23.039  -0.886  53.989  1.00  0.00     0.086 C 
HETATM    5  C1  UNL     1      21.693  -1.057  54.635  1.00  0.00     0.057 C 
ENDBRANCH   1   3
BRANCH   1   6
HETATM    6  C13 UNL     1      25.382   0.790  52.745  1.00  0.00    -0.054 C 
HETATM    7  C14 UNL     1      26.436   0.135  51.936  1.00  0.00     0.046 C 
BRANCH   6   8
HETATM    8  C15 UNL     1      26.035   1.526  53.886  1.00  0.00     0.046 C 
BRANCH   8   9
HETATM    9  C16 UNL     1      26.975   2.551  53.333  1.00  0.00     0.114 C 
BRANCH   9  10
HETATM   10  C17 UNL     1      28.384   2.326  53.760  1.00  0.00     0.139 C 
HETATM   11  O2  UNL     1      28.704   1.552  54.722  1.00  0.00    -0.650 OA
BRANCH  10  12
HETATM   12  O3  UNL     1      29.407   2.979  53.097  1.00  0.00    -0.776 OA
HETATM   13  H18 UNL     1      29.585   3.957  53.093  1.00  0.00     0.167 HD
ENDBRANCH  10  12
ENDBRANCH   9  10
ENDBRANCH   8   9
ENDBRANCH   6   8
ENDBRANCH   1   6
BRANCH   2  14
HETATM   14  C5  UNL     1      23.808   2.982  51.329  1.00  0.00     0.047 A 
HETATM   15  C6  UNL     1      23.028   4.124  51.787  1.00  0.00     0.257 A 
HETATM   16  O1  UNL     1      22.013   4.106  52.503  1.00  0.00    -0.267 OA
HETATM   17  N2  UNL     1      23.601   5.326  51.285  1.00  0.00    -0.322 N 
HETATM   18  C7  UNL     1      24.722   4.898  50.528  1.00  0.00     0.046 A 
HETATM   19  H6  UNL     1      23.266   6.286  51.445  1.00  0.00     0.169 HD
HETATM   20  C8  UNL     1      25.629   5.683  49.825  1.00  0.00     0.030 A 
HETATM   21  C12 UNL     1      24.887   3.535  50.522  1.00  0.00     0.006 A 
HETATM   22  C9  UNL     1      26.665   5.089  49.142  1.00  0.00     0.002 A 
HETATM   23  C10 UNL     1      26.869   3.708  49.109  1.00  0.00     0.001 A 
HETATM   24  C11 UNL     1      25.924   2.976  49.835  1.00  0.00     0.015 A 
ENDBRANCH   2  14
TORSDOF 7
ENDMDL
MODEL 9
REMARK VINA RESULT:      -7.4      2.411      3.342
REMARK  7 active torsions:
REMARK  status: ('A' for Active; 'I' for Inactive)
REMARK    1  A    between atoms: N1_3  and  C3_4 
REMARK    2  A    between atoms: C3_4  and  C13_16 
REMARK    3  A    between atoms: C4_5  and  C5_6 
REMARK    4  A    between atoms: C13_16  and  C15_18 
REMARK    5  A    between atoms: C15_18  and  C16_19 
REMARK    6  A    between atoms: C16_19  and  C17_20 
REMARK    7  A    between atoms: C17_20  and  O3_22 
ROOT
HETATM    1  C3  UNL     1      25.966   1.767  52.037  1.00  0.00     0.059 C 
HETATM    2  C4  UNL     1      24.568   1.953  52.367  1.00  0.00     0.050 C 
ENDROOT
BRANCH   1   3
HETATM    3  N1  UNL     1      26.524   2.640  51.066  1.00  0.00    -0.265 NA
HETATM    4  C2  UNL     1      25.866   3.252  50.147  1.00  0.00     0.086 C 
HETATM    5  C1  UNL     1      26.894   4.041  49.387  1.00  0.00     0.057 C 
ENDBRANCH   1   3
BRANCH   1   6
HETATM    6  C13 UNL     1      26.467   0.740  52.751  1.00  0.00    -0.054 C 
HETATM    7  C14 UNL     1      26.791   0.553  54.184  1.00  0.00     0.046 C 
BRANCH   6   8
HETATM    8  C15 UNL     1      26.793  -0.533  52.012  1.00  0.00     0.046 C 
BRANCH   8   9
HETATM    9  C16 UNL     1      26.938  -1.649  52.999  1.00  0.00     0.114 C 
BRANCH   9  10
HETATM   10  C17 UNL     1      28.321  -2.200  53.040  1.00  0.00     0.139 C 
HETATM   11  O2  UNL     1      29.362  -1.465  53.054  1.00  0.00    -0.650 OA
BRANCH  10  12
HETATM   12  O3  UNL     1      28.503  -3.571  53.064  1.00  0.00    -0.776 OA
HETATM   13  H18 UNL     1      27.810  -4.267  52.909  1.00  0.00     0.167 HD
ENDBRANCH  10  12
ENDBRANCH   9  10
ENDBRANCH   8   9
ENDBRANCH   6   8
ENDBRANCH   1   6
BRANCH   2  14
HETATM   14  C5  UNL     1      23.507   1.222  52.202  1.00  0.00     0.047 A 
HETATM   15  C6  UNL     1      22.558   1.158  51.099  1.00  0.00     0.257 A 
HETATM   16  O1  UNL     1      22.567   1.832  50.055  1.00  0.00    -0.267 OA
HETATM   17  N2  UNL     1      21.567   0.177  51.379  1.00  0.00    -0.322 N 
HETATM   18  C7  UNL     1      21.926  -0.342  52.650  1.00  0.00     0.046 A 
HETATM   19  H6  UNL     1      20.771  -0.088  50.782  1.00  0.00     0.169 HD
HETATM   20  C8  UNL     1      21.282  -1.332  53.383  1.00  0.00     0.030 A 
HETATM   21  C12 UNL     1      23.055   0.237  53.175  1.00  0.00     0.006 A 
HETATM   22  C9  UNL     1      21.779  -1.711  54.608  1.00  0.00     0.002 A 
HETATM   23  C10 UNL     1      22.922  -1.149  55.179  1.00  0.00     0.001 A 
HETATM   24  C11 UNL     1      23.523  -0.161  54.392  1.00  0.00     0.015 A 
ENDBRANCH   2  14
TORSDOF 7
ENDMDL
