MODEL 1
REMARK VINA RESULT:      -7.1      0.000      0.000
REMARK  11 active torsions:
REMARK  status: ('A' for Active; 'I' for Inactive)
REMARK    1  A    between atoms: C2_2  and  N1_3 
REMARK    2  A    between atoms: N1_3  and  C3_4 
REMARK    3  A    between atoms: N1_3  and  C5_6 
REMARK    4  A    between atoms: C5_6  and  C6_7 
REMARK    5  A    between atoms: C6_7  and  C7_8 
REMARK    6  A    between atoms: C8_9  and  C9_10 
REMARK    7  A    between atoms: C9_10  and  N2_11 
REMARK    8  A    between atoms: N2_11  and  C10_12 
REMARK    9  A    between atoms: C10_12  and  C11_13 
REMARK   10  A    between atoms: C15_18  and  N4_19 
REMARK   11  A    between atoms: N4_19  and  C16_20 
ROOT
HETATM    1  C11 UNL     1      27.141   1.330  52.631  1.00  0.00     0.012 A 
HETATM    2  C12 UNL     1      28.192   1.908  53.189  1.00  0.00    -0.012 A 
HETATM    3  C13 UNL     1      29.031   1.484  54.318  1.00  0.00     0.049 A 
HETATM    4  C14 UNL     1      28.624   0.176  54.873  1.00  0.00     0.155 A 
HETATM    5  N3  UNL     1      27.497  -0.404  54.257  1.00  0.00    -0.272 NA
HETATM    6  C15 UNL     1      26.846   0.082  53.288  1.00  0.00     0.130 A 
ENDROOT
BRANCH   1   7
HETATM    7  C10 UNL     1      26.426   1.912  51.505  1.00  0.00     0.312 C 
BRANCH   7   8
HETATM    8  N2  UNL     1      26.819   3.263  51.147  1.00  0.00     0.098 N 
HETATM    9  H17 UNL     1      27.746   3.525  51.472  1.00  0.00     0.317 HD
BRANCH   8  10
HETATM   10  C9  UNL     1      26.585   3.522  49.738  1.00  0.00     0.363 C 
BRANCH  10  11
HETATM   11  C8  UNL     1      25.156   3.551  49.420  1.00  0.00    -0.076 C 
HETATM   12  C7  UNL     1      23.957   3.588  49.171  1.00  0.00    -0.103 C 
BRANCH  12  13
HETATM   13  C6  UNL     1      22.503   3.649  48.882  1.00  0.00     0.113 C 
BRANCH  13  14
HETATM   14  C5  UNL     1      21.770   3.953  50.156  1.00  0.00     0.129 C 
BRANCH  14  15
HETATM   15  N1  UNL     1      22.258   5.022  50.935  1.00  0.00    -0.412 N 
BRANCH  15  16
HETATM   16  C2  UNL     1      21.772   6.310  50.603  1.00  0.00     0.112 C 
HETATM   17  C1  UNL     1      22.816   7.402  50.658  1.00  0.00     0.026 C 
ENDBRANCH  15  16
BRANCH  15  18
HETATM   18  C3  UNL     1      22.391   4.858  52.327  1.00  0.00     0.112 C 
HETATM   19  C4  UNL     1      23.660   4.177  52.783  1.00  0.00     0.026 C 
ENDBRANCH  15  18
ENDBRANCH  14  15
ENDBRANCH  13  14
ENDBRANCH  12  13
ENDBRANCH  10  11
ENDBRANCH   8  10
ENDBRANCH   7   8
ENDBRANCH   1   7
BRANCH   6  20
HETATM   20  N4  UNL     1      25.715  -0.686  52.808  1.00  0.00    -0.341 N 
HETATM   21  H25 UNL     1      25.968  -1.342  52.003  1.00  0.00     0.167 HD
BRANCH  20  22
HETATM   22  C16 UNL     1      24.413  -0.495  53.428  1.00  0.00     0.035 A 
HETATM   23  C17 UNL     1      24.201  -1.195  54.608  1.00  0.00     0.032 A 
HETATM   24  C18 UNL     1      22.941  -1.017  55.205  1.00  0.00     0.046 A 
HETATM   25  C19 UNL     1      22.053  -0.179  54.573  1.00  0.00     0.138 A 
HETATM   26  F1  UNL     1      20.827  -0.036  55.190  1.00  0.00    -0.204 F 
HETATM   27  C20 UNL     1      22.294   0.503  53.401  1.00  0.00     0.074 A 
HETATM   28 CL1  UNL     1      21.053   1.540  52.709  1.00  0.00    -0.081 Cl
HETATM   29  C21 UNL     1      23.528   0.348  52.788  1.00  0.00     0.056 A 
ENDBRANCH  20  22
ENDBRANCH   6  20
TORSDOF 11
ENDMDL
MODEL 2
REMARK VINA RESULT:      -7.0      3.241      5.161
REMARK  11 active torsions:
REMARK  status: ('A' for Active; 'I' for Inactive)
REMARK    1  A    between atoms: C2_2  and  N1_3 
REMARK    2  A    between atoms: N1_3  and  C3_4 
REMARK    3  A    between atoms: N1_3  and  C5_6 
REMARK    4  A    between atoms: C5_6  and  C6_7 
REMARK    5  A    between atoms: C6_7  and  C7_8 
REMARK    6  A    between atoms: C8_9  and  C9_10 
REMARK    7  A    between atoms: C9_10  and  N2_11 
REMARK    8  A    between atoms: N2_11  and  C10_12 
REMARK    9  A    between atoms: C10_12  and  C11_13 
REMARK   10  A    between atoms: C15_18  and  N4_19 
REMARK   11  A    between atoms: N4_19  and  C16_20 
ROOT
HETATM    1  C11 UNL     1      27.062   1.390  52.588  1.00  0.00     0.012 A 
HETATM    2  C12 UNL     1      28.113   1.983  53.131  1.00  0.00    -0.012 A 
HETATM    3  C13 UNL     1      28.956   1.588  54.268  1.00  0.00     0.049 A 
HETATM    4  C14 UNL     1      28.554   0.292  54.853  1.00  0.00     0.155 A 
HETATM    5  N3  UNL     1      27.428  -0.305  54.253  1.00  0.00    -0.272 NA
HETATM    6  C15 UNL     1      26.773   0.156  53.274  1.00  0.00     0.130 A 
ENDROOT
BRANCH   1   7
HETATM    7  C10 UNL     1      26.344   1.944  51.451  1.00  0.00     0.312 C 
BRANCH   7   8
HETATM    8  N2  UNL     1      26.750   3.278  51.046  1.00  0.00     0.098 N 
HETATM    9  H17 UNL     1      27.715   3.504  51.270  1.00  0.00     0.317 HD
BRANCH   8  10
HETATM   10  C9  UNL     1      26.379   3.543  49.668  1.00  0.00     0.363 C 
BRANCH  10  11
HETATM   11  C8  UNL     1      27.314   4.465  49.020  1.00  0.00    -0.076 C 
HETATM   12  C7  UNL     1      28.090   5.251  48.491  1.00  0.00    -0.103 C 
BRANCH  12  13
HETATM   13  C6  UNL     1      29.027   6.217  47.867  1.00  0.00     0.113 C 
BRANCH  13  14
HETATM   14  C5  UNL     1      30.403   5.979  48.417  1.00  0.00     0.129 C 
BRANCH  14  15
HETATM   15  N1  UNL     1      31.477   6.044  47.506  1.00  0.00    -0.412 N 
BRANCH  15  16
HETATM   16  C2  UNL     1      32.091   7.311  47.354  1.00  0.00     0.112 C 
HETATM   17  C1  UNL     1      33.340   7.501  48.186  1.00  0.00     0.026 C 
ENDBRANCH  15  16
BRANCH  15  18
HETATM   18  C3  UNL     1      32.421   5.000  47.474  1.00  0.00     0.112 C 
HETATM   19  C4  UNL     1      31.946   3.713  46.840  1.00  0.00     0.026 C 
ENDBRANCH  15  18
ENDBRANCH  14  15
ENDBRANCH  13  14
ENDBRANCH  12  13
ENDBRANCH  10  11
ENDBRANCH   8  10
ENDBRANCH   7   8
ENDBRANCH   1   7
BRANCH   6  20
HETATM   20  N4  UNL     1      25.644  -0.626  52.814  1.00  0.00    -0.341 N 
HETATM   21  H25 UNL     1      25.900  -1.308  52.033  1.00  0.00     0.167 HD
BRANCH  20  22
HETATM   22  C16 UNL     1      24.339  -0.413  53.421  1.00  0.00     0.035 A 
HETATM   23  C17 UNL     1      24.092  -1.132  54.584  1.00  0.00     0.032 A 
HETATM   24  C18 UNL     1      22.829  -0.932  55.167  1.00  0.00     0.046 A 
HETATM   25  C19 UNL     1      21.972  -0.058  54.541  1.00  0.00     0.138 A 
HETATM   26  F1  UNL     1      20.742   0.105  55.145  1.00  0.00    -0.204 F 
HETATM   27  C20 UNL     1      22.247   0.641  53.387  1.00  0.00     0.074 A 
HETATM   28 CL1  UNL     1      21.044   1.725  52.702  1.00  0.00    -0.081 Cl
HETATM   29  C21 UNL     1      23.485   0.466  52.788  1.00  0.00     0.056 A 
ENDBRANCH  20  22
ENDBRANCH   6  20
TORSDOF 11
ENDMDL
MODEL 3
REMARK VINA RESULT:      -7.0      2.882      4.111
REMARK  11 active torsions:
REMARK  status: ('A' for Active; 'I' for Inactive)
REMARK    1  A    between atoms: C2_2  and  N1_3 
REMARK    2  A    between atoms: N1_3  and  C3_4 
REMARK    3  A    between atoms: N1_3  and  C5_6 
REMARK    4  A    between atoms: C5_6  and  C6_7 
REMARK    5  A    between atoms: C6_7  and  C7_8 
REMARK    6  A    between atoms: C8_9  and  C9_10 
REMARK    7  A    between atoms: C9_10  and  N2_11 
REMARK    8  A    between atoms: N2_11  and  C10_12 
REMARK    9  A    between atoms: C10_12  and  C11_13 
REMARK   10  A    between atoms: C15_18  and  N4_19 
REMARK   11  A    between atoms: N4_19  and  C16_20 
ROOT
HETATM    1  C11 UNL     1      27.170   1.198  52.545  1.00  0.00     0.012 A 
HETATM    2  C12 UNL     1      28.211   1.792  53.102  1.00  0.00    -0.012 A 
HETATM    3  C13 UNL     1      28.954   1.472  54.329  1.00  0.00     0.049 A 
HETATM    4  C14 UNL     1      28.445   0.259  55.004  1.00  0.00     0.155 A 
HETATM    5  N3  UNL     1      27.332  -0.341  54.385  1.00  0.00    -0.272 NA
HETATM    6  C15 UNL     1      26.770   0.051  53.322  1.00  0.00     0.130 A 
ENDROOT
BRANCH   1   7
HETATM    7  C10 UNL     1      26.559   1.669  51.311  1.00  0.00     0.312 C 
BRANCH   7   8
HETATM    8  N2  UNL     1      26.247   3.087  51.272  1.00  0.00     0.098 N 
HETATM    9  H17 UNL     1      26.959   3.680  51.688  1.00  0.00     0.317 HD
BRANCH   8  10
HETATM   10  C9  UNL     1      25.830   3.496  49.943  1.00  0.00     0.363 C 
BRANCH  10  11
HETATM   11  C8  UNL     1      26.849   4.313  49.281  1.00  0.00    -0.076 C 
HETATM   12  C7  UNL     1      27.714   4.994  48.743  1.00  0.00    -0.103 C 
BRANCH  12  13
HETATM   13  C6  UNL     1      28.776   5.810  48.106  1.00  0.00     0.113 C 
BRANCH  13  14
HETATM   14  C5  UNL     1      28.302   7.231  48.012  1.00  0.00     0.129 C 
BRANCH  14  15
HETATM   15  N1  UNL     1      29.172   8.229  48.496  1.00  0.00    -0.412 N 
BRANCH  15  16
HETATM   16  C2  UNL     1      28.595   9.195  49.357  1.00  0.00     0.112 C 
HETATM   17  C1  UNL     1      27.251   8.798  49.926  1.00  0.00     0.026 C 
ENDBRANCH  15  16
BRANCH  15  18
HETATM   18  C3  UNL     1      30.471   7.875  48.905  1.00  0.00     0.112 C 
HETATM   19  C4  UNL     1      31.585   8.725  48.339  1.00  0.00     0.026 C 
ENDBRANCH  15  18
ENDBRANCH  14  15
ENDBRANCH  13  14
ENDBRANCH  12  13
ENDBRANCH  10  11
ENDBRANCH   8  10
ENDBRANCH   7   8
ENDBRANCH   1   7
BRANCH   6  20
HETATM   20  N4  UNL     1      25.634  -0.719  52.858  1.00  0.00    -0.341 N 
HETATM   21  H25 UNL     1      25.898  -1.451  52.126  1.00  0.00     0.167 HD
BRANCH  20  22
HETATM   22  C16 UNL     1      24.314  -0.432  53.398  1.00  0.00     0.035 A 
HETATM   23  C17 UNL     1      23.968  -1.136  54.544  1.00  0.00     0.032 A 
HETATM   24  C18 UNL     1      22.690  -0.865  55.062  1.00  0.00     0.046 A 
HETATM   25  C19 UNL     1      21.917   0.057  54.396  1.00  0.00     0.138 A 
HETATM   26  F1  UNL     1      20.669   0.290  54.937  1.00  0.00    -0.204 F 
HETATM   27  C20 UNL     1      22.290   0.739  53.260  1.00  0.00     0.074 A 
HETATM   28 CL1  UNL     1      21.188   1.890  52.517  1.00  0.00    -0.081 Cl
HETATM   29  C21 UNL     1      23.545   0.494  52.724  1.00  0.00     0.056 A 
ENDBRANCH  20  22
ENDBRANCH   6  20
TORSDOF 11
ENDMDL
MODEL 4
REMARK VINA RESULT:      -6.9      4.444      7.116
REMARK  11 active torsions:
REMARK  status: ('A' for Active; 'I' for Inactive)
REMARK    1  A    between atoms: C2_2  and  N1_3 
REMARK    2  A    between atoms: N1_3  and  C3_4 
REMARK    3  A    between atoms: N1_3  and  C5_6 
REMARK    4  A    between atoms: C5_6  and  C6_7 
REMARK    5  A    between atoms: C6_7  and  C7_8 
REMARK    6  A    between atoms: C8_9  and  C9_10 
REMARK    7  A    between atoms: C9_10  and  N2_11 
REMARK    8  A    between atoms: N2_11  and  C10_12 
REMARK    9  A    between atoms: C10_12  and  C11_13 
REMARK   10  A    between atoms: C15_18  and  N4_19 
REMARK   11  A    between atoms: N4_19  and  C16_20 
ROOT
HETATM    1  C11 UNL     1      25.116   2.629  51.229  1.00  0.00     0.012 A 
HETATM    2  C12 UNL     1      24.000   2.491  50.533  1.00  0.00    -0.012 A 
HETATM    3  C13 UNL     1      22.654   2.078  50.953  1.00  0.00     0.049 A 
HETATM    4  C14 UNL     1      22.564   1.816  52.406  1.00  0.00     0.155 A 
HETATM    5  N3  UNL     1      23.774   1.967  53.110  1.00  0.00    -0.272 NA
HETATM    6  C15 UNL     1      24.885   2.318  52.617  1.00  0.00     0.130 A 
ENDROOT
BRANCH   1   7
HETATM    7  C10 UNL     1      26.373   3.050  50.628  1.00  0.00     0.312 C 
BRANCH   7   8
HETATM    8  N2  UNL     1      26.491   4.473  50.362  1.00  0.00     0.098 N 
HETATM    9  H17 UNL     1      27.214   4.938  50.903  1.00  0.00     0.317 HD
BRANCH   8  10
HETATM   10  C9  UNL     1      26.550   4.736  48.936  1.00  0.00     0.363 C 
BRANCH  10  11
HETATM   11  C8  UNL     1      27.876   5.203  48.523  1.00  0.00    -0.076 C 
HETATM   12  C7  UNL     1      28.990   5.596  48.199  1.00  0.00    -0.103 C 
BRANCH  12  13
HETATM   13  C6  UNL     1      30.346   6.068  47.825  1.00  0.00     0.113 C 
BRANCH  13  14
HETATM   14  C5  UNL     1      31.241   4.876  47.655  1.00  0.00     0.129 C 
BRANCH  14  15
HETATM   15  N1  UNL     1      32.359   5.031  46.810  1.00  0.00    -0.412 N 
BRANCH  15  16
HETATM   16  C2  UNL     1      33.254   6.076  47.144  1.00  0.00     0.112 C 
HETATM   17  C1  UNL     1      34.096   5.806  48.371  1.00  0.00     0.026 C 
ENDBRANCH  15  16
BRANCH  15  18
HETATM   18  C3  UNL     1      33.041   3.889  46.348  1.00  0.00     0.112 C 
HETATM   19  C4  UNL     1      32.398   2.565  46.692  1.00  0.00     0.026 C 
ENDBRANCH  15  18
ENDBRANCH  14  15
ENDBRANCH  13  14
ENDBRANCH  12  13
ENDBRANCH  10  11
ENDBRANCH   8  10
ENDBRANCH   7   8
ENDBRANCH   1   7
BRANCH   6  20
HETATM   20  N4  UNL     1      26.007   2.410  53.528  1.00  0.00    -0.341 N 
HETATM   21  H25 UNL     1      25.952   3.262  54.171  1.00  0.00     0.167 HD
BRANCH  20  22
HETATM   22  C16 UNL     1      27.048   1.395  53.477  1.00  0.00     0.035 A 
HETATM   23  C17 UNL     1      28.333   1.837  53.766  1.00  0.00     0.032 A 
HETATM   24  C18 UNL     1      29.340   0.858  53.709  1.00  0.00     0.046 A 
HETATM   25  C19 UNL     1      28.963  -0.422  53.380  1.00  0.00     0.138 A 
HETATM   26  F1  UNL     1      29.984  -1.350  53.332  1.00  0.00    -0.204 F 
HETATM   27  C20 UNL     1      27.678  -0.829  53.099  1.00  0.00     0.074 A 
HETATM   28 CL1  UNL     1      27.351  -2.508  52.689  1.00  0.00    -0.081 Cl
HETATM   29  C21 UNL     1      26.661   0.113  53.146  1.00  0.00     0.056 A 
ENDBRANCH  20  22
ENDBRANCH   6  20
TORSDOF 11
ENDMDL
MODEL 5
REMARK VINA RESULT:      -6.9      2.434      3.514
REMARK  11 active torsions:
REMARK  status: ('A' for Active; 'I' for Inactive)
REMARK    1  A    between atoms: C2_2  and  N1_3 
REMARK    2  A    between atoms: N1_3  and  C3_4 
REMARK    3  A    between atoms: N1_3  and  C5_6 
REMARK    4  A    between atoms: C5_6  and  C6_7 
REMARK    5  A    between atoms: C6_7  and  C7_8 
REMARK    6  A    between atoms: C8_9  and  C9_10 
REMARK    7  A    between atoms: C9_10  and  N2_11 
REMARK    8  A    between atoms: N2_11  and  C10_12 
REMARK    9  A    between atoms: C10_12  and  C11_13 
REMARK   10  A    between atoms: C15_18  and  N4_19 
REMARK   11  A    between atoms: N4_19  and  C16_20 
ROOT
HETATM    1  C11 UNL     1      27.007   1.440  52.689  1.00  0.00     0.012 A 
HETATM    2  C12 UNL     1      28.070   1.999  53.243  1.00  0.00    -0.012 A 
HETATM    3  C13 UNL     1      28.961   1.517  54.308  1.00  0.00     0.049 A 
HETATM    4  C14 UNL     1      28.597   0.167  54.789  1.00  0.00     0.155 A 
HETATM    5  N3  UNL     1      27.457  -0.392  54.180  1.00  0.00    -0.272 NA
HETATM    6  C15 UNL     1      26.760   0.145  53.271  1.00  0.00     0.130 A 
ENDROOT
BRANCH   1   7
HETATM    7  C10 UNL     1      26.239   2.081  51.633  1.00  0.00     0.312 C 
BRANCH   7   8
HETATM    8  N2  UNL     1      26.847   3.264  51.049  1.00  0.00     0.098 N 
HETATM    9  H17 UNL     1      27.830   3.381  51.278  1.00  0.00     0.317 HD
BRANCH   8  10
HETATM   10  C9  UNL     1      26.548   3.362  49.632  1.00  0.00     0.363 C 
BRANCH  10  11
HETATM   11  C8  UNL     1      27.299   4.444  48.992  1.00  0.00    -0.076 C 
HETATM   12  C7  UNL     1      27.944   5.343  48.466  1.00  0.00    -0.103 C 
BRANCH  12  13
HETATM   13  C6  UNL     1      28.744   6.422  47.836  1.00  0.00     0.113 C 
BRANCH  13  14
HETATM   14  C5  UNL     1      28.467   7.710  48.554  1.00  0.00     0.129 C 
BRANCH  14  15
HETATM   15  N1  UNL     1      27.131   8.161  48.568  1.00  0.00    -0.412 N 
BRANCH  15  16
HETATM   16  C2  UNL     1      26.608   8.522  49.834  1.00  0.00     0.112 C 
HETATM   17  C1  UNL     1      25.639   7.517  50.416  1.00  0.00     0.026 C 
ENDBRANCH  15  16
BRANCH  15  18
HETATM   18  C3  UNL     1      26.682   9.026  47.552  1.00  0.00     0.112 C 
HETATM   19  C4  UNL     1      26.013   8.354  46.376  1.00  0.00     0.026 C 
ENDBRANCH  15  18
ENDBRANCH  14  15
ENDBRANCH  13  14
ENDBRANCH  12  13
ENDBRANCH  10  11
ENDBRANCH   8  10
ENDBRANCH   7   8
ENDBRANCH   1   7
BRANCH   6  20
HETATM   20  N4  UNL     1      25.623  -0.611  52.785  1.00  0.00    -0.341 N 
HETATM   21  H25 UNL     1      25.871  -1.259  51.972  1.00  0.00     0.167 HD
BRANCH  20  22
HETATM   22  C16 UNL     1      24.324  -0.419  53.410  1.00  0.00     0.035 A 
HETATM   23  C17 UNL     1      24.109  -1.136  54.580  1.00  0.00     0.032 A 
HETATM   24  C18 UNL     1      22.851  -0.957  55.181  1.00  0.00     0.046 A 
HETATM   25  C19 UNL     1      21.968  -0.104  54.563  1.00  0.00     0.138 A 
HETATM   26  F1  UNL     1      20.744   0.039  55.184  1.00  0.00    -0.204 F 
HETATM   27  C20 UNL     1      22.212   0.594  53.401  1.00  0.00     0.074 A 
HETATM   28 CL1  UNL     1      20.978   1.650  52.727  1.00  0.00    -0.081 Cl
HETATM   29  C21 UNL     1      23.444   0.439  52.784  1.00  0.00     0.056 A 
ENDBRANCH  20  22
ENDBRANCH   6  20
TORSDOF 11
ENDMDL
MODEL 6
REMARK VINA RESULT:      -6.9      4.337      6.691
REMARK  11 active torsions:
REMARK  status: ('A' for Active; 'I' for Inactive)
REMARK    1  A    between atoms: C2_2  and  N1_3 
REMARK    2  A    between atoms: N1_3  and  C3_4 
REMARK    3  A    between atoms: N1_3  and  C5_6 
REMARK    4  A    between atoms: C5_6  and  C6_7 
REMARK    5  A    between atoms: C6_7  and  C7_8 
REMARK    6  A    between atoms: C8_9  and  C9_10 
REMARK    7  A    between atoms: C9_10  and  N2_11 
REMARK    8  A    between atoms: N2_11  and  C10_12 
REMARK    9  A    between atoms: C10_12  and  C11_13 
REMARK   10  A    between atoms: C15_18  and  N4_19 
REMARK   11  A    between atoms: N4_19  and  C16_20 
ROOT
HETATM    1  C11 UNL     1      24.857   2.575  51.099  1.00  0.00     0.012 A 
HETATM    2  C12 UNL     1      23.680   2.321  50.551  1.00  0.00    -0.012 A 
HETATM    3  C13 UNL     1      22.435   1.816  51.145  1.00  0.00     0.049 A 
HETATM    4  C14 UNL     1      22.544   1.604  52.604  1.00  0.00     0.155 A 
HETATM    5  N3  UNL     1      23.813   1.879  53.150  1.00  0.00    -0.272 NA
HETATM    6  C15 UNL     1      24.822   2.300  52.514  1.00  0.00     0.130 A 
ENDROOT
BRANCH   1   7
HETATM    7  C10 UNL     1      25.991   3.074  50.337  1.00  0.00     0.312 C 
BRANCH   7   8
HETATM    8  N2  UNL     1      26.183   4.513  50.374  1.00  0.00     0.098 N 
HETATM    9  H17 UNL     1      26.940   4.815  50.981  1.00  0.00     0.317 HD
BRANCH   8  10
HETATM   10  C9  UNL     1      26.232   5.071  49.035  1.00  0.00     0.363 C 
BRANCH  10  11
HETATM   11  C8  UNL     1      27.607   5.341  48.608  1.00  0.00    -0.076 C 
HETATM   12  C7  UNL     1      28.751   5.563  48.231  1.00  0.00    -0.103 C 
BRANCH  12  13
HETATM   13  C6  UNL     1      30.129   5.835  47.754  1.00  0.00     0.113 C 
BRANCH  13  14
HETATM   14  C5  UNL     1      31.007   6.103  48.942  1.00  0.00     0.129 C 
BRANCH  14  15
HETATM   15  N1  UNL     1      31.365   7.445  49.183  1.00  0.00    -0.412 N 
BRANCH  15  16
HETATM   16  C2  UNL     1      32.725   7.776  48.968  1.00  0.00     0.112 C 
HETATM   17  C1  UNL     1      33.599   6.601  48.590  1.00  0.00     0.026 C 
ENDBRANCH  15  16
BRANCH  15  18
HETATM   18  C3  UNL     1      30.504   8.477  48.762  1.00  0.00     0.112 C 
HETATM   19  C4  UNL     1      30.604   9.765  49.544  1.00  0.00     0.026 C 
ENDBRANCH  15  18
ENDBRANCH  14  15
ENDBRANCH  13  14
ENDBRANCH  12  13
ENDBRANCH  10  11
ENDBRANCH   8  10
ENDBRANCH   7   8
ENDBRANCH   1   7
BRANCH   6  20
HETATM   20  N4  UNL     1      26.034   2.518  53.277  1.00  0.00    -0.341 N 
HETATM   21  H25 UNL     1      26.066   3.479  53.742  1.00  0.00     0.167 HD
BRANCH  20  22
HETATM   22  C16 UNL     1      27.039   1.467  53.327  1.00  0.00     0.035 A 
HETATM   23  C17 UNL     1      28.304   1.866  53.738  1.00  0.00     0.032 A 
HETATM   24  C18 UNL     1      29.278   0.853  53.780  1.00  0.00     0.046 A 
HETATM   25  C19 UNL     1      28.891  -0.415  53.416  1.00  0.00     0.138 A 
HETATM   26  F1  UNL     1      29.878  -1.377  53.468  1.00  0.00    -0.204 F 
HETATM   27  C20 UNL     1      27.626  -0.779  53.013  1.00  0.00     0.074 A 
HETATM   28 CL1  UNL     1      27.282  -2.447  52.575  1.00  0.00    -0.081 Cl
HETATM   29  C21 UNL     1      26.642   0.197  52.962  1.00  0.00     0.056 A 
ENDBRANCH  20  22
ENDBRANCH   6  20
TORSDOF 11
ENDMDL
MODEL 7
REMARK VINA RESULT:      -6.7      4.649      7.476
REMARK  11 active torsions:
REMARK  status: ('A' for Active; 'I' for Inactive)
REMARK    1  A    between atoms: C2_2  and  N1_3 
REMARK    2  A    between atoms: N1_3  and  C3_4 
REMARK    3  A    between atoms: N1_3  and  C5_6 
REMARK    4  A    between atoms: C5_6  and  C6_7 
REMARK    5  A    between atoms: C6_7  and  C7_8 
REMARK    6  A    between atoms: C8_9  and  C9_10 
REMARK    7  A    between atoms: C9_10  and  N2_11 
REMARK    8  A    between atoms: N2_11  and  C10_12 
REMARK    9  A    between atoms: C10_12  and  C11_13 
REMARK   10  A    between atoms: C15_18  and  N4_19 
REMARK   11  A    between atoms: N4_19  and  C16_20 
ROOT
HETATM    1  C11 UNL     1      25.104   3.108  50.316  1.00  0.00     0.012 A 
HETATM    2  C12 UNL     1      24.003   3.220  49.591  1.00  0.00    -0.012 A 
HETATM    3  C13 UNL     1      22.589   3.092  49.971  1.00  0.00     0.049 A 
HETATM    4  C14 UNL     1      22.407   2.828  51.414  1.00  0.00     0.155 A 
HETATM    5  N3  UNL     1      23.602   2.708  52.150  1.00  0.00    -0.272 NA
HETATM    6  C15 UNL     1      24.775   2.827  51.690  1.00  0.00     0.130 A 
ENDROOT
BRANCH   1   7
HETATM    7  C10 UNL     1      26.437   3.267  49.754  1.00  0.00     0.312 C 
BRANCH   7   8
HETATM    8  N2  UNL     1      27.026   4.585  49.909  1.00  0.00     0.098 N 
HETATM    9  H17 UNL     1      27.828   4.611  50.532  1.00  0.00     0.317 HD
BRANCH   8  10
HETATM   10  C9  UNL     1      27.250   5.214  48.620  1.00  0.00     0.363 C 
BRANCH  10  11
HETATM   11  C8  UNL     1      28.676   5.414  48.353  1.00  0.00    -0.076 C 
HETATM   12  C7  UNL     1      29.865   5.601  48.125  1.00  0.00    -0.103 C 
BRANCH  12  13
HETATM   13  C6  UNL     1      31.302   5.850  47.851  1.00  0.00     0.113 C 
BRANCH  13  14
HETATM   14  C5  UNL     1      31.896   4.616  47.237  1.00  0.00     0.129 C 
BRANCH  14  15
HETATM   15  N1  UNL     1      33.217   4.291  47.607  1.00  0.00    -0.412 N 
BRANCH  15  16
HETATM   16  C2  UNL     1      33.682   3.015  47.203  1.00  0.00     0.112 C 
HETATM   17  C1  UNL     1      33.049   1.859  47.944  1.00  0.00     0.026 C 
ENDBRANCH  15  16
BRANCH  15  18
HETATM   18  C3  UNL     1      34.225   5.269  47.507  1.00  0.00     0.112 C 
HETATM   19  C4  UNL     1      34.898   5.643  48.806  1.00  0.00     0.026 C 
ENDBRANCH  15  18
ENDBRANCH  14  15
ENDBRANCH  13  14
ENDBRANCH  12  13
ENDBRANCH  10  11
ENDBRANCH   8  10
ENDBRANCH   7   8
ENDBRANCH   1   7
BRANCH   6  20
HETATM   20  N4  UNL     1      25.866   2.664  52.629  1.00  0.00    -0.341 N 
HETATM   21  H25 UNL     1      26.096   3.562  53.160  1.00  0.00     0.167 HD
BRANCH  20  22
HETATM   22  C16 UNL     1      26.514   1.366  52.746  1.00  0.00     0.035 A 
HETATM   23  C17 UNL     1      25.697   0.265  52.523  1.00  0.00     0.032 A 
HETATM   24  C18 UNL     1      26.320  -0.989  52.644  1.00  0.00     0.046 A 
HETATM   25  C19 UNL     1      27.657  -1.006  52.965  1.00  0.00     0.138 A 
HETATM   26  F1  UNL     1      28.227  -2.257  53.077  1.00  0.00    -0.204 F 
HETATM   27  C20 UNL     1      28.440   0.106  53.180  1.00  0.00     0.074 A 
HETATM   28 CL1  UNL     1      30.141  -0.075  53.588  1.00  0.00    -0.081 Cl
HETATM   29  C21 UNL     1      27.855   1.358  53.069  1.00  0.00     0.056 A 
ENDBRANCH  20  22
ENDBRANCH   6  20
TORSDOF 11
ENDMDL
MODEL 8
REMARK VINA RESULT:      -6.6      3.035      5.105
REMARK  11 active torsions:
REMARK  status: ('A' for Active; 'I' for Inactive)
REMARK    1  A    between atoms: C2_2  and  N1_3 
REMARK    2  A    between atoms: N1_3  and  C3_4 
REMARK    3  A    between atoms: N1_3  and  C5_6 
REMARK    4  A    between atoms: C5_6  and  C6_7 
REMARK    5  A    between atoms: C6_7  and  C7_8 
REMARK    6  A    between atoms: C8_9  and  C9_10 
REMARK    7  A    between atoms: C9_10  and  N2_11 
REMARK    8  A    between atoms: N2_11  and  C10_12 
REMARK    9  A    between atoms: C10_12  and  C11_13 
REMARK   10  A    between atoms: C15_18  and  N4_19 
REMARK   11  A    between atoms: N4_19  and  C16_20 
ROOT
HETATM    1  C11 UNL     1      22.712   1.374  52.686  1.00  0.00     0.012 A 
HETATM    2  C12 UNL     1      21.695   1.029  53.459  1.00  0.00    -0.012 A 
HETATM    3  C13 UNL     1      21.501  -0.145  54.320  1.00  0.00     0.049 A 
HETATM    4  C14 UNL     1      22.671  -1.049  54.324  1.00  0.00     0.155 A 
HETATM    5  N3  UNL     1      23.730  -0.652  53.484  1.00  0.00    -0.272 NA
HETATM    6  C15 UNL     1      23.763   0.392  52.772  1.00  0.00     0.130 A 
ENDROOT
BRANCH   1   7
HETATM    7  C10 UNL     1      22.721   2.593  51.892  1.00  0.00     0.312 C 
BRANCH   7   8
HETATM    8  N2  UNL     1      21.882   2.572  50.707  1.00  0.00     0.098 N 
HETATM    9  H17 UNL     1      21.256   3.368  50.628  1.00  0.00     0.317 HD
BRANCH   8  10
HETATM   10  C9  UNL     1      22.665   2.306  49.514  1.00  0.00     0.363 C 
BRANCH  10  11
HETATM   11  C8  UNL     1      23.997   2.911  49.591  1.00  0.00    -0.076 C 
HETATM   12  C7  UNL     1      25.113   3.414  49.636  1.00  0.00    -0.103 C 
BRANCH  12  13
HETATM   13  C6  UNL     1      26.462   4.029  49.668  1.00  0.00     0.113 C 
BRANCH  13  14
HETATM   14  C5  UNL     1      26.408   5.350  48.959  1.00  0.00     0.129 C 
BRANCH  14  15
HETATM   15  N1  UNL     1      25.283   6.163  49.204  1.00  0.00    -0.412 N 
BRANCH  15  16
HETATM   16  C2  UNL     1      25.292   6.892  50.418  1.00  0.00     0.112 C 
HETATM   17  C1  UNL     1      24.082   6.656  51.295  1.00  0.00     0.026 C 
ENDBRANCH  15  16
BRANCH  15  18
HETATM   18  C3  UNL     1      24.728   6.912  48.149  1.00  0.00     0.112 C 
HETATM   19  C4  UNL     1      25.710   7.735  47.350  1.00  0.00     0.026 C 
ENDBRANCH  15  18
ENDBRANCH  14  15
ENDBRANCH  13  14
ENDBRANCH  12  13
ENDBRANCH  10  11
ENDBRANCH   8  10
ENDBRANCH   7   8
ENDBRANCH   1   7
BRANCH   6  20
HETATM   20  N4  UNL     1      24.958   0.607  51.981  1.00  0.00    -0.341 N 
HETATM   21  H25 UNL     1      24.761   0.647  50.931  1.00  0.00     0.167 HD
BRANCH  20  22
HETATM   22  C16 UNL     1      26.242   0.733  52.654  1.00  0.00     0.035 A 
HETATM   23  C17 UNL     1      26.519   1.984  53.188  1.00  0.00     0.032 A 
HETATM   24  C18 UNL     1      27.762   2.108  53.832  1.00  0.00     0.046 A 
HETATM   25  C19 UNL     1      28.572   0.998  53.871  1.00  0.00     0.138 A 
HETATM   26  F1  UNL     1      29.784   1.165  54.509  1.00  0.00    -0.204 F 
HETATM   27  C20 UNL     1      28.267  -0.231  53.330  1.00  0.00     0.074 A 
HETATM   28 CL1  UNL     1      29.409  -1.562  53.457  1.00  0.00    -0.081 Cl
HETATM   29  C21 UNL     1      27.047  -0.387  52.688  1.00  0.00     0.056 A 
ENDBRANCH  20  22
ENDBRANCH   6  20
TORSDOF 11
ENDMDL
MODEL 9
REMARK VINA RESULT:      -6.5      2.988      5.134
REMARK  11 active torsions:
REMARK  status: ('A' for Active; 'I' for Inactive)
REMARK    1  A    between atoms: C2_2  and  N1_3 
REMARK    2  A    between atoms: N1_3  and  C3_4 
REMARK    3  A    between atoms: N1_3  and  C5_6 
REMARK    4  A    between atoms: C5_6  and  C6_7 
REMARK    5  A    between atoms: C6_7  and  C7_8 
REMARK    6  A    between atoms: C8_9  and  C9_10 
REMARK    7  A    between atoms: C9_10  and  N2_11 
REMARK    8  A    between atoms: N2_11  and  C10_12 
REMARK    9  A    between atoms: C10_12  and  C11_13 
REMARK   10  A    between atoms: C15_18  and  N4_19 
REMARK   11  A    between atoms: N4_19  and  C16_20 
ROOT
HETATM    1  C11 UNL     1      22.338  -0.262  52.808  1.00  0.00     0.012 A 
HETATM    2  C12 UNL     1      21.576  -0.839  53.722  1.00  0.00    -0.012 A 
HETATM    3  C13 UNL     1      21.917  -1.417  55.029  1.00  0.00     0.049 A 
HETATM    4  C14 UNL     1      23.352  -1.280  55.356  1.00  0.00     0.155 A 
HETATM    5  N3  UNL     1      24.132  -0.667  54.356  1.00  0.00    -0.272 NA
HETATM    6  C15 UNL     1      23.709  -0.221  53.251  1.00  0.00     0.130 A 
ENDROOT
BRANCH   1   7
HETATM    7  C10 UNL     1      21.812   0.254  51.554  1.00  0.00     0.312 C 
BRANCH   7   8
HETATM    8  N2  UNL     1      20.406   0.615  51.568  1.00  0.00     0.098 N 
HETATM    9  H17 UNL     1      20.154   1.277  52.296  1.00  0.00     0.317 HD
BRANCH   8  10
HETATM   10  C9  UNL     1      19.945   0.983  50.241  1.00  0.00     0.363 C 
BRANCH  10  11
HETATM   11  C8  UNL     1      20.988   1.666  49.473  1.00  0.00    -0.076 C 
HETATM   12  C7  UNL     1      21.846   2.243  48.816  1.00  0.00    -0.103 C 
BRANCH  12  13
HETATM   13  C6  UNL     1      22.870   2.952  48.010  1.00  0.00     0.113 C 
BRANCH  13  14
HETATM   14  C5  UNL     1      23.209   4.245  48.691  1.00  0.00     0.129 C 
BRANCH  14  15
HETATM   15  N1  UNL     1      23.999   4.167  49.856  1.00  0.00    -0.412 N 
BRANCH  15  16
HETATM   16  C2  UNL     1      25.378   4.445  49.696  1.00  0.00     0.112 C 
HETATM   17  C1  UNL     1      26.269   3.224  49.743  1.00  0.00     0.026 C 
ENDBRANCH  15  16
BRANCH  15  18
HETATM   18  C3  UNL     1      23.499   4.686  51.066  1.00  0.00     0.112 C 
HETATM   19  C4  UNL     1      23.293   3.677  52.171  1.00  0.00     0.026 C 
ENDBRANCH  15  18
ENDBRANCH  14  15
ENDBRANCH  13  14
ENDBRANCH  12  13
ENDBRANCH  10  11
ENDBRANCH   8  10
ENDBRANCH   7   8
ENDBRANCH   1   7
BRANCH   6  20
HETATM   20  N4  UNL     1      24.689   0.375  52.366  1.00  0.00    -0.341 N 
HETATM   21  H25 UNL     1      24.279   0.659  51.421  1.00  0.00     0.167 HD
BRANCH  20  22
HETATM   22  C16 UNL     1      26.064   0.514  52.822  1.00  0.00     0.035 A 
HETATM   23  C17 UNL     1      26.435   1.788  53.233  1.00  0.00     0.032 A 
HETATM   24  C18 UNL     1      27.765   1.925  53.666  1.00  0.00     0.046 A 
HETATM   25  C19 UNL     1      28.559   0.803  53.641  1.00  0.00     0.138 A 
HETATM   26  F1  UNL     1      29.858   0.983  54.070  1.00  0.00    -0.204 F 
HETATM   27  C20 UNL     1      28.161  -0.448  53.227  1.00  0.00     0.074 A 
HETATM   28 CL1  UNL     1      29.296  -1.791  53.250  1.00  0.00    -0.081 Cl
HETATM   29  C21 UNL     1      26.854  -0.617  52.794  1.00  0.00     0.056 A 
ENDBRANCH  20  22
ENDBRANCH   6  20
TORSDOF 11
ENDMDL
