MODEL 1
REMARK VINA RESULT:      -7.2      0.000      0.000
REMARK  3 active torsions:
REMARK  status: ('A' for Active; 'I' for Inactive)
REMARK    1  A    between atoms: C1_2  and  C2_3 
REMARK    2  A    between atoms: C2_3  and  N1_4 
REMARK    3  A    between atoms: N1_4  and  C3_5 
ROOT
HETATM    1  C3  UNL     1      19.735   0.364  52.618  1.00  0.00     0.168 C 
HETATM    2  C4  UNL     1      20.328   1.681  53.065  1.00  0.00     0.030 C 
HETATM    3  C5  UNL     1      20.687   2.657  52.195  1.00  0.00     0.013 C 
HETATM    4  C6  UNL     1      20.190   2.212  50.818  1.00  0.00     0.121 C 
HETATM    5  C7  UNL     1      21.056   0.944  50.712  1.00  0.00     0.061 C 
HETATM    6  C8  UNL     1      20.599  -0.083  51.454  1.00  0.00     0.038 C 
HETATM    7  O2  UNL     1      22.129   1.264  49.825  1.00  0.00    -0.282 OA
HETATM    8  C9  UNL     1      23.113   2.105  50.138  1.00  0.00     0.257 C 
HETATM    9  N2  UNL     1      23.355   1.908  51.432  1.00  0.00    -0.202 NA
HETATM   10  C10 UNL     1      24.420   2.628  52.111  1.00  0.00     0.234 C 
HETATM   11  N3  UNL     1      25.413   3.551  51.810  1.00  0.00    -0.242 NA
HETATM   12  C11 UNL     1      25.270   3.791  50.261  1.00  0.00     0.174 A 
HETATM   13  C12 UNL     1      26.433   3.209  49.612  1.00  0.00     0.035 A 
HETATM   14  C13 UNL     1      27.090   4.188  48.967  1.00  0.00     0.019 A 
HETATM   15  C14 UNL     1      26.347   5.448  49.193  1.00  0.00     0.011 A 
HETATM   16 BR1  UNL     1      27.130   6.981  48.343  1.00  0.00    -0.051 Br
HETATM   17  C15 UNL     1      25.274   5.177  49.962  1.00  0.00     0.052 A 
HETATM   18  N4  UNL     1      24.084   3.027  50.195  1.00  0.00    -0.284 N 
HETATM   19  C16 UNL     1      23.123   4.141  50.359  1.00  0.00     0.115 C 
HETATM   20  C17 UNL     1      22.115   4.340  51.245  1.00  0.00     0.105 C 
HETATM   21  N5  UNL     1      21.397   3.848  52.344  1.00  0.00    -0.368 N 
HETATM   22  H12 UNL     1      21.275   4.194  53.305  1.00  0.00     0.165 HD
ENDROOT
BRANCH   1  23
HETATM   23  N1  UNL     1      19.920  -0.526  53.738  1.00  0.00    -0.231 NA
BRANCH  23  24
HETATM   24  C2  UNL     1      21.097  -0.664  54.190  1.00  0.00     0.039 C 
BRANCH  24  25
HETATM   25  C1  UNL     1      22.256  -0.958  54.704  1.00  0.00     0.295 C 
HETATM   26  O1  UNL     1      23.167  -1.339  55.473  1.00  0.00    -0.272 OA
ENDBRANCH  24  25
ENDBRANCH  23  24
ENDBRANCH   1  23
TORSDOF 3
ENDMDL
MODEL 2
REMARK VINA RESULT:      -7.2      3.293      4.700
REMARK  3 active torsions:
REMARK  status: ('A' for Active; 'I' for Inactive)
REMARK    1  A    between atoms: C1_2  and  C2_3 
REMARK    2  A    between atoms: C2_3  and  N1_4 
REMARK    3  A    between atoms: N1_4  and  C3_5 
ROOT
HETATM    1  C3  UNL     1      26.276   0.919  53.472  1.00  0.00     0.168 C 
HETATM    2  C4  UNL     1      25.952   2.383  53.668  1.00  0.00     0.030 C 
HETATM    3  C5  UNL     1      24.725   2.902  53.416  1.00  0.00     0.013 C 
HETATM    4  C6  UNL     1      23.805   1.715  53.126  1.00  0.00     0.121 C 
HETATM    5  C7  UNL     1      24.534   1.222  51.864  1.00  0.00     0.061 C 
HETATM    6  C8  UNL     1      25.676   0.558  52.127  1.00  0.00     0.038 C 
HETATM    7  O2  UNL     1      23.744   1.646  50.752  1.00  0.00    -0.282 OA
HETATM    8  C9  UNL     1      23.624   2.921  50.382  1.00  0.00     0.257 C 
HETATM    9  N2  UNL     1      24.816   3.471  50.600  1.00  0.00    -0.202 NA
HETATM   10  C10 UNL     1      25.072   4.860  50.256  1.00  0.00     0.234 C 
HETATM   11  N3  UNL     1      24.406   5.931  49.673  1.00  0.00    -0.242 NA
HETATM   12  C11 UNL     1      22.992   5.354  49.291  1.00  0.00     0.174 A 
HETATM   13  C12 UNL     1      22.920   5.280  47.841  1.00  0.00     0.035 A 
HETATM   14  C13 UNL     1      21.907   6.060  47.429  1.00  0.00     0.019 A 
HETATM   15  C14 UNL     1      21.292   6.665  48.632  1.00  0.00     0.011 A 
HETATM   16 BR1  UNL     1      19.809   7.824  48.254  1.00  0.00    -0.051 Br
HETATM   17  C15 UNL     1      21.958   6.225  49.717  1.00  0.00     0.052 A 
HETATM   18  N4  UNL     1      23.248   4.134  49.955  1.00  0.00    -0.284 N 
HETATM   19  C16 UNL     1      22.644   4.489  51.259  1.00  0.00     0.115 C 
HETATM   20  C17 UNL     1      23.143   4.474  52.520  1.00  0.00     0.105 C 
HETATM   21  N5  UNL     1      24.242   4.208  53.350  1.00  0.00    -0.368 N 
HETATM   22  H12 UNL     1      24.814   4.810  53.958  1.00  0.00     0.165 HD
ENDROOT
BRANCH   1  23
HETATM   23  N1  UNL     1      27.716   0.864  53.399  1.00  0.00    -0.231 NA
BRANCH  23  24
HETATM   24  C2  UNL     1      28.262  -0.279  53.447  1.00  0.00     0.039 C 
BRANCH  24  25
HETATM   25  C1  UNL     1      28.775  -1.470  53.336  1.00  0.00     0.295 C 
HETATM   26  O1  UNL     1      28.961  -2.707  53.382  1.00  0.00    -0.272 OA
ENDBRANCH  24  25
ENDBRANCH  23  24
ENDBRANCH   1  23
TORSDOF 3
ENDMDL
MODEL 3
REMARK VINA RESULT:      -7.0      3.600      6.027
REMARK  3 active torsions:
REMARK  status: ('A' for Active; 'I' for Inactive)
REMARK    1  A    between atoms: C1_2  and  C2_3 
REMARK    2  A    between atoms: C2_3  and  N1_4 
REMARK    3  A    between atoms: N1_4  and  C3_5 
ROOT
HETATM    1  C3  UNL     1      21.755   5.351  49.566  1.00  0.00     0.168 C 
HETATM    2  C4  UNL     1      23.119   5.597  50.171  1.00  0.00     0.030 C 
HETATM    3  C5  UNL     1      24.165   4.753  49.990  1.00  0.00     0.013 C 
HETATM    4  C6  UNL     1      23.713   3.723  48.953  1.00  0.00     0.121 C 
HETATM    5  C7  UNL     1      22.569   3.115  49.784  1.00  0.00     0.061 C 
HETATM    6  C8  UNL     1      21.466   3.885  49.826  1.00  0.00     0.038 C 
HETATM    7  O2  UNL     1      23.056   1.868  50.285  1.00  0.00    -0.282 OA
HETATM    8  C9  UNL     1      24.002   1.772  51.218  1.00  0.00     0.257 C 
HETATM    9  N2  UNL     1      23.788   2.787  52.052  1.00  0.00    -0.202 NA
HETATM   10  C10 UNL     1      24.610   2.966  53.238  1.00  0.00     0.234 C 
HETATM   11  N3  UNL     1      25.662   2.330  53.885  1.00  0.00    -0.242 NA
HETATM   12  C11 UNL     1      25.941   1.048  53.014  1.00  0.00     0.174 A 
HETATM   13  C12 UNL     1      25.536  -0.112  53.790  1.00  0.00     0.035 A 
HETATM   14  C13 UNL     1      26.614  -0.892  53.975  1.00  0.00     0.019 A 
HETATM   15  C14 UNL     1      27.760  -0.236  53.308  1.00  0.00     0.011 A 
HETATM   16 BR1  UNL     1      29.411  -1.204  53.457  1.00  0.00    -0.051 Br
HETATM   17  C15 UNL     1      27.327   0.910  52.748  1.00  0.00     0.052 A 
HETATM   18  N4  UNL     1      25.036   1.463  52.012  1.00  0.00    -0.284 N 
HETATM   19  C16 UNL     1      26.013   2.152  51.138  1.00  0.00     0.115 C 
HETATM   20  C17 UNL     1      26.050   3.414  50.645  1.00  0.00     0.105 C 
HETATM   21  N5  UNL     1      25.429   4.670  50.571  1.00  0.00    -0.368 N 
HETATM   22  H12 UNL     1      25.720   5.608  50.879  1.00  0.00     0.165 HD
ENDROOT
BRANCH   1  23
HETATM   23  N1  UNL     1      20.853   6.174  50.334  1.00  0.00    -0.231 NA
BRANCH  23  24
HETATM   24  C2  UNL     1      20.834   7.417  50.083  1.00  0.00     0.039 C 
BRANCH  24  25
HETATM   25  C1  UNL     1      20.695   8.656  49.712  1.00  0.00     0.295 C 
HETATM   26  O1  UNL     1      20.882   9.790  49.215  1.00  0.00    -0.272 OA
ENDBRANCH  24  25
ENDBRANCH  23  24
ENDBRANCH   1  23
TORSDOF 3
ENDMDL
MODEL 4
REMARK VINA RESULT:      -6.9      3.799      7.120
REMARK  3 active torsions:
REMARK  status: ('A' for Active; 'I' for Inactive)
REMARK    1  A    between atoms: C1_2  and  C2_3 
REMARK    2  A    between atoms: C2_3  and  N1_4 
REMARK    3  A    between atoms: N1_4  and  C3_5 
ROOT
HETATM    1  C3  UNL     1      23.938   7.711  49.320  1.00  0.00     0.168 C 
HETATM    2  C4  UNL     1      23.698   7.343  50.766  1.00  0.00     0.030 C 
HETATM    3  C5  UNL     1      24.028   6.132  51.280  1.00  0.00     0.013 C 
HETATM    4  C6  UNL     1      24.816   5.401  50.190  1.00  0.00     0.121 C 
HETATM    5  C7  UNL     1      23.680   5.340  49.153  1.00  0.00     0.061 C 
HETATM    6  C8  UNL     1      23.464   6.510  48.523  1.00  0.00     0.038 C 
HETATM    7  O2  UNL     1      23.178   4.003  49.187  1.00  0.00    -0.282 OA
HETATM    8  C9  UNL     1      22.487   3.504  50.212  1.00  0.00     0.257 C 
HETATM    9  N2  UNL     1      21.739   4.509  50.661  1.00  0.00    -0.202 NA
HETATM   10  C10 UNL     1      20.804   4.310  51.758  1.00  0.00     0.234 C 
HETATM   11  N3  UNL     1      20.357   3.281  52.575  1.00  0.00    -0.242 NA
HETATM   12  C11 UNL     1      21.128   2.008  52.061  1.00  0.00     0.174 A 
HETATM   13  C12 UNL     1      20.160   1.131  51.424  1.00  0.00     0.035 A 
HETATM   14  C13 UNL     1      20.150  -0.038  52.086  1.00  0.00     0.019 A 
HETATM   15  C14 UNL     1      21.133   0.065  53.188  1.00  0.00     0.011 A 
HETATM   16 BR1  UNL     1      21.273  -1.520  54.262  1.00  0.00    -0.051 Br
HETATM   17  C15 UNL     1      21.694   1.289  53.144  1.00  0.00     0.052 A 
HETATM   18  N4  UNL     1      21.929   2.777  51.188  1.00  0.00    -0.284 N 
HETATM   19  C16 UNL     1      23.075   2.983  52.102  1.00  0.00     0.115 C 
HETATM   20  C17 UNL     1      23.694   4.109  52.534  1.00  0.00     0.105 C 
HETATM   21  N5  UNL     1      23.753   5.510  52.497  1.00  0.00    -0.368 N 
HETATM   22  H12 UNL     1      23.623   6.230  53.221  1.00  0.00     0.165 HD
ENDROOT
BRANCH   1  23
HETATM   23  N1  UNL     1      23.072   8.837  49.073  1.00  0.00    -0.231 NA
BRANCH  23  24
HETATM   24  C2  UNL     1      21.838   8.695  49.325  1.00  0.00     0.039 C 
BRANCH  24  25
HETATM   25  C1  UNL     1      20.549   8.695  49.505  1.00  0.00     0.295 C 
HETATM   26  O1  UNL     1      19.385   8.991  49.859  1.00  0.00    -0.272 OA
ENDBRANCH  24  25
ENDBRANCH  23  24
ENDBRANCH   1  23
TORSDOF 3
ENDMDL
MODEL 5
REMARK VINA RESULT:      -6.7      3.599      6.940
REMARK  3 active torsions:
REMARK  status: ('A' for Active; 'I' for Inactive)
REMARK    1  A    between atoms: C1_2  and  C2_3 
REMARK    2  A    between atoms: C2_3  and  N1_4 
REMARK    3  A    between atoms: N1_4  and  C3_5 
ROOT
HETATM    1  C3  UNL     1      24.656   7.562  49.258  1.00  0.00     0.168 C 
HETATM    2  C4  UNL     1      23.791   6.479  48.654  1.00  0.00     0.030 C 
HETATM    3  C5  UNL     1      22.716   5.956  49.295  1.00  0.00     0.013 C 
HETATM    4  C6  UNL     1      22.506   6.807  50.550  1.00  0.00     0.121 C 
HETATM    5  C7  UNL     1      23.847   6.471  51.225  1.00  0.00     0.061 C 
HETATM    6  C8  UNL     1      24.897   7.123  50.689  1.00  0.00     0.038 C 
HETATM    7  O2  UNL     1      23.553   5.523  52.252  1.00  0.00    -0.282 OA
HETATM    8  C9  UNL     1      23.178   4.268  52.007  1.00  0.00     0.257 C 
HETATM    9  N2  UNL     1      23.865   3.893  50.931  1.00  0.00    -0.202 NA
HETATM   10  C10 UNL     1      23.746   2.543  50.403  1.00  0.00     0.234 C 
HETATM   11  N3  UNL     1      23.090   1.358  50.706  1.00  0.00    -0.242 NA
HETATM   12  C11 UNL     1      22.304   1.671  52.033  1.00  0.00     0.174 A 
HETATM   13  C12 UNL     1      22.925   0.915  53.107  1.00  0.00     0.035 A 
HETATM   14  C13 UNL     1      22.008   0.079  53.619  1.00  0.00     0.019 A 
HETATM   15  C14 UNL     1      20.748   0.284  52.870  1.00  0.00     0.011 A 
HETATM   16 BR1  UNL     1      19.298  -0.827  53.457  1.00  0.00    -0.051 Br
HETATM   17  C15 UNL     1      20.958   1.234  51.938  1.00  0.00     0.052 A 
HETATM   18  N4  UNL     1      22.639   3.042  51.973  1.00  0.00    -0.284 N 
HETATM   19  C16 UNL     1      21.429   3.510  51.260  1.00  0.00     0.115 C 
HETATM   20  C17 UNL     1      21.274   4.216  50.112  1.00  0.00     0.105 C 
HETATM   21  N5  UNL     1      21.894   4.862  49.032  1.00  0.00    -0.368 N 
HETATM   22  H12 UNL     1      21.879   4.688  48.018  1.00  0.00     0.165 HD
ENDROOT
BRANCH   1  23
HETATM   23  N1  UNL     1      25.890   7.511  48.513  1.00  0.00    -0.231 NA
BRANCH  23  24
HETATM   24  C2  UNL     1      26.576   6.447  48.586  1.00  0.00     0.039 C 
BRANCH  24  25
HETATM   25  C1  UNL     1      27.401   5.441  48.583  1.00  0.00     0.295 C 
HETATM   26  O1  UNL     1      28.432   4.732  48.534  1.00  0.00    -0.272 OA
ENDBRANCH  24  25
ENDBRANCH  23  24
ENDBRANCH   1  23
TORSDOF 3
ENDMDL
MODEL 6
REMARK VINA RESULT:      -6.6     10.207     12.002
REMARK  3 active torsions:
REMARK  status: ('A' for Active; 'I' for Inactive)
REMARK    1  A    between atoms: C1_2  and  C2_3 
REMARK    2  A    between atoms: C2_3  and  N1_4 
REMARK    3  A    between atoms: N1_4  and  C3_5 
ROOT
HETATM    1  C3  UNL     1      32.346   6.743  47.995  1.00  0.00     0.168 C 
HETATM    2  C4  UNL     1      31.531   7.401  49.085  1.00  0.00     0.030 C 
HETATM    3  C5  UNL     1      30.304   7.935  48.862  1.00  0.00     0.013 C 
HETATM    4  C6  UNL     1      29.916   7.545  47.434  1.00  0.00     0.121 C 
HETATM    5  C7  UNL     1      31.053   8.300  46.723  1.00  0.00     0.061 C 
HETATM    6  C8  UNL     1      32.245   7.679  46.806  1.00  0.00     0.038 C 
HETATM    7  O2  UNL     1      30.469   9.484  46.177  1.00  0.00    -0.282 OA
HETATM    8  C9  UNL     1      30.041  10.502  46.923  1.00  0.00     0.257 C 
HETATM    9  N2  UNL     1      30.900  10.589  47.936  1.00  0.00    -0.202 NA
HETATM   10  C10 UNL     1      30.772  11.638  48.935  1.00  0.00     0.234 C 
HETATM   11  N3  UNL     1      29.963  12.736  49.198  1.00  0.00    -0.242 NA
HETATM   12  C11 UNL     1      28.951  12.777  47.994  1.00  0.00     0.174 A 
HETATM   13  C12 UNL     1      29.266  13.944  47.188  1.00  0.00     0.035 A 
HETATM   14  C13 UNL     1      28.191  14.749  47.173  1.00  0.00     0.019 A 
HETATM   15  C14 UNL     1      27.137  14.102  47.987  1.00  0.00     0.011 A 
HETATM   16 BR1  UNL     1      25.503  15.103  48.090  1.00  0.00    -0.051 Br
HETATM   17  C15 UNL     1      27.620  12.936  48.458  1.00  0.00     0.052 A 
HETATM   18  N4  UNL     1      29.413  11.540  47.491  1.00  0.00    -0.284 N 
HETATM   19  C16 UNL     1      28.424  10.670  48.168  1.00  0.00     0.115 C 
HETATM   20  C17 UNL     1      28.574   9.599  48.985  1.00  0.00     0.105 C 
HETATM   21  N5  UNL     1      29.460   8.728  49.637  1.00  0.00    -0.368 N 
HETATM   22  H12 UNL     1      29.639   8.539  50.633  1.00  0.00     0.165 HD
ENDROOT
BRANCH   1  23
HETATM   23  N1  UNL     1      33.698   6.730  48.497  1.00  0.00    -0.231 NA
BRANCH  23  24
HETATM   24  C2  UNL     1      34.349   5.647  48.402  1.00  0.00     0.039 C 
BRANCH  24  25
HETATM   25  C1  UNL     1      34.890   4.479  48.209  1.00  0.00     0.295 C 
HETATM   26  O1  UNL     1      35.110   3.301  47.844  1.00  0.00    -0.272 OA
ENDBRANCH  24  25
ENDBRANCH  23  24
ENDBRANCH   1  23
TORSDOF 3
ENDMDL
MODEL 7
REMARK VINA RESULT:      -6.6      3.607      5.900
REMARK  3 active torsions:
REMARK  status: ('A' for Active; 'I' for Inactive)
REMARK    1  A    between atoms: C1_2  and  C2_3 
REMARK    2  A    between atoms: C2_3  and  N1_4 
REMARK    3  A    between atoms: N1_4  and  C3_5 
ROOT
HETATM    1  C3  UNL     1      25.934   1.068  52.675  1.00  0.00     0.168 C 
HETATM    2  C4  UNL     1      25.498   1.898  51.489  1.00  0.00     0.030 C 
HETATM    3  C5  UNL     1      24.433   2.737  51.533  1.00  0.00     0.013 C 
HETATM    4  C6  UNL     1      23.977   2.780  52.993  1.00  0.00     0.121 C 
HETATM    5  C7  UNL     1      23.594   1.294  53.109  1.00  0.00     0.061 C 
HETATM    6  C8  UNL     1      24.655   0.473  53.233  1.00  0.00     0.038 C 
HETATM    7  O2  UNL     1      22.168   1.240  53.039  1.00  0.00    -0.282 OA
HETATM    8  C9  UNL     1      21.479   1.498  51.928  1.00  0.00     0.257 C 
HETATM    9  N2  UNL     1      22.213   1.014  50.930  1.00  0.00    -0.202 NA
HETATM   10  C10 UNL     1      21.738   1.072  49.557  1.00  0.00     0.234 C 
HETATM   11  N3  UNL     1      20.615   1.494  48.858  1.00  0.00    -0.242 NA
HETATM   12  C11 UNL     1      19.631   2.012  49.972  1.00  0.00     0.174 A 
HETATM   13  C12 UNL     1      18.513   1.085  50.043  1.00  0.00     0.035 A 
HETATM   14  C13 UNL     1      17.388   1.759  49.757  1.00  0.00     0.019 A 
HETATM   15  C14 UNL     1      17.764   3.166  49.490  1.00  0.00     0.011 A 
HETATM   16 BR1  UNL     1      16.281   4.305  49.060  1.00  0.00    -0.051 Br
HETATM   17  C15 UNL     1      19.100   3.281  49.626  1.00  0.00     0.052 A 
HETATM   18  N4  UNL     1      20.609   1.873  50.980  1.00  0.00    -0.284 N 
HETATM   19  C16 UNL     1      21.135   3.256  50.937  1.00  0.00     0.115 C 
HETATM   20  C17 UNL     1      22.390   3.740  50.761  1.00  0.00     0.105 C 
HETATM   21  N5  UNL     1      23.746   3.451  50.552  1.00  0.00    -0.368 N 
HETATM   22  H12 UNL     1      24.389   3.660  49.776  1.00  0.00     0.165 HD
ENDROOT
BRANCH   1  23
HETATM   23  N1  UNL     1      26.758   0.025  52.116  1.00  0.00    -0.231 NA
BRANCH  23  24
HETATM   24  C2  UNL     1      27.734  -0.389  52.811  1.00  0.00     0.039 C 
BRANCH  24  25
HETATM   25  C1  UNL     1      28.808  -0.855  53.379  1.00  0.00     0.295 C 
HETATM   26  O1  UNL     1      29.844  -0.980  54.071  1.00  0.00    -0.272 OA
ENDBRANCH  24  25
ENDBRANCH  23  24
ENDBRANCH   1  23
TORSDOF 3
ENDMDL
MODEL 8
REMARK VINA RESULT:      -6.4      6.183     10.575
REMARK  3 active torsions:
REMARK  status: ('A' for Active; 'I' for Inactive)
REMARK    1  A    between atoms: C1_2  and  C2_3 
REMARK    2  A    between atoms: C2_3  and  N1_4 
REMARK    3  A    between atoms: N1_4  and  C3_5 
ROOT
HETATM    1  C3  UNL     1      31.101  10.237  47.207  1.00  0.00     0.168 C 
HETATM    2  C4  UNL     1      30.886   9.239  48.323  1.00  0.00     0.030 C 
HETATM    3  C5  UNL     1      30.312   8.027  48.122  1.00  0.00     0.013 C 
HETATM    4  C6  UNL     1      30.157   7.868  46.609  1.00  0.00     0.121 C 
HETATM    5  C7  UNL     1      29.191   9.048  46.398  1.00  0.00     0.061 C 
HETATM    6  C8  UNL     1      29.796  10.250  46.432  1.00  0.00     0.038 C 
HETATM    7  O2  UNL     1      27.892   8.478  46.231  1.00  0.00    -0.282 OA
HETATM    8  C9  UNL     1      27.216   7.891  47.218  1.00  0.00     0.257 C 
HETATM    9  N2  UNL     1      27.501   8.592  48.313  1.00  0.00    -0.202 NA
HETATM   10  C10 UNL     1      26.887   8.265  49.590  1.00  0.00     0.234 C 
HETATM   11  N3  UNL     1      25.962   7.364  50.103  1.00  0.00    -0.242 NA
HETATM   12  C11 UNL     1      25.490   6.531  48.854  1.00  0.00     0.174 A 
HETATM   13  C12 UNL     1      24.108   6.889  48.579  1.00  0.00     0.035 A 
HETATM   14  C13 UNL     1      23.356   5.782  48.690  1.00  0.00     0.019 A 
HETATM   15  C14 UNL     1      24.257   4.663  49.047  1.00  0.00     0.011 A 
HETATM   16 BR1  UNL     1      23.367   2.975  49.252  1.00  0.00    -0.051 Br
HETATM   17  C15 UNL     1      25.514   5.141  49.136  1.00  0.00     0.052 A 
HETATM   18  N4  UNL     1      26.457   7.130  48.018  1.00  0.00    -0.284 N 
HETATM   19  C16 UNL     1      27.516   6.108  48.178  1.00  0.00     0.115 C 
HETATM   20  C17 UNL     1      28.811   6.204  48.569  1.00  0.00     0.105 C 
HETATM   21  N5  UNL     1      29.857   7.037  48.992  1.00  0.00    -0.368 N 
HETATM   22  H12 UNL     1      30.395   7.086  49.868  1.00  0.00     0.165 HD
ENDROOT
BRANCH   1  23
HETATM   23  N1  UNL     1      31.291  11.503  47.871  1.00  0.00    -0.231 NA
BRANCH  23  24
HETATM   24  C2  UNL     1      30.309  11.983  48.512  1.00  0.00     0.039 C 
BRANCH  24  25
HETATM   25  C1  UNL     1      29.205  12.423  49.042  1.00  0.00     0.295 C 
HETATM   26  O1  UNL     1      28.258  13.152  49.415  1.00  0.00    -0.272 OA
ENDBRANCH  24  25
ENDBRANCH  23  24
ENDBRANCH   1  23
TORSDOF 3
ENDMDL
MODEL 9
REMARK VINA RESULT:      -6.3      9.752     11.982
REMARK  3 active torsions:
REMARK  status: ('A' for Active; 'I' for Inactive)
REMARK    1  A    between atoms: C1_2  and  C2_3 
REMARK    2  A    between atoms: C2_3  and  N1_4 
REMARK    3  A    between atoms: N1_4  and  C3_5 
ROOT
HETATM    1  C3  UNL     1      29.383  11.482  48.401  1.00  0.00     0.168 C 
HETATM    2  C4  UNL     1      29.039  10.411  47.390  1.00  0.00     0.030 C 
HETATM    3  C5  UNL     1      28.958   9.096  47.713  1.00  0.00     0.013 C 
HETATM    4  C6  UNL     1      29.079   9.018  49.237  1.00  0.00     0.121 C 
HETATM    5  C7  UNL     1      30.504   9.590  49.338  1.00  0.00     0.061 C 
HETATM    6  C8  UNL     1      30.560  10.926  49.180  1.00  0.00     0.038 C 
HETATM    7  O2  UNL     1      31.368   8.476  49.570  1.00  0.00    -0.282 OA
HETATM    8  C9  UNL     1      31.631   7.548  48.651  1.00  0.00     0.257 C 
HETATM    9  N2  UNL     1      31.679   8.197  47.490  1.00  0.00    -0.202 NA
HETATM   10  C10 UNL     1      32.002   7.498  46.257  1.00  0.00     0.234 C 
HETATM   11  N3  UNL     1      32.349   6.218  45.842  1.00  0.00    -0.242 NA
HETATM   12  C11 UNL     1      32.408   5.377  47.171  1.00  0.00     0.174 A 
HETATM   13  C12 UNL     1      33.799   5.037  47.420  1.00  0.00     0.035 A 
HETATM   14  C13 UNL     1      33.911   3.699  47.425  1.00  0.00     0.019 A 
HETATM   15  C14 UNL     1      32.566   3.136  47.173  1.00  0.00     0.011 A 
HETATM   16 BR1  UNL     1      32.512   1.218  47.143  1.00  0.00    -0.051 Br
HETATM   17  C15 UNL     1      31.698   4.157  47.028  1.00  0.00     0.052 A 
HETATM   18  N4  UNL     1      31.889   6.445  47.936  1.00  0.00    -0.284 N 
HETATM   19  C16 UNL     1      30.461   6.060  47.869  1.00  0.00     0.115 C 
HETATM   20  C17 UNL     1      29.362   6.741  47.461  1.00  0.00     0.105 C 
HETATM   21  N5  UNL     1      28.838   7.937  46.949  1.00  0.00    -0.368 N 
HETATM   22  H12 UNL     1      28.356   8.163  46.069  1.00  0.00     0.165 HD
ENDROOT
BRANCH   1  23
HETATM   23  N1  UNL     1      29.806  12.614  47.613  1.00  0.00    -0.231 NA
BRANCH  23  24
HETATM   24  C2  UNL     1      28.978  13.561  47.455  1.00  0.00     0.039 C 
BRANCH  24  25
HETATM   25  C1  UNL     1      28.024  14.417  47.229  1.00  0.00     0.295 C 
HETATM   26  O1  UNL     1      27.016  15.151  47.343  1.00  0.00    -0.272 OA
ENDBRANCH  24  25
ENDBRANCH  23  24
ENDBRANCH   1  23
TORSDOF 3
ENDMDL
