MODEL 1
REMARK VINA RESULT:      -9.4      0.000      0.000
REMARK  0 active torsions:
REMARK  status: ('A' for Active; 'I' for Inactive)
ROOT
HETATM    1  C1  UNL     1      23.713   4.694  52.853  1.00  0.00     0.143 C 
HETATM    2  N1  UNL     1      23.270   4.314  51.545  1.00  0.00    -0.405 N 
HETATM    3  C2  UNL     1      23.794   5.123  50.500  1.00  0.00     0.136 C 
HETATM    4  C3  UNL     1      23.011   5.448  49.243  1.00  0.00     0.136 C 
HETATM    5  N2  UNL     1      22.525   4.353  48.685  1.00  0.00    -0.405 N 
HETATM    6  C4  UNL     1      22.041   3.803  47.523  1.00  0.00     0.128 C 
HETATM    7  C5  UNL     1      22.341   2.081  47.469  1.00  0.00     0.104 C 
HETATM    8  C6  UNL     1      22.377   1.959  48.781  1.00  0.00    -0.145 C 
HETATM    9  C7  UNL     1      22.401   1.893  49.740  1.00  0.00     0.031 A 
HETATM   10  C8  UNL     1      22.434   1.833  51.140  1.00  0.00     0.181 A 
HETATM   11  N3  UNL     1      23.781   1.604  51.543  1.00  0.00    -0.248 NA
HETATM   12  C9  UNL     1      24.089   0.822  52.528  1.00  0.00     0.094 A 
HETATM   13  C10 UNL     1      25.554   0.573  52.963  1.00  0.00     0.066 A 
HETATM   14  C11 UNL     1      26.031  -0.274  54.024  1.00  0.00     0.079 A 
HETATM   15 CL1  UNL     1      27.653  -0.065  53.889  1.00  0.00    -0.075 Cl
HETATM   16  C12 UNL     1      24.872  -0.687  54.442  1.00  0.00    -0.085 A 
HETATM   17  C13 UNL     1      23.905  -1.017  54.770  1.00  0.00     0.280 A 
HETATM   18  C14 UNL     1      22.697  -1.410  55.158  1.00  0.00     0.259 A 
HETATM   19  C15 UNL     1      21.494  -1.063  54.644  1.00  0.00     0.269 A 
HETATM   20  C16 UNL     1      20.732  -0.358  53.724  1.00  0.00     0.041 A 
HETATM   21  C17 UNL     1      21.550   0.380  52.883  1.00  0.00     0.066 A 
HETATM   22  C18 UNL     1      22.871   0.168  53.241  1.00  0.00     0.195 A 
HETATM   23  N4  UNL     1      22.967  -0.625  54.216  1.00  0.00     0.021 N 
HETATM   24  N5  UNL     1      21.354   1.261  51.790  1.00  0.00    -0.354 N 
HETATM   25  C19 UNL     1      22.291   3.525  51.287  1.00  0.00     0.155 A 
HETATM   26  C20 UNL     1      22.248   3.639  49.786  1.00  0.00     0.171 A 
HETATM   27  H15 UNL     1      20.324   1.337  51.650  1.00  0.00     0.162 HD
ENDROOT
TORSDOF 0
ENDMDL
MODEL 2
REMARK VINA RESULT:      -9.0      2.010      3.914
REMARK  0 active torsions:
REMARK  status: ('A' for Active; 'I' for Inactive)
ROOT
HETATM    1  C1  UNL     1      22.261   1.814  48.420  1.00  0.00     0.143 C 
HETATM    2  N1  UNL     1      22.731   3.129  48.735  1.00  0.00    -0.405 N 
HETATM    3  C2  UNL     1      21.878   4.171  48.281  1.00  0.00     0.136 C 
HETATM    4  C3  UNL     1      22.403   5.516  47.813  1.00  0.00     0.136 C 
HETATM    5  N2  UNL     1      23.227   6.044  48.702  1.00  0.00    -0.405 N 
HETATM    6  C4  UNL     1      23.808   7.206  49.146  1.00  0.00     0.128 C 
HETATM    7  C5  UNL     1      24.170   7.118  50.854  1.00  0.00     0.104 C 
HETATM    8  C6  UNL     1      24.265   5.803  50.853  1.00  0.00    -0.145 C 
HETATM    9  C7  UNL     1      24.327   4.844  50.830  1.00  0.00     0.031 A 
HETATM   10  C8  UNL     1      24.407   3.446  50.763  1.00  0.00     0.181 A 
HETATM   11  N3  UNL     1      23.272   2.903  51.431  1.00  0.00    -0.248 NA
HETATM   12  C9  UNL     1      23.340   1.844  52.171  1.00  0.00     0.094 A 
HETATM   13  C10 UNL     1      22.106   1.257  52.898  1.00  0.00     0.066 A 
HETATM   14  C11 UNL     1      22.048   0.102  53.754  1.00  0.00     0.079 A 
HETATM   15 CL1  UNL     1      20.460   0.098  54.169  1.00  0.00    -0.075 Cl
HETATM   16  C12 UNL     1      23.301  -0.231  53.670  1.00  0.00    -0.085 A 
HETATM   17  C13 UNL     1      24.340  -0.488  53.589  1.00  0.00     0.280 A 
HETATM   18  C14 UNL     1      25.629  -0.786  53.471  1.00  0.00     0.259 A 
HETATM   19  C15 UNL     1      26.580  -0.138  52.758  1.00  0.00     0.269 A 
HETATM   20  C16 UNL     1      26.964   0.894  51.914  1.00  0.00     0.041 A 
HETATM   21  C17 UNL     1      25.878   1.701  51.614  1.00  0.00     0.066 A 
HETATM   22  C18 UNL     1      24.758   1.207  52.261  1.00  0.00     0.195 A 
HETATM   23  N4  UNL     1      25.026   0.177  52.934  1.00  0.00     0.021 N 
HETATM   24  N5  UNL     1      25.661   2.864  50.832  1.00  0.00    -0.354 N 
HETATM   25  C19 UNL     1      23.916   3.426  49.131  1.00  0.00     0.155 A 
HETATM   26  C20 UNL     1      23.819   4.928  49.155  1.00  0.00     0.171 A 
HETATM   27  H15 UNL     1      26.577   3.105  50.397  1.00  0.00     0.162 HD
ENDROOT
TORSDOF 0
ENDMDL
MODEL 3
REMARK VINA RESULT:      -8.7      2.502      6.769
REMARK  0 active torsions:
REMARK  status: ('A' for Active; 'I' for Inactive)
ROOT
HETATM    1  C1  UNL     1      20.611   1.903  51.912  1.00  0.00     0.143 C 
HETATM    2  N1  UNL     1      21.913   1.389  52.217  1.00  0.00    -0.405 N 
HETATM    3  C2  UNL     1      21.959  -0.026  52.348  1.00  0.00     0.136 C 
HETATM    4  C3  UNL     1      22.888  -0.730  53.318  1.00  0.00     0.136 C 
HETATM    5  N2  UNL     1      24.133  -0.309  53.180  1.00  0.00    -0.405 N 
HETATM    6  C4  UNL     1      25.454  -0.609  53.408  1.00  0.00     0.128 C 
HETATM    7  C5  UNL     1      26.487   0.147  52.217  1.00  0.00     0.104 C 
HETATM    8  C6  UNL     1      25.635   1.122  51.972  1.00  0.00    -0.145 C 
HETATM    9  C7  UNL     1      24.997   1.823  51.806  1.00  0.00     0.031 A 
HETATM   10  C8  UNL     1      24.046   2.829  51.587  1.00  0.00     0.181 A 
HETATM   11  N3  UNL     1      23.468   2.620  50.301  1.00  0.00    -0.248 NA
HETATM   12  C9  UNL     1      23.174   3.597  49.504  1.00  0.00     0.094 A 
HETATM   13  C10 UNL     1      22.549   3.368  48.106  1.00  0.00     0.066 A 
HETATM   14  C11 UNL     1      22.188   4.357  47.125  1.00  0.00     0.079 A 
HETATM   15 CL1  UNL     1      21.619   3.406  45.915  1.00  0.00    -0.075 Cl
HETATM   16  C12 UNL     1      22.538   5.406  47.808  1.00  0.00    -0.085 A 
HETATM   17  C13 UNL     1      22.834   6.258  48.388  1.00  0.00     0.280 A 
HETATM   18  C14 UNL     1      23.207   7.298  49.126  1.00  0.00     0.259 A 
HETATM   19  C15 UNL     1      23.741   7.298  50.370  1.00  0.00     0.269 A 
HETATM   20  C16 UNL     1      24.186   6.616  51.493  1.00  0.00     0.041 A 
HETATM   21  C17 UNL     1      24.038   5.249  51.319  1.00  0.00     0.066 A 
HETATM   22  C18 UNL     1      23.490   5.012  50.069  1.00  0.00     0.195 A 
HETATM   23  N4  UNL     1      23.279   6.084  49.443  1.00  0.00     0.021 N 
HETATM   24  N5  UNL     1      24.307   4.090  52.091  1.00  0.00    -0.354 N 
HETATM   25  C19 UNL     1      22.915   2.082  52.621  1.00  0.00     0.155 A 
HETATM   26  C20 UNL     1      23.907   0.981  52.889  1.00  0.00     0.171 A 
HETATM   27  H15 UNL     1      24.695   4.422  53.000  1.00  0.00     0.162 HD
ENDROOT
TORSDOF 0
ENDMDL
MODEL 4
REMARK VINA RESULT:      -8.5      1.907      6.259
REMARK  0 active torsions:
REMARK  status: ('A' for Active; 'I' for Inactive)
ROOT
HETATM    1  C1  UNL     1      26.467   1.403  51.740  1.00  0.00     0.143 C 
HETATM    2  N1  UNL     1      25.385   0.833  52.485  1.00  0.00    -0.405 N 
HETATM    3  C2  UNL     1      25.713   0.525  53.833  1.00  0.00     0.136 C 
HETATM    4  C3  UNL     1      25.120  -0.660  54.571  1.00  0.00     0.136 C 
HETATM    5  N2  UNL     1      23.801  -0.673  54.476  1.00  0.00    -0.405 N 
HETATM    6  C4  UNL     1      22.638  -1.144  55.032  1.00  0.00     0.128 C 
HETATM    7  C5  UNL     1      21.306  -0.051  54.732  1.00  0.00     0.104 C 
HETATM    8  C6  UNL     1      21.849   0.445  53.638  1.00  0.00    -0.145 C 
HETATM    9  C7  UNL     1      22.264   0.795  52.844  1.00  0.00     0.031 A 
HETATM   10  C8  UNL     1      22.897   1.285  51.694  1.00  0.00     0.181 A 
HETATM   11  N3  UNL     1      23.342   2.611  51.963  1.00  0.00    -0.248 NA
HETATM   12  C9  UNL     1      23.279   3.558  51.083  1.00  0.00     0.094 A 
HETATM   13  C10 UNL     1      23.761   4.999  51.378  1.00  0.00     0.066 A 
HETATM   14  C11 UNL     1      23.736   6.139  50.500  1.00  0.00     0.079 A 
HETATM   15 CL1  UNL     1      24.369   7.300  51.472  1.00  0.00    -0.075 Cl
HETATM   16  C12 UNL     1      23.223   5.542  49.466  1.00  0.00    -0.085 A 
HETATM   17  C13 UNL     1      22.797   5.031  48.625  1.00  0.00     0.280 A 
HETATM   18  C14 UNL     1      22.271   4.375  47.596  1.00  0.00     0.259 A 
HETATM   19  C15 UNL     1      21.915   3.071  47.523  1.00  0.00     0.269 A 
HETATM   20  C16 UNL     1      21.800   1.816  48.103  1.00  0.00     0.041 A 
HETATM   21  C17 UNL     1      22.263   1.844  49.410  1.00  0.00     0.066 A 
HETATM   22  C18 UNL     1      22.692   3.126  49.708  1.00  0.00     0.195 A 
HETATM   23  N4  UNL     1      22.546   3.905  48.728  1.00  0.00     0.021 N 
HETATM   24  N5  UNL     1      22.393   0.903  50.463  1.00  0.00    -0.354 N 
HETATM   25  C19 UNL     1      24.300   0.362  51.987  1.00  0.00     0.155 A 
HETATM   26  C20 UNL     1      23.658  -0.194  53.231  1.00  0.00     0.171 A 
HETATM   27  H15 UNL     1      22.052  -0.009  50.090  1.00  0.00     0.162 HD
ENDROOT
TORSDOF 0
ENDMDL
MODEL 5
REMARK VINA RESULT:      -8.3     10.034     12.230
REMARK  0 active torsions:
REMARK  status: ('A' for Active; 'I' for Inactive)
ROOT
HETATM    1  C1  UNL     1      33.137   9.497  47.451  1.00  0.00     0.143 C 
HETATM    2  N1  UNL     1      31.857   8.970  47.816  1.00  0.00    -0.405 N 
HETATM    3  C2  UNL     1      30.810   9.932  47.794  1.00  0.00     0.136 C 
HETATM    4  C3  UNL     1      29.642   9.895  48.761  1.00  0.00     0.136 C 
HETATM    5  N2  UNL     1      29.076   8.701  48.784  1.00  0.00    -0.405 N 
HETATM    6  C4  UNL     1      27.936   8.002  49.097  1.00  0.00     0.128 C 
HETATM    7  C5  UNL     1      27.774   6.578  48.095  1.00  0.00     0.104 C 
HETATM    8  C6  UNL     1      29.071   6.476  47.882  1.00  0.00    -0.145 C 
HETATM    9  C7  UNL     1      30.020   6.422  47.737  1.00  0.00     0.031 A 
HETATM   10  C8  UNL     1      31.407   6.373  47.543  1.00  0.00     0.181 A 
HETATM   11  N3  UNL     1      31.681   6.745  46.196  1.00  0.00    -0.248 NA
HETATM   12  C9  UNL     1      32.597   6.167  45.487  1.00  0.00     0.094 A 
HETATM   13  C10 UNL     1      32.892   6.571  44.021  1.00  0.00     0.066 A 
HETATM   14  C11 UNL     1      33.866   6.007  43.125  1.00  0.00     0.079 A 
HETATM   15 CL1  UNL     1      33.601   6.895  41.772  1.00  0.00    -0.075 Cl
HETATM   16  C12 UNL     1      34.362   5.132  43.948  1.00  0.00    -0.085 A 
HETATM   17  C13 UNL     1      34.756   4.415  44.643  1.00  0.00     0.280 A 
HETATM   18  C14 UNL     1      35.229   3.538  45.521  1.00  0.00     0.259 A 
HETATM   19  C15 UNL     1      34.838   3.335  46.801  1.00  0.00     0.269 A 
HETATM   20  C16 UNL     1      34.022   3.648  47.879  1.00  0.00     0.041 A 
HETATM   21  C17 UNL     1      33.149   4.672  47.543  1.00  0.00     0.066 A 
HETATM   22  C18 UNL     1      33.381   5.047  46.230  1.00  0.00     0.195 A 
HETATM   23  N4  UNL     1      34.306   4.369  45.708  1.00  0.00     0.021 N 
HETATM   24  N5  UNL     1      32.121   5.389  48.204  1.00  0.00    -0.354 N 
HETATM   25  C19 UNL     1      31.647   7.838  48.382  1.00  0.00     0.155 A 
HETATM   26  C20 UNL     1      30.162   7.930  48.617  1.00  0.00     0.171 A 
HETATM   27  H15 UNL     1      32.074   5.013  49.176  1.00  0.00     0.162 HD
ENDROOT
TORSDOF 0
ENDMDL
MODEL 6
REMARK VINA RESULT:      -7.9      9.310     11.780
REMARK  0 active torsions:
REMARK  status: ('A' for Active; 'I' for Inactive)
ROOT
HETATM    1  C1  UNL     1      31.783   7.463  44.155  1.00  0.00     0.143 C 
HETATM    2  N1  UNL     1      32.530   6.481  44.881  1.00  0.00    -0.405 N 
HETATM    3  C2  UNL     1      33.894   6.387  44.490  1.00  0.00     0.136 C 
HETATM    4  C3  UNL     1      34.663   5.080  44.502  1.00  0.00     0.136 C 
HETATM    5  N2  UNL     1      34.547   4.467  45.667  1.00  0.00    -0.405 N 
HETATM    6  C4  UNL     1      35.100   3.531  46.505  1.00  0.00     0.128 C 
HETATM    7  C5  UNL     1      34.742   3.891  48.178  1.00  0.00     0.104 C 
HETATM    8  C6  UNL     1      33.640   4.554  47.888  1.00  0.00    -0.145 C 
HETATM    9  C7  UNL     1      32.841   5.035  47.654  1.00  0.00     0.031 A 
HETATM   10  C8  UNL     1      31.684   5.732  47.278  1.00  0.00     0.181 A 
HETATM   11  N3  UNL     1      31.914   7.122  47.492  1.00  0.00    -0.248 NA
HETATM   12  C9  UNL     1      31.002   7.916  47.953  1.00  0.00     0.094 A 
HETATM   13  C10 UNL     1      31.254   9.425  48.187  1.00  0.00     0.066 A 
HETATM   14  C11 UNL     1      30.337  10.407  48.701  1.00  0.00     0.079 A 
HETATM   15 CL1  UNL     1      31.279  11.751  48.694  1.00  0.00    -0.075 Cl
HETATM   16  C12 UNL     1      29.316   9.618  48.856  1.00  0.00    -0.085 A 
HETATM   17  C13 UNL     1      28.486   8.949  48.978  1.00  0.00     0.280 A 
HETATM   18  C14 UNL     1      27.473   8.102  49.117  1.00  0.00     0.259 A 
HETATM   19  C15 UNL     1      27.440   6.777  48.839  1.00  0.00     0.269 A 
HETATM   20  C16 UNL     1      28.061   5.622  48.389  1.00  0.00     0.041 A 
HETATM   21  C17 UNL     1      29.373   5.888  48.028  1.00  0.00     0.066 A 
HETATM   22  C18 UNL     1      29.633   7.232  48.238  1.00  0.00     0.195 A 
HETATM   23  N4  UNL     1      28.625   7.835  48.692  1.00  0.00     0.021 N 
HETATM   24  N5  UNL     1      30.460   5.134  47.517  1.00  0.00    -0.354 N 
HETATM   25  C19 UNL     1      32.032   5.556  45.618  1.00  0.00     0.155 A 
HETATM   26  C20 UNL     1      33.283   4.798  45.974  1.00  0.00     0.171 A 
HETATM   27  H15 UNL     1      30.114   4.159  47.395  1.00  0.00     0.162 HD
ENDROOT
TORSDOF 0
ENDMDL
MODEL 7
REMARK VINA RESULT:      -7.7      2.697      3.933
REMARK  0 active torsions:
REMARK  status: ('A' for Active; 'I' for Inactive)
ROOT
HETATM    1  C1  UNL     1      22.199   6.691  51.207  1.00  0.00     0.143 C 
HETATM    2  N1  UNL     1      21.293   5.970  50.365  1.00  0.00    -0.405 N 
HETATM    3  C2  UNL     1      20.598   6.787  49.432  1.00  0.00     0.136 C 
HETATM    4  C3  UNL     1      19.176   6.501  48.990  1.00  0.00     0.136 C 
HETATM    5  N2  UNL     1      19.041   5.248  48.590  1.00  0.00    -0.405 N 
HETATM    6  C4  UNL     1      18.280   4.381  47.846  1.00  0.00     0.128 C 
HETATM    7  C5  UNL     1      19.248   3.060  47.231  1.00  0.00     0.104 C 
HETATM    8  C6  UNL     1      20.136   3.147  48.201  1.00  0.00    -0.145 C 
HETATM    9  C7  UNL     1      20.774   3.230  48.916  1.00  0.00     0.031 A 
HETATM   10  C8  UNL     1      21.686   3.380  49.970  1.00  0.00     0.181 A 
HETATM   11  N3  UNL     1      22.892   3.922  49.440  1.00  0.00    -0.248 NA
HETATM   12  C9  UNL     1      24.062   3.543  49.844  1.00  0.00     0.094 A 
HETATM   13  C10 UNL     1      25.371   4.132  49.265  1.00  0.00     0.066 A 
HETATM   14  C11 UNL     1      26.726   3.793  49.614  1.00  0.00     0.079 A 
HETATM   15 CL1  UNL     1      27.567   4.777  48.606  1.00  0.00    -0.075 Cl
HETATM   16  C12 UNL     1      26.447   2.907  50.523  1.00  0.00    -0.085 A 
HETATM   17  C13 UNL     1      26.195   2.179  51.269  1.00  0.00     0.280 A 
HETATM   18  C14 UNL     1      25.858   1.282  52.190  1.00  0.00     0.259 A 
HETATM   19  C15 UNL     1      24.618   0.898  52.576  1.00  0.00     0.269 A 
HETATM   20  C16 UNL     1      23.238   0.991  52.472  1.00  0.00     0.041 A 
HETATM   21  C17 UNL     1      22.888   1.924  51.508  1.00  0.00     0.066 A 
HETATM   22  C18 UNL     1      24.042   2.461  50.962  1.00  0.00     0.195 A 
HETATM   23  N4  UNL     1      25.077   1.964  51.481  1.00  0.00     0.021 N 
HETATM   24  N5  UNL     1      21.675   2.431  50.977  1.00  0.00    -0.354 N 
HETATM   25  C19 UNL     1      20.888   4.767  50.557  1.00  0.00     0.155 A 
HETATM   26  C20 UNL     1      19.883   4.645  49.443  1.00  0.00     0.171 A 
HETATM   27  H15 UNL     1      20.903   1.953  51.490  1.00  0.00     0.162 HD
ENDROOT
TORSDOF 0
ENDMDL
MODEL 8
REMARK VINA RESULT:      -7.6      4.448      5.563
REMARK  0 active torsions:
REMARK  status: ('A' for Active; 'I' for Inactive)
ROOT
HETATM    1  C1  UNL     1      17.752   3.985  51.434  1.00  0.00     0.143 C 
HETATM    2  N1  UNL     1      17.044   2.874  50.873  1.00  0.00    -0.405 N 
HETATM    3  C2  UNL     1      16.116   3.234  49.858  1.00  0.00     0.136 C 
HETATM    4  C3  UNL     1      14.809   2.495  49.642  1.00  0.00     0.136 C 
HETATM    5  N2  UNL     1      15.006   1.191  49.548  1.00  0.00    -0.405 N 
HETATM    6  C4  UNL     1      14.482   0.003  49.100  1.00  0.00     0.128 C 
HETATM    7  C5  UNL     1      15.748  -1.134  48.699  1.00  0.00     0.104 C 
HETATM    8  C6  UNL     1      16.617  -0.589  49.527  1.00  0.00    -0.145 C 
HETATM    9  C7  UNL     1      17.236  -0.175  50.136  1.00  0.00     0.031 A 
HETATM   10  C8  UNL     1      18.114   0.454  51.029  1.00  0.00     0.181 A 
HETATM   11  N3  UNL     1      19.104   1.141  50.268  1.00  0.00    -0.248 NA
HETATM   12  C9  UNL     1      20.348   1.184  50.623  1.00  0.00     0.094 A 
HETATM   13  C10 UNL     1      21.422   1.930  49.794  1.00  0.00     0.066 A 
HETATM   14  C11 UNL     1      22.830   2.044  50.068  1.00  0.00     0.079 A 
HETATM   15 CL1  UNL     1      23.330   2.934  48.783  1.00  0.00    -0.075 Cl
HETATM   16  C12 UNL     1      22.841   1.365  51.176  1.00  0.00    -0.085 A 
HETATM   17  C13 UNL     1      22.828   0.800  52.088  1.00  0.00     0.280 A 
HETATM   18  C14 UNL     1      22.785   0.099  53.216  1.00  0.00     0.259 A 
HETATM   19  C15 UNL     1      21.714  -0.483  53.804  1.00  0.00     0.269 A 
HETATM   20  C16 UNL     1      20.358  -0.775  53.826  1.00  0.00     0.041 A 
HETATM   21  C17 UNL     1      19.728  -0.226  52.720  1.00  0.00     0.066 A 
HETATM   22  C18 UNL     1      20.668   0.439  51.951  1.00  0.00     0.195 A 
HETATM   23  N4  UNL     1      21.820   0.365  52.457  1.00  0.00     0.021 N 
HETATM   24  N5  UNL     1      18.403  -0.191  52.218  1.00  0.00    -0.354 N 
HETATM   25  C19 UNL     1      16.992   1.692  51.370  1.00  0.00     0.155 A 
HETATM   26  C20 UNL     1      16.014   1.049  50.423  1.00  0.00     0.171 A 
HETATM   27  H15 UNL     1      17.812  -0.711  52.902  1.00  0.00     0.162 HD
ENDROOT
TORSDOF 0
ENDMDL
MODEL 9
REMARK VINA RESULT:      -7.5      5.512      9.598
REMARK  0 active torsions:
REMARK  status: ('A' for Active; 'I' for Inactive)
ROOT
HETATM    1  C1  UNL     1      22.989   8.105  49.698  1.00  0.00     0.143 C 
HETATM    2  N1  UNL     1      23.693   6.873  49.892  1.00  0.00    -0.405 N 
HETATM    3  C2  UNL     1      22.852   5.728  49.929  1.00  0.00     0.136 C 
HETATM    4  C3  UNL     1      23.151   4.519  50.795  1.00  0.00     0.136 C 
HETATM    5  N2  UNL     1      24.387   4.091  50.610  1.00  0.00    -0.405 N 
HETATM    6  C4  UNL     1      25.239   3.021  50.741  1.00  0.00     0.128 C 
HETATM    7  C5  UNL     1      26.510   3.077  49.541  1.00  0.00     0.104 C 
HETATM    8  C6  UNL     1      26.445   4.387  49.410  1.00  0.00    -0.145 C 
HETATM    9  C7  UNL     1      26.379   5.343  49.327  1.00  0.00     0.031 A 
HETATM   10  C8  UNL     1      26.255   6.736  49.230  1.00  0.00     0.181 A 
HETATM   11  N3  UNL     1      25.664   7.042  47.970  1.00  0.00    -0.248 NA
HETATM   12  C9  UNL     1      26.033   8.055  47.255  1.00  0.00     0.094 A 
HETATM   13  C10 UNL     1      25.391   8.385  45.886  1.00  0.00     0.066 A 
HETATM   14  C11 UNL     1      25.715   9.466  44.992  1.00  0.00     0.079 A 
HETATM   15 CL1  UNL     1      24.671   9.179  43.760  1.00  0.00    -0.075 Cl
HETATM   16  C12 UNL     1      26.645  10.010  45.719  1.00  0.00    -0.085 A 
HETATM   17  C13 UNL     1      27.410  10.443  46.334  1.00  0.00     0.280 A 
HETATM   18  C14 UNL     1      28.353  10.961  47.114  1.00  0.00     0.259 A 
HETATM   19  C15 UNL     1      28.780  10.523  48.322  1.00  0.00     0.269 A 
HETATM   20  C16 UNL     1      28.714   9.618  49.370  1.00  0.00     0.041 A 
HETATM   21  C17 UNL     1      27.748   8.656  49.118  1.00  0.00     0.066 A 
HETATM   22  C18 UNL     1      27.163   8.917  47.891  1.00  0.00     0.195 A 
HETATM   23  N4  UNL     1      27.659   9.941  47.347  1.00  0.00     0.021 N 
HETATM   24  N5  UNL     1      27.246   7.517  49.797  1.00  0.00    -0.354 N 
HETATM   25  C19 UNL     1      24.912   6.761  50.279  1.00  0.00     0.155 A 
HETATM   26  C20 UNL     1      25.008   5.264  50.417  1.00  0.00     0.171 A 
HETATM   27  H15 UNL     1      27.762   7.458  50.701  1.00  0.00     0.162 HD
ENDROOT
TORSDOF 0
ENDMDL
