MODEL 1
REMARK VINA RESULT:      -8.4      0.000      0.000
REMARK  3 active torsions:
REMARK  status: ('A' for Active; 'I' for Inactive)
REMARK    1  A    between atoms: O1_1  and  C1_2 
REMARK    2  A    between atoms: C6_8  and  N2_9 
REMARK    3  A    between atoms: N2_9  and  C7_10 
ROOT
HETATM    1  C1  UNL     1      29.428   0.972  54.238  1.00  0.00     0.167 A 
HETATM    2  C2  UNL     1      28.588   1.959  53.545  1.00  0.00     0.020 A 
HETATM    3  C3  UNL     1      27.318   1.553  53.534  1.00  0.00    -0.008 A 
HETATM    4  C4  UNL     1      26.308   2.397  52.888  1.00  0.00     0.161 C 
HETATM    5  N1  UNL     1      25.091   1.705  52.553  1.00  0.00    -0.379 N 
HETATM    6  C5  UNL     1      24.322   0.752  53.271  1.00  0.00     0.129 A 
HETATM    7  C6  UNL     1      22.972   0.879  53.051  1.00  0.00     0.160 A 
HETATM    8  N3  UNL     1      22.219  -0.019  53.696  1.00  0.00    -0.222 NA
HETATM    9  C13 UNL     1      22.665  -0.989  54.505  1.00  0.00     0.238 A 
HETATM   10  N4  UNL     1      23.988  -1.098  54.710  1.00  0.00    -0.215 NA
HETATM   11  C14 UNL     1      24.844  -0.228  54.096  1.00  0.00     0.202 A 
HETATM   12  O2  UNL     1      26.153  -0.534  54.458  1.00  0.00    -0.290 OA
HETATM   13  C15 UNL     1      27.291   0.268  54.229  1.00  0.00     0.084 A 
HETATM   14  C16 UNL     1      28.491  -0.096  54.648  1.00  0.00     0.046 A 
HETATM   15  H6  UNL     1      24.651   1.904  51.607  1.00  0.00     0.160 HD
ENDROOT
BRANCH   7  16
HETATM   16  N2  UNL     1      22.435   1.910  52.236  1.00  0.00    -0.339 N 
HETATM   17  H7  UNL     1      22.037   2.808  52.568  1.00  0.00     0.167 HD
BRANCH  16  18
HETATM   18  C7  UNL     1      22.337   1.877  50.816  1.00  0.00     0.033 A 
HETATM   19  C8  UNL     1      21.554   0.994  50.100  1.00  0.00     0.029 A 
HETATM   20  C9  UNL     1      21.433   0.948  48.742  1.00  0.00     0.002 A 
HETATM   21  C10 UNL     1      22.136   1.842  47.979  1.00  0.00     0.000 A 
HETATM   22  C11 UNL     1      22.928   2.741  48.615  1.00  0.00     0.002 A 
HETATM   23  C12 UNL     1      23.017   2.748  49.990  1.00  0.00     0.029 A 
ENDBRANCH  16  18
ENDBRANCH   7  16
BRANCH   1  24
HETATM   24  O1  UNL     1      30.408   0.418  53.418  1.00  0.00    -0.388 OA
HETATM   25  H1  UNL     1      29.993   0.025  52.591  1.00  0.00     0.210 HD
ENDBRANCH   1  24
TORSDOF 3
ENDMDL
MODEL 2
REMARK VINA RESULT:      -8.4      2.889      6.898
REMARK  3 active torsions:
REMARK  status: ('A' for Active; 'I' for Inactive)
REMARK    1  A    between atoms: O1_1  and  C1_2 
REMARK    2  A    between atoms: C6_8  and  N2_9 
REMARK    3  A    between atoms: N2_9  and  C7_10 
ROOT
HETATM    1  C1  UNL     1      18.640   0.351  51.360  1.00  0.00     0.167 A 
HETATM    2  C2  UNL     1      19.942   0.671  50.760  1.00  0.00     0.020 A 
HETATM    3  C3  UNL     1      20.925   0.381  51.613  1.00  0.00    -0.008 A 
HETATM    4  C4  UNL     1      22.312   0.625  51.209  1.00  0.00     0.161 C 
HETATM    5  N1  UNL     1      23.240   0.690  52.307  1.00  0.00    -0.379 N 
HETATM    6  C5  UNL     1      23.367  -0.098  53.480  1.00  0.00     0.129 A 
HETATM    7  C6  UNL     1      24.674  -0.272  53.870  1.00  0.00     0.160 A 
HETATM    8  N3  UNL     1      24.828  -0.992  54.986  1.00  0.00    -0.222 NA
HETATM    9  C13 UNL     1      23.845  -1.533  55.718  1.00  0.00     0.238 A 
HETATM   10  N4  UNL     1      22.575  -1.355  55.323  1.00  0.00    -0.215 NA
HETATM   11  C14 UNL     1      22.310  -0.633  54.194  1.00  0.00     0.202 A 
HETATM   12  O2  UNL     1      20.934  -0.585  53.986  1.00  0.00    -0.290 OA
HETATM   13  C15 UNL     1      20.282  -0.146  52.816  1.00  0.00     0.084 A 
HETATM   14  C16 UNL     1      18.965  -0.176  52.703  1.00  0.00     0.046 A 
HETATM   15  H6  UNL     1      23.982   1.451  52.286  1.00  0.00     0.160 HD
ENDROOT
BRANCH   7  16
HETATM   16  N2  UNL     1      25.759   0.243  53.114  1.00  0.00    -0.339 N 
HETATM   17  H7  UNL     1      25.695   0.919  52.331  1.00  0.00     0.167 HD
BRANCH  16  18
HETATM   18  C7  UNL     1      27.130  -0.101  53.293  1.00  0.00     0.033 A 
HETATM   19  C8  UNL     1      27.682  -1.327  52.982  1.00  0.00     0.029 A 
HETATM   20  C9  UNL     1      28.992  -1.679  53.133  1.00  0.00     0.002 A 
HETATM   21  C10 UNL     1      29.875  -0.761  53.638  1.00  0.00     0.000 A 
HETATM   22  C11 UNL     1      29.402   0.467  53.967  1.00  0.00     0.002 A 
HETATM   23  C12 UNL     1      28.070   0.775  53.795  1.00  0.00     0.029 A 
ENDBRANCH  16  18
ENDBRANCH   7  16
BRANCH   1  24
HETATM   24  O1  UNL     1      17.816   1.465  51.504  1.00  0.00    -0.388 OA
HETATM   25  H1  UNL     1      18.366   2.305  51.554  1.00  0.00     0.210 HD
ENDBRANCH   1  24
TORSDOF 3
ENDMDL
MODEL 3
REMARK VINA RESULT:      -8.4      3.381      5.808
REMARK  3 active torsions:
REMARK  status: ('A' for Active; 'I' for Inactive)
REMARK    1  A    between atoms: O1_1  and  C1_2 
REMARK    2  A    between atoms: C6_8  and  N2_9 
REMARK    3  A    between atoms: N2_9  and  C7_10 
ROOT
HETATM    1  C1  UNL     1      21.019  -0.677  53.580  1.00  0.00     0.167 A 
HETATM    2  C2  UNL     1      21.105   0.016  52.287  1.00  0.00     0.020 A 
HETATM    3  C3  UNL     1      22.311   0.564  52.139  1.00  0.00    -0.008 A 
HETATM    4  C4  UNL     1      22.608   1.306  50.911  1.00  0.00     0.161 C 
HETATM    5  N1  UNL     1      23.734   2.196  51.020  1.00  0.00    -0.379 N 
HETATM    6  C5  UNL     1      25.005   2.035  51.630  1.00  0.00     0.129 A 
HETATM    7  C6  UNL     1      26.011   2.677  50.949  1.00  0.00     0.160 A 
HETATM    8  N3  UNL     1      27.220   2.564  51.510  1.00  0.00    -0.222 NA
HETATM    9  C13 UNL     1      27.509   1.900  52.637  1.00  0.00     0.238 A 
HETATM   10  N4  UNL     1      26.514   1.277  53.290  1.00  0.00    -0.215 NA
HETATM   11  C14 UNL     1      25.240   1.332  52.798  1.00  0.00     0.202 A 
HETATM   12  O2  UNL     1      24.389   0.619  53.637  1.00  0.00    -0.290 OA
HETATM   13  C15 UNL     1      23.060   0.242  53.352  1.00  0.00     0.084 A 
HETATM   14  C16 UNL     1      22.344  -0.472  54.204  1.00  0.00     0.046 A 
HETATM   15  H6  UNL     1      23.648   3.162  50.586  1.00  0.00     0.160 HD
ENDROOT
BRANCH   7  16
HETATM   16  N2  UNL     1      25.775   3.363  49.728  1.00  0.00    -0.339 N 
HETATM   17  H7  UNL     1      25.136   3.062  48.969  1.00  0.00     0.167 HD
BRANCH  16  18
HETATM   18  C7  UNL     1      26.396   4.582  49.331  1.00  0.00     0.033 A 
HETATM   19  C8  UNL     1      27.616   4.674  48.692  1.00  0.00     0.029 A 
HETATM   20  C9  UNL     1      28.227   5.826  48.290  1.00  0.00     0.002 A 
HETATM   21  C10 UNL     1      27.607   7.025  48.522  1.00  0.00     0.000 A 
HETATM   22  C11 UNL     1      26.403   7.012  49.147  1.00  0.00     0.002 A 
HETATM   23  C12 UNL     1      25.826   5.822  49.534  1.00  0.00     0.029 A 
ENDBRANCH  16  18
ENDBRANCH   7  16
BRANCH   1  24
HETATM   24  O1  UNL     1      20.043  -0.145  54.420  1.00  0.00    -0.388 OA
HETATM   25  H1  UNL     1      19.856   0.813  54.180  1.00  0.00     0.210 HD
ENDBRANCH   1  24
TORSDOF 3
ENDMDL
MODEL 4
REMARK VINA RESULT:      -8.3      1.797      2.212
REMARK  3 active torsions:
REMARK  status: ('A' for Active; 'I' for Inactive)
REMARK    1  A    between atoms: O1_1  and  C1_2 
REMARK    2  A    between atoms: C6_8  and  N2_9 
REMARK    3  A    between atoms: N2_9  and  C7_10 
ROOT
HETATM    1  C1  UNL     1      29.198   1.176  54.073  1.00  0.00     0.167 A 
HETATM    2  C2  UNL     1      28.242   1.631  53.053  1.00  0.00     0.020 A 
HETATM    3  C3  UNL     1      27.050   1.071  53.260  1.00  0.00    -0.008 A 
HETATM    4  C4  UNL     1      25.947   1.393  52.350  1.00  0.00     0.161 C 
HETATM    5  N1  UNL     1      24.862   0.448  52.385  1.00  0.00    -0.379 N 
HETATM    6  C5  UNL     1      24.223  -0.212  53.467  1.00  0.00     0.129 A 
HETATM    7  C6  UNL     1      22.877  -0.399  53.259  1.00  0.00     0.160 A 
HETATM    8  N3  UNL     1      22.248  -1.038  54.252  1.00  0.00    -0.222 NA
HETATM    9  C13 UNL     1      22.808  -1.488  55.382  1.00  0.00     0.238 A 
HETATM   10  N4  UNL     1      24.124  -1.296  55.569  1.00  0.00    -0.215 NA
HETATM   11  C14 UNL     1      24.859  -0.652  54.613  1.00  0.00     0.202 A 
HETATM   12  O2  UNL     1      26.186  -0.571  55.026  1.00  0.00    -0.290 OA
HETATM   13  C15 UNL     1      27.195   0.219  54.438  1.00  0.00     0.084 A 
HETATM   14  C16 UNL     1      28.422   0.257  54.931  1.00  0.00     0.046 A 
HETATM   15  H6  UNL     1      24.430   0.154  51.460  1.00  0.00     0.160 HD
ENDROOT
BRANCH   7  16
HETATM   16  N2  UNL     1      22.219   0.090  52.101  1.00  0.00    -0.339 N 
HETATM   17  H7  UNL     1      22.291  -0.300  51.143  1.00  0.00     0.167 HD
BRANCH  16  18
HETATM   18  C7  UNL     1      21.354   1.221  52.056  1.00  0.00     0.033 A 
HETATM   19  C8  UNL     1      21.754   2.528  52.244  1.00  0.00     0.029 A 
HETATM   20  C9  UNL     1      20.950   3.629  52.195  1.00  0.00     0.002 A 
HETATM   21  C10 UNL     1      19.614   3.468  51.939  1.00  0.00     0.000 A 
HETATM   22  C11 UNL     1      19.147   2.209  51.745  1.00  0.00     0.002 A 
HETATM   23  C12 UNL     1      20.000   1.128  51.804  1.00  0.00     0.029 A 
ENDBRANCH  16  18
ENDBRANCH   7  16
BRANCH   1  24
HETATM   24  O1  UNL     1      30.279   0.481  53.535  1.00  0.00    -0.388 OA
HETATM   25  H1  UNL     1      29.962  -0.338  53.046  1.00  0.00     0.210 HD
ENDBRANCH   1  24
TORSDOF 3
ENDMDL
MODEL 5
REMARK VINA RESULT:      -8.1      3.740      5.936
REMARK  3 active torsions:
REMARK  status: ('A' for Active; 'I' for Inactive)
REMARK    1  A    between atoms: O1_1  and  C1_2 
REMARK    2  A    between atoms: C6_8  and  N2_9 
REMARK    3  A    between atoms: N2_9  and  C7_10 
ROOT
HETATM    1  C1  UNL     1      27.537   6.473  48.457  1.00  0.00     0.167 A 
HETATM    2  C2  UNL     1      27.522   5.009  48.590  1.00  0.00     0.020 A 
HETATM    3  C3  UNL     1      26.490   4.628  49.343  1.00  0.00    -0.008 A 
HETATM    4  C4  UNL     1      26.289   3.200  49.602  1.00  0.00     0.161 C 
HETATM    5  N1  UNL     1      25.445   2.921  50.734  1.00  0.00    -0.379 N 
HETATM    6  C5  UNL     1      24.233   3.515  51.173  1.00  0.00     0.129 A 
HETATM    7  C6  UNL     1      23.372   2.611  51.748  1.00  0.00     0.160 A 
HETATM    8  N3  UNL     1      22.227   3.142  52.193  1.00  0.00    -0.222 NA
HETATM    9  C13 UNL     1      21.876   4.432  52.122  1.00  0.00     0.238 A 
HETATM   10  N4  UNL     1      22.728   5.302  51.556  1.00  0.00    -0.215 NA
HETATM   11  C14 UNL     1      23.926   4.859  51.069  1.00  0.00     0.202 A 
HETATM   12  O2  UNL     1      24.633   5.932  50.534  1.00  0.00    -0.290 OA
HETATM   13  C15 UNL     1      25.790   5.851  49.732  1.00  0.00     0.084 A 
HETATM   14  C16 UNL     1      26.369   6.933  49.237  1.00  0.00     0.046 A 
HETATM   15  H6  UNL     1      25.740   2.142  51.394  1.00  0.00     0.160 HD
ENDROOT
BRANCH   7  16
HETATM   16  N2  UNL     1      23.670   1.225  51.816  1.00  0.00    -0.339 N 
HETATM   17  H7  UNL     1      24.064   0.644  51.052  1.00  0.00     0.167 HD
BRANCH  16  18
HETATM   18  C7  UNL     1      23.461   0.388  52.949  1.00  0.00     0.033 A 
HETATM   19  C8  UNL     1      24.462  -0.118  53.752  1.00  0.00     0.029 A 
HETATM   20  C9  UNL     1      24.289  -0.911  54.848  1.00  0.00     0.002 A 
HETATM   21  C10 UNL     1      23.020  -1.264  55.222  1.00  0.00     0.000 A 
HETATM   22  C11 UNL     1      21.983  -0.804  54.477  1.00  0.00     0.002 A 
HETATM   23  C12 UNL     1      22.209  -0.004  53.378  1.00  0.00     0.029 A 
ENDBRANCH  16  18
ENDBRANCH   7  16
BRANCH   1  24
HETATM   24  O1  UNL     1      28.686   7.057  48.986  1.00  0.00    -0.388 OA
HETATM   25  H1  UNL     1      29.468   6.914  48.370  1.00  0.00     0.210 HD
ENDBRANCH   1  24
TORSDOF 3
ENDMDL
MODEL 6
REMARK VINA RESULT:      -8.0      3.907      5.725
REMARK  3 active torsions:
REMARK  status: ('A' for Active; 'I' for Inactive)
REMARK    1  A    between atoms: O1_1  and  C1_2 
REMARK    2  A    between atoms: C6_8  and  N2_9 
REMARK    3  A    between atoms: N2_9  and  C7_10 
ROOT
HETATM    1  C1  UNL     1      25.987  -0.098  54.077  1.00  0.00     0.167 A 
HETATM    2  C2  UNL     1      24.915  -0.809  54.787  1.00  0.00     0.020 A 
HETATM    3  C3  UNL     1      23.745  -0.596  54.183  1.00  0.00    -0.008 A 
HETATM    4  C4  UNL     1      22.539  -1.219  54.734  1.00  0.00     0.161 C 
HETATM    5  N1  UNL     1      21.311  -0.608  54.297  1.00  0.00    -0.379 N 
HETATM    6  C5  UNL     1      20.895  -0.138  53.023  1.00  0.00     0.129 A 
HETATM    7  C6  UNL     1      19.553  -0.330  52.794  1.00  0.00     0.160 A 
HETATM    8  N3  UNL     1      19.123   0.122  51.611  1.00  0.00    -0.222 NA
HETATM    9  C13 UNL     1      19.871   0.721  50.675  1.00  0.00     0.238 A 
HETATM   10  N4  UNL     1      21.180   0.900  50.915  1.00  0.00    -0.215 NA
HETATM   11  C14 UNL     1      21.719   0.473  52.096  1.00  0.00     0.202 A 
HETATM   12  O2  UNL     1      23.080   0.764  52.116  1.00  0.00    -0.290 OA
HETATM   13  C15 UNL     1      24.024   0.276  53.044  1.00  0.00     0.084 A 
HETATM   14  C16 UNL     1      25.307   0.582  52.954  1.00  0.00     0.046 A 
HETATM   15  H6  UNL     1      20.547  -0.454  55.019  1.00  0.00     0.160 HD
ENDROOT
BRANCH   7  16
HETATM   16  N2  UNL     1      18.717  -0.994  53.730  1.00  0.00    -0.339 N 
HETATM   17  H7  UNL     1      18.754  -0.897  54.762  1.00  0.00     0.167 HD
BRANCH  16  18
HETATM   18  C7  UNL     1      17.691  -1.927  53.406  1.00  0.00     0.033 A 
HETATM   19  C8  UNL     1      16.565  -1.635  52.664  1.00  0.00     0.029 A 
HETATM   20  C9  UNL     1      15.574  -2.511  52.331  1.00  0.00     0.002 A 
HETATM   21  C10 UNL     1      15.664  -3.811  52.751  1.00  0.00     0.000 A 
HETATM   22  C11 UNL     1      16.745  -4.172  53.487  1.00  0.00     0.002 A 
HETATM   23  C12 UNL     1      17.721  -3.250  53.798  1.00  0.00     0.029 A 
ENDBRANCH  16  18
ENDBRANCH   7  16
BRANCH   1  24
HETATM   24  O1  UNL     1      26.620   0.862  54.863  1.00  0.00    -0.388 OA
HETATM   25  H1  UNL     1      26.485   0.662  55.840  1.00  0.00     0.210 HD
ENDBRANCH   1  24
TORSDOF 3
ENDMDL
MODEL 7
REMARK VINA RESULT:      -7.9      3.645      7.308
REMARK  3 active torsions:
REMARK  status: ('A' for Active; 'I' for Inactive)
REMARK    1  A    between atoms: O1_1  and  C1_2 
REMARK    2  A    between atoms: C6_8  and  N2_9 
REMARK    3  A    between atoms: N2_9  and  C7_10 
ROOT
HETATM    1  C1  UNL     1      16.759  -0.473  51.556  1.00  0.00     0.167 A 
HETATM    2  C2  UNL     1      17.899   0.156  50.873  1.00  0.00     0.020 A 
HETATM    3  C3  UNL     1      19.007   0.008  51.600  1.00  0.00    -0.008 A 
HETATM    4  C4  UNL     1      20.266   0.565  51.096  1.00  0.00     0.161 C 
HETATM    5  N1  UNL     1      21.278   0.733  52.105  1.00  0.00    -0.379 N 
HETATM    6  C5  UNL     1      21.687  -0.103  53.177  1.00  0.00     0.129 A 
HETATM    7  C6  UNL     1      23.037  -0.033  53.426  1.00  0.00     0.160 A 
HETATM    8  N3  UNL     1      23.452  -0.793  54.445  1.00  0.00    -0.222 NA
HETATM    9  C13 UNL     1      22.683  -1.581  55.207  1.00  0.00     0.238 A 
HETATM   10  N4  UNL     1      21.366  -1.638  54.950  1.00  0.00    -0.215 NA
HETATM   11  C14 UNL     1      20.841  -0.899  53.928  1.00  0.00     0.202 A 
HETATM   12  O2  UNL     1      19.469  -1.120  53.853  1.00  0.00    -0.290 OA
HETATM   13  C15 UNL     1      18.618  -0.733  52.797  1.00  0.00     0.084 A 
HETATM   14  C16 UNL     1      17.328  -1.026  52.803  1.00  0.00     0.046 A 
HETATM   15  H6  UNL     1      21.849   1.629  52.092  1.00  0.00     0.160 HD
ENDROOT
BRANCH   7  16
HETATM   16  N2  UNL     1      23.910   0.753  52.628  1.00  0.00    -0.339 N 
HETATM   17  H7  UNL     1      23.640   1.325  51.807  1.00  0.00     0.167 HD
BRANCH  16  18
HETATM   18  C7  UNL     1      25.317   0.873  52.813  1.00  0.00     0.033 A 
HETATM   19  C8  UNL     1      25.949   1.972  53.358  1.00  0.00     0.029 A 
HETATM   20  C9  UNL     1      27.292   2.108  53.557  1.00  0.00     0.002 A 
HETATM   21  C10 UNL     1      28.127   1.085  53.196  1.00  0.00     0.000 A 
HETATM   22  C11 UNL     1      27.575  -0.029  52.652  1.00  0.00     0.002 A 
HETATM   23  C12 UNL     1      26.212  -0.120  52.472  1.00  0.00     0.029 A 
ENDBRANCH  16  18
ENDBRANCH   7  16
BRANCH   1  24
HETATM   24  O1  UNL     1      15.753   0.432  51.886  1.00  0.00    -0.388 OA
HETATM   25  H1  UNL     1      14.996   0.372  51.226  1.00  0.00     0.210 HD
ENDBRANCH   1  24
TORSDOF 3
ENDMDL
MODEL 8
REMARK VINA RESULT:      -7.8      3.781      6.089
REMARK  3 active torsions:
REMARK  status: ('A' for Active; 'I' for Inactive)
REMARK    1  A    between atoms: O1_1  and  C1_2 
REMARK    2  A    between atoms: C6_8  and  N2_9 
REMARK    3  A    between atoms: N2_9  and  C7_10 
ROOT
HETATM    1  C1  UNL     1      27.408   6.611  48.424  1.00  0.00     0.167 A 
HETATM    2  C2  UNL     1      27.586   5.159  48.572  1.00  0.00     0.020 A 
HETATM    3  C3  UNL     1      26.629   4.657  49.354  1.00  0.00    -0.008 A 
HETATM    4  C4  UNL     1      26.621   3.219  49.632  1.00  0.00     0.161 C 
HETATM    5  N1  UNL     1      25.847   2.848  50.787  1.00  0.00    -0.379 N 
HETATM    6  C5  UNL     1      24.578   3.285  51.249  1.00  0.00     0.129 A 
HETATM    7  C6  UNL     1      23.854   2.285  51.853  1.00  0.00     0.160 A 
HETATM    8  N3  UNL     1      22.661   2.670  52.321  1.00  0.00    -0.222 NA
HETATM    9  C13 UNL     1      22.143   3.903  52.245  1.00  0.00     0.238 A 
HETATM   10  N4  UNL     1      22.863   4.868  51.650  1.00  0.00    -0.215 NA
HETATM   11  C14 UNL     1      24.097   4.577  51.139  1.00  0.00     0.202 A 
HETATM   12  O2  UNL     1      24.647   5.726  50.576  1.00  0.00    -0.290 OA
HETATM   13  C15 UNL     1      25.786   5.785  49.747  1.00  0.00     0.084 A 
HETATM   14  C16 UNL     1      26.208   6.925  49.228  1.00  0.00     0.046 A 
HETATM   15  H6  UNL     1      26.255   2.123  51.447  1.00  0.00     0.160 HD
ENDROOT
BRANCH   7  16
HETATM   16  N2  UNL     1      24.332   0.951  51.929  1.00  0.00    -0.339 N 
HETATM   17  H7  UNL     1      23.908   0.122  51.472  1.00  0.00     0.167 HD
BRANCH  16  18
HETATM   18  C7  UNL     1      25.472   0.520  52.665  1.00  0.00     0.033 A 
HETATM   19  C8  UNL     1      25.778   0.919  53.950  1.00  0.00     0.029 A 
HETATM   20  C9  UNL     1      26.856   0.513  54.681  1.00  0.00     0.002 A 
HETATM   21  C10 UNL     1      27.743  -0.371  54.127  1.00  0.00     0.000 A 
HETATM   22  C11 UNL     1      27.506  -0.808  52.865  1.00  0.00     0.002 A 
HETATM   23  C12 UNL     1      26.402  -0.369  52.166  1.00  0.00     0.029 A 
ENDBRANCH  16  18
ENDBRANCH   7  16
BRANCH   1  24
HETATM   24  O1  UNL     1      28.483   7.345  48.919  1.00  0.00    -0.388 OA
HETATM   25  H1  UNL     1      28.167   8.021  49.593  1.00  0.00     0.210 HD
ENDBRANCH   1  24
TORSDOF 3
ENDMDL
MODEL 9
REMARK VINA RESULT:      -7.2      3.757      6.822
REMARK  3 active torsions:
REMARK  status: ('A' for Active; 'I' for Inactive)
REMARK    1  A    between atoms: O1_1  and  C1_2 
REMARK    2  A    between atoms: C6_8  and  N2_9 
REMARK    3  A    between atoms: N2_9  and  C7_10 
ROOT
HETATM    1  C1  UNL     1      16.960  -1.139  52.674  1.00  0.00     0.167 A 
HETATM    2  C2  UNL     1      17.418  -0.351  51.521  1.00  0.00     0.020 A 
HETATM    3  C3  UNL     1      18.712  -0.056  51.652  1.00  0.00    -0.008 A 
HETATM    4  C4  UNL     1      19.370   0.729  50.604  1.00  0.00     0.161 C 
HETATM    5  N1  UNL     1      20.602   1.347  51.019  1.00  0.00    -0.379 N 
HETATM    6  C5  UNL     1      21.681   0.860  51.801  1.00  0.00     0.129 A 
HETATM    7  C6  UNL     1      22.901   1.343  51.390  1.00  0.00     0.160 A 
HETATM    8  N3  UNL     1      23.939   0.921  52.121  1.00  0.00    -0.222 NA
HETATM    9  C13 UNL     1      23.879   0.098  53.176  1.00  0.00     0.238 A 
HETATM   10  N4  UNL     1      22.680  -0.365  53.564  1.00  0.00    -0.215 NA
HETATM   11  C14 UNL     1      21.555   0.007  52.882  1.00  0.00     0.202 A 
HETATM   12  O2  UNL     1      20.442  -0.594  53.463  1.00  0.00    -0.290 OA
HETATM   13  C15 UNL     1      19.144  -0.652  52.914  1.00  0.00     0.084 A 
HETATM   14  C16 UNL     1      18.158  -1.283  53.529  1.00  0.00     0.046 A 
HETATM   15  H6  UNL     1      20.782   2.349  50.715  1.00  0.00     0.160 HD
ENDROOT
BRANCH   7  16
HETATM   16  N2  UNL     1      23.033   2.185  50.255  1.00  0.00    -0.339 N 
HETATM   17  H7  UNL     1      22.584   2.043  49.331  1.00  0.00     0.167 HD
BRANCH  16  18
HETATM   18  C7  UNL     1      23.825   3.367  50.189  1.00  0.00     0.033 A 
HETATM   19  C8  UNL     1      23.504   4.566  50.792  1.00  0.00     0.029 A 
HETATM   20  C9  UNL     1      24.248   5.709  50.754  1.00  0.00     0.002 A 
HETATM   21  C10 UNL     1      25.432   5.710  50.065  1.00  0.00     0.000 A 
HETATM   22  C11 UNL     1      25.813   4.565  49.446  1.00  0.00     0.002 A 
HETATM   23  C12 UNL     1      25.026   3.436  49.513  1.00  0.00     0.029 A 
ENDBRANCH  16  18
ENDBRANCH   7  16
BRANCH   1  24
HETATM   24  O1  UNL     1      15.961  -0.504  53.408  1.00  0.00    -0.388 OA
HETATM   25  H1  UNL     1      15.065  -0.916  53.212  1.00  0.00     0.210 HD
ENDBRANCH   1  24
TORSDOF 3
ENDMDL
