MODEL 1
REMARK VINA RESULT:      -7.0      0.000      0.000
REMARK  8 active torsions:
REMARK  status: ('A' for Active; 'I' for Inactive)
REMARK    1  A    between atoms: C2_2  and  C3_3 
REMARK    2  A    between atoms: C3_3  and  C5_5 
REMARK    3  A    between atoms: C5_5  and  C6_6 
REMARK    4  A    between atoms: C6_6  and  C7_7 
REMARK    5  A    between atoms: C7_7  and  S1_8 
REMARK    6  A    between atoms: S1_8  and  N1_10 
REMARK       I    between atoms: N1_10  and  C8_11 
REMARK    7  A    between atoms: C8_11  and  C9_13 
REMARK    8  A    between atoms: C9_13  and  C10_14 
ROOT
HETATM    1  N1  UNL     1      25.024   2.652  51.696  1.00  0.00    -0.276 N 
HETATM    2  C8  UNL     1      26.168   2.847  50.850  1.00  0.00     0.233 C 
HETATM    3  O2  UNL     1      27.259   2.514  51.373  1.00  0.00    -0.272 OA
HETATM    4  H10 UNL     1      24.044   2.879  51.444  1.00  0.00     0.179 HD
ENDROOT
BRANCH   1   5
HETATM    5  S1  UNL     1      24.897   1.999  53.348  1.00  0.00     0.120 S 
HETATM    6  O1  UNL     1      26.128   2.408  54.160  1.00  0.00    -0.235 OA
BRANCH   5   7
HETATM    7  C7  UNL     1      24.879   0.211  53.120  1.00  0.00     0.159 C 
BRANCH   7   8
HETATM    8  C6  UNL     1      26.104  -0.476  53.506  1.00  0.00    -0.012 C 
BRANCH   8   9
HETATM    9  C5  UNL     1      27.158  -0.780  52.729  1.00  0.00     0.004 C 
BRANCH   9  10
HETATM   10  C3  UNL     1      28.498  -1.087  53.222  1.00  0.00    -0.052 C 
HETATM   11  C4  UNL     1      29.029  -2.472  53.183  1.00  0.00     0.049 C 
BRANCH  10  12
HETATM   12  C2  UNL     1      29.183  -0.042  53.686  1.00  0.00    -0.030 C 
HETATM   13  C1  UNL     1      29.312   1.183  54.214  1.00  0.00     0.025 C 
ENDBRANCH  10  12
ENDBRANCH   9  10
ENDBRANCH   8   9
ENDBRANCH   7   8
ENDBRANCH   5   7
ENDBRANCH   1   5
BRANCH   2  14
HETATM   14  C9  UNL     1      25.975   3.386  49.508  1.00  0.00     0.142 C 
BRANCH  14  15
HETATM   15  C10 UNL     1      26.610   4.659  49.188  1.00  0.00    -0.048 A 
HETATM   16  C11 UNL     1      27.829   4.859  48.559  1.00  0.00     0.007 A 
HETATM   17  C12 UNL     1      28.309   6.121  48.275  1.00  0.00     0.002 A 
HETATM   18  C13 UNL     1      27.612   7.244  48.597  1.00  0.00     0.019 A 
HETATM   19  C14 UNL     1      26.385   7.136  49.229  1.00  0.00     0.011 A 
HETATM   20 BR1  UNL     1      25.338   8.648  49.717  1.00  0.00    -0.051 Br
HETATM   21  C15 UNL     1      25.948   5.847  49.491  1.00  0.00     0.026 A 
ENDBRANCH  14  15
ENDBRANCH   2  14
TORSDOF 8
ENDMDL
MODEL 2
REMARK VINA RESULT:      -6.9      2.137      3.836
REMARK  8 active torsions:
REMARK  status: ('A' for Active; 'I' for Inactive)
REMARK    1  A    between atoms: C2_2  and  C3_3 
REMARK    2  A    between atoms: C3_3  and  C5_5 
REMARK    3  A    between atoms: C5_5  and  C6_6 
REMARK    4  A    between atoms: C6_6  and  C7_7 
REMARK    5  A    between atoms: C7_7  and  S1_8 
REMARK    6  A    between atoms: S1_8  and  N1_10 
REMARK       I    between atoms: N1_10  and  C8_11 
REMARK    7  A    between atoms: C8_11  and  C9_13 
REMARK    8  A    between atoms: C9_13  and  C10_14 
ROOT
HETATM    1  N1  UNL     1      27.115   2.586  51.761  1.00  0.00    -0.276 N 
HETATM    2  C8  UNL     1      26.137   2.942  50.772  1.00  0.00     0.233 C 
HETATM    3  O2  UNL     1      24.960   2.981  51.203  1.00  0.00    -0.272 OA
HETATM    4  H10 UNL     1      28.135   2.491  51.592  1.00  0.00     0.179 HD
ENDROOT
BRANCH   1   5
HETATM    5  S1  UNL     1      26.937   2.215  53.494  1.00  0.00     0.120 S 
HETATM    6  O1  UNL     1      28.209   2.623  54.242  1.00  0.00    -0.235 OA
BRANCH   5   7
HETATM    7  C7  UNL     1      26.742   0.424  53.547  1.00  0.00     0.159 C 
BRANCH   7   8
HETATM    8  C6  UNL     1      25.404  -0.064  53.245  1.00  0.00    -0.012 C 
BRANCH   8   9
HETATM    9  C5  UNL     1      24.231   0.550  53.474  1.00  0.00     0.004 C 
BRANCH   9  10
HETATM   10  C3  UNL     1      22.925   0.034  53.075  1.00  0.00    -0.052 C 
HETATM   11  C4  UNL     1      22.213   0.582  51.895  1.00  0.00     0.049 C 
BRANCH  10  12
HETATM   12  C2  UNL     1      22.449  -0.951  53.838  1.00  0.00    -0.030 C 
HETATM   13  C1  UNL     1      21.481  -1.700  54.381  1.00  0.00     0.025 C 
ENDBRANCH  10  12
ENDBRANCH   9  10
ENDBRANCH   8   9
ENDBRANCH   7   8
ENDBRANCH   5   7
ENDBRANCH   1   5
BRANCH   2  14
HETATM   14  C9  UNL     1      26.575   3.222  49.409  1.00  0.00     0.142 C 
BRANCH  14  15
HETATM   15  C10 UNL     1      26.794   4.615  49.037  1.00  0.00    -0.048 A 
HETATM   16  C11 UNL     1      25.893   5.664  49.129  1.00  0.00     0.007 A 
HETATM   17  C12 UNL     1      26.233   6.954  48.779  1.00  0.00     0.002 A 
HETATM   18  C13 UNL     1      27.474   7.272  48.323  1.00  0.00     0.019 A 
HETATM   19  C14 UNL     1      28.437   6.285  48.200  1.00  0.00     0.011 A 
HETATM   20 BR1  UNL     1      30.199   6.632  47.573  1.00  0.00    -0.051 Br
HETATM   21  C15 UNL     1      28.045   5.006  48.564  1.00  0.00     0.026 A 
ENDBRANCH  14  15
ENDBRANCH   2  14
TORSDOF 8
ENDMDL
MODEL 3
REMARK VINA RESULT:      -6.8      1.690      3.372
REMARK  8 active torsions:
REMARK  status: ('A' for Active; 'I' for Inactive)
REMARK    1  A    between atoms: C2_2  and  C3_3 
REMARK    2  A    between atoms: C3_3  and  C5_5 
REMARK    3  A    between atoms: C5_5  and  C6_6 
REMARK    4  A    between atoms: C6_6  and  C7_7 
REMARK    5  A    between atoms: C7_7  and  S1_8 
REMARK    6  A    between atoms: S1_8  and  N1_10 
REMARK       I    between atoms: N1_10  and  C8_11 
REMARK    7  A    between atoms: C8_11  and  C9_13 
REMARK    8  A    between atoms: C9_13  and  C10_14 
ROOT
HETATM    1  N1  UNL     1      27.046   2.526  51.878  1.00  0.00    -0.276 N 
HETATM    2  C8  UNL     1      25.977   2.908  50.999  1.00  0.00     0.233 C 
HETATM    3  O2  UNL     1      24.856   2.989  51.557  1.00  0.00    -0.272 OA
HETATM    4  H10 UNL     1      28.037   2.395  51.599  1.00  0.00     0.179 HD
ENDROOT
BRANCH   1   5
HETATM    5  S1  UNL     1      27.048   2.170  53.624  1.00  0.00     0.120 S 
HETATM    6  O1  UNL     1      28.364   2.645  54.245  1.00  0.00    -0.235 OA
BRANCH   5   7
HETATM    7  C7  UNL     1      26.943   0.372  53.711  1.00  0.00     0.159 C 
BRANCH   7   8
HETATM    8  C6  UNL     1      25.601  -0.162  53.897  1.00  0.00    -0.012 C 
BRANCH   8   9
HETATM    9  C5  UNL     1      24.583  -0.157  53.020  1.00  0.00     0.004 C 
BRANCH   9  10
HETATM   10  C3  UNL     1      23.176  -0.328  53.371  1.00  0.00    -0.052 C 
HETATM   11  C4  UNL     1      22.779  -1.013  54.626  1.00  0.00     0.049 C 
BRANCH  10  12
HETATM   12  C2  UNL     1      22.308   0.179  52.496  1.00  0.00    -0.030 C 
HETATM   13  C1  UNL     1      21.115   0.281  51.895  1.00  0.00     0.025 C 
ENDBRANCH  10  12
ENDBRANCH   9  10
ENDBRANCH   8   9
ENDBRANCH   7   8
ENDBRANCH   5   7
ENDBRANCH   1   5
BRANCH   2  14
HETATM   14  C9  UNL     1      26.271   3.166  49.594  1.00  0.00     0.142 C 
BRANCH  14  15
HETATM   15  C10 UNL     1      26.711   4.507  49.226  1.00  0.00    -0.048 A 
HETATM   16  C11 UNL     1      27.877   4.860  48.565  1.00  0.00     0.007 A 
HETATM   17  C12 UNL     1      28.166   6.169  48.237  1.00  0.00     0.002 A 
HETATM   18  C13 UNL     1      27.321   7.190  48.542  1.00  0.00     0.019 A 
HETATM   19  C14 UNL     1      26.133   6.927  49.203  1.00  0.00     0.011 A 
HETATM   20 BR1  UNL     1      24.888   8.286  49.672  1.00  0.00    -0.051 Br
HETATM   21  C15 UNL     1      25.891   5.597  49.510  1.00  0.00     0.026 A 
ENDBRANCH  14  15
ENDBRANCH   2  14
TORSDOF 8
ENDMDL
MODEL 4
REMARK VINA RESULT:      -6.7      4.318      6.730
REMARK  8 active torsions:
REMARK  status: ('A' for Active; 'I' for Inactive)
REMARK    1  A    between atoms: C2_2  and  C3_3 
REMARK    2  A    between atoms: C3_3  and  C5_5 
REMARK    3  A    between atoms: C5_5  and  C6_6 
REMARK    4  A    between atoms: C6_6  and  C7_7 
REMARK    5  A    between atoms: C7_7  and  S1_8 
REMARK    6  A    between atoms: S1_8  and  N1_10 
REMARK       I    between atoms: N1_10  and  C8_11 
REMARK    7  A    between atoms: C8_11  and  C9_13 
REMARK    8  A    between atoms: C9_13  and  C10_14 
ROOT
HETATM    1  N1  UNL     1      22.985   2.853  52.779  1.00  0.00    -0.276 N 
HETATM    2  C8  UNL     1      24.382   2.921  52.456  1.00  0.00     0.233 C 
HETATM    3  O2  UNL     1      24.625   3.377  51.313  1.00  0.00    -0.272 OA
HETATM    4  H10 UNL     1      22.590   2.494  53.669  1.00  0.00     0.179 HD
ENDROOT
BRANCH   1   5
HETATM    5  S1  UNL     1      21.548   3.325  51.837  1.00  0.00     0.120 S 
HETATM    6  O1  UNL     1      20.302   3.240  52.722  1.00  0.00    -0.235 OA
BRANCH   5   7
HETATM    7  C7  UNL     1      21.453   2.093  50.524  1.00  0.00     0.159 C 
BRANCH   7   8
HETATM    8  C6  UNL     1      21.069   0.756  50.954  1.00  0.00    -0.012 C 
BRANCH   8   9
HETATM    9  C5  UNL     1      21.644  -0.001  51.903  1.00  0.00     0.004 C 
BRANCH   9  10
HETATM   10  C3  UNL     1      21.038  -0.332  53.189  1.00  0.00    -0.052 C 
HETATM   11  C4  UNL     1      19.568  -0.469  53.330  1.00  0.00     0.049 C 
BRANCH  10  12
HETATM   12  C2  UNL     1      21.899  -0.503  54.193  1.00  0.00    -0.030 C 
HETATM   13  C1  UNL     1      22.622  -1.228  55.057  1.00  0.00     0.025 C 
ENDBRANCH  10  12
ENDBRANCH   9  10
ENDBRANCH   8   9
ENDBRANCH   7   8
ENDBRANCH   5   7
ENDBRANCH   1   5
BRANCH   2  14
HETATM   14  C9  UNL     1      25.361   2.481  53.444  1.00  0.00     0.142 C 
BRANCH  14  15
HETATM   15  C10 UNL     1      25.958   1.162  53.270  1.00  0.00    -0.048 A 
HETATM   16  C11 UNL     1      25.322  -0.007  52.879  1.00  0.00     0.007 A 
HETATM   17  C12 UNL     1      26.006  -1.193  52.712  1.00  0.00     0.002 A 
HETATM   18  C13 UNL     1      27.347  -1.285  52.921  1.00  0.00     0.019 A 
HETATM   19  C14 UNL     1      28.061  -0.166  53.314  1.00  0.00     0.011 A 
HETATM   20 BR1  UNL     1      29.937  -0.196  53.630  1.00  0.00    -0.051 Br
HETATM   21  C15 UNL     1      27.327   1.000  53.468  1.00  0.00     0.026 A 
ENDBRANCH  14  15
ENDBRANCH   2  14
TORSDOF 8
ENDMDL
MODEL 5
REMARK VINA RESULT:      -6.7      4.154      6.502
REMARK  8 active torsions:
REMARK  status: ('A' for Active; 'I' for Inactive)
REMARK    1  A    between atoms: C2_2  and  C3_3 
REMARK    2  A    between atoms: C3_3  and  C5_5 
REMARK    3  A    between atoms: C5_5  and  C6_6 
REMARK    4  A    between atoms: C6_6  and  C7_7 
REMARK    5  A    between atoms: C7_7  and  S1_8 
REMARK    6  A    between atoms: S1_8  and  N1_10 
REMARK       I    between atoms: N1_10  and  C8_11 
REMARK    7  A    between atoms: C8_11  and  C9_13 
REMARK    8  A    between atoms: C9_13  and  C10_14 
ROOT
HETATM    1  N1  UNL     1      24.034   2.855  51.054  1.00  0.00    -0.276 N 
HETATM    2  C8  UNL     1      23.143   3.232  52.114  1.00  0.00     0.233 C 
HETATM    3  O2  UNL     1      23.599   4.113  52.882  1.00  0.00    -0.272 OA
HETATM    4  H10 UNL     1      23.839   2.137  50.330  1.00  0.00     0.179 HD
ENDROOT
BRANCH   1   5
HETATM    5  S1  UNL     1      25.664   3.442  50.639  1.00  0.00     0.120 S 
HETATM    6  O1  UNL     1      25.856   3.398  49.121  1.00  0.00    -0.235 OA
BRANCH   5   7
HETATM    7  C7  UNL     1      26.776   2.265  51.432  1.00  0.00     0.159 C 
BRANCH   7   8
HETATM    8  C6  UNL     1      26.178   0.983  51.779  1.00  0.00    -0.012 C 
BRANCH   8   9
HETATM    9  C5  UNL     1      26.784  -0.091  52.313  1.00  0.00     0.004 C 
BRANCH   9  10
HETATM   10  C3  UNL     1      27.248  -0.187  53.694  1.00  0.00    -0.052 C 
HETATM   11  C4  UNL     1      26.338   0.104  54.829  1.00  0.00     0.049 C 
BRANCH  10  12
HETATM   12  C2  UNL     1      28.520  -0.558  53.839  1.00  0.00    -0.030 C 
HETATM   13  C1  UNL     1      29.707  -1.004  53.407  1.00  0.00     0.025 C 
ENDBRANCH  10  12
ENDBRANCH   9  10
ENDBRANCH   8   9
ENDBRANCH   7   8
ENDBRANCH   5   7
ENDBRANCH   1   5
BRANCH   2  14
HETATM   14  C9  UNL     1      21.834   2.594  52.202  1.00  0.00     0.142 C 
BRANCH  14  15
HETATM   15  C10 UNL     1      21.762   1.271  52.812  1.00  0.00    -0.048 A 
HETATM   16  C11 UNL     1      22.796   0.553  53.393  1.00  0.00     0.007 A 
HETATM   17  C12 UNL     1      22.594  -0.681  53.975  1.00  0.00     0.002 A 
HETATM   18  C13 UNL     1      21.367  -1.266  54.013  1.00  0.00     0.019 A 
HETATM   19  C14 UNL     1      20.278  -0.619  53.456  1.00  0.00     0.011 A 
HETATM   20 BR1  UNL     1      18.523  -1.355  53.461  1.00  0.00    -0.051 Br
HETATM   21  C15 UNL     1      20.534   0.618  52.884  1.00  0.00     0.026 A 
ENDBRANCH  14  15
ENDBRANCH   2  14
TORSDOF 8
ENDMDL
MODEL 6
REMARK VINA RESULT:      -6.6      4.452      7.728
REMARK  8 active torsions:
REMARK  status: ('A' for Active; 'I' for Inactive)
REMARK    1  A    between atoms: C2_2  and  C3_3 
REMARK    2  A    between atoms: C3_3  and  C5_5 
REMARK    3  A    between atoms: C5_5  and  C6_6 
REMARK    4  A    between atoms: C6_6  and  C7_7 
REMARK    5  A    between atoms: C7_7  and  S1_8 
REMARK    6  A    between atoms: S1_8  and  N1_10 
REMARK       I    between atoms: N1_10  and  C8_11 
REMARK    7  A    between atoms: C8_11  and  C9_13 
REMARK    8  A    between atoms: C9_13  and  C10_14 
ROOT
HETATM    1  N1  UNL     1      25.055  -0.761  54.150  1.00  0.00    -0.276 N 
HETATM    2  C8  UNL     1      24.420  -1.161  55.374  1.00  0.00     0.233 C 
HETATM    3  O2  UNL     1      25.136  -1.023  56.394  1.00  0.00    -0.272 OA
HETATM    4  H10 UNL     1      24.628  -0.813  53.205  1.00  0.00     0.179 HD
ENDROOT
BRANCH   1   5
HETATM    5  S1  UNL     1      26.675  -0.085  53.845  1.00  0.00     0.120 S 
HETATM    6  O1  UNL     1      26.842   1.222  54.623  1.00  0.00    -0.235 OA
BRANCH   5   7
HETATM    7  C7  UNL     1      26.691   0.249  52.074  1.00  0.00     0.159 C 
BRANCH   7   8
HETATM    8  C6  UNL     1      26.794   1.654  51.708  1.00  0.00    -0.012 C 
BRANCH   8   9
HETATM    9  C5  UNL     1      25.862   2.423  51.121  1.00  0.00     0.004 C 
BRANCH   9  10
HETATM   10  C3  UNL     1      24.503   2.616  51.619  1.00  0.00    -0.052 C 
HETATM   11  C4  UNL     1      24.256   3.172  52.972  1.00  0.00     0.049 C 
BRANCH  10  12
HETATM   12  C2  UNL     1      23.534   2.268  50.772  1.00  0.00    -0.030 C 
HETATM   13  C1  UNL     1      22.795   2.393  49.662  1.00  0.00     0.025 C 
ENDBRANCH  10  12
ENDBRANCH   9  10
ENDBRANCH   8   9
ENDBRANCH   7   8
ENDBRANCH   5   7
ENDBRANCH   1   5
BRANCH   2  14
HETATM   14  C9  UNL     1      23.052  -1.666  55.332  1.00  0.00     0.142 C 
BRANCH  14  15
HETATM   15  C10 UNL     1      22.077  -0.924  54.541  1.00  0.00    -0.048 A 
HETATM   16  C11 UNL     1      22.257   0.296  53.907  1.00  0.00     0.007 A 
HETATM   17  C12 UNL     1      21.264   0.883  53.151  1.00  0.00     0.002 A 
HETATM   18  C13 UNL     1      20.048   0.298  52.984  1.00  0.00     0.019 A 
HETATM   19  C14 UNL     1      19.781  -0.922  53.583  1.00  0.00     0.011 A 
HETATM   20 BR1  UNL     1      18.112  -1.818  53.406  1.00  0.00    -0.051 Br
HETATM   21  C15 UNL     1      20.812  -1.469  54.331  1.00  0.00     0.026 A 
ENDBRANCH  14  15
ENDBRANCH   2  14
TORSDOF 8
ENDMDL
MODEL 7
REMARK VINA RESULT:      -6.5      2.358      2.816
REMARK  8 active torsions:
REMARK  status: ('A' for Active; 'I' for Inactive)
REMARK    1  A    between atoms: C2_2  and  C3_3 
REMARK    2  A    between atoms: C3_3  and  C5_5 
REMARK    3  A    between atoms: C5_5  and  C6_6 
REMARK    4  A    between atoms: C6_6  and  C7_7 
REMARK    5  A    between atoms: C7_7  and  S1_8 
REMARK    6  A    between atoms: S1_8  and  N1_10 
REMARK       I    between atoms: N1_10  and  C8_11 
REMARK    7  A    between atoms: C8_11  and  C9_13 
REMARK    8  A    between atoms: C9_13  and  C10_14 
ROOT
HETATM    1  N1  UNL     1      25.112   3.980  51.210  1.00  0.00    -0.276 N 
HETATM    2  C8  UNL     1      25.404   3.751  49.823  1.00  0.00     0.233 C 
HETATM    3  O2  UNL     1      24.394   3.526  49.114  1.00  0.00    -0.272 OA
HETATM    4  H10 UNL     1      25.814   4.170  51.950  1.00  0.00     0.179 HD
ENDROOT
BRANCH   1   5
HETATM    5  S1  UNL     1      23.559   4.017  52.082  1.00  0.00     0.120 S 
HETATM    6  O1  UNL     1      23.740   4.726  53.426  1.00  0.00    -0.235 OA
BRANCH   5   7
HETATM    7  C7  UNL     1      23.159   2.280  52.353  1.00  0.00     0.159 C 
BRANCH   7   8
HETATM    8  C6  UNL     1      24.174   1.513  53.062  1.00  0.00    -0.012 C 
BRANCH   8   9
HETATM    9  C5  UNL     1      24.839   0.429  52.629  1.00  0.00     0.004 C 
BRANCH   9  10
HETATM   10  C3  UNL     1      26.276   0.216  52.776  1.00  0.00    -0.052 C 
HETATM   11  C4  UNL     1      26.880  -1.119  52.545  1.00  0.00     0.049 C 
BRANCH  10  12
HETATM   12  C2  UNL     1      26.976   1.299  53.118  1.00  0.00    -0.030 C 
HETATM   13  C1  UNL     1      27.913   2.239  52.940  1.00  0.00     0.025 C 
ENDBRANCH  10  12
ENDBRANCH   9  10
ENDBRANCH   8   9
ENDBRANCH   7   8
ENDBRANCH   5   7
ENDBRANCH   1   5
BRANCH   2  14
HETATM   14  C9  UNL     1      26.790   3.805  49.372  1.00  0.00     0.142 C 
BRANCH  14  15
HETATM   15  C10 UNL     1      27.257   5.040  48.753  1.00  0.00    -0.048 A 
HETATM   16  C11 UNL     1      26.514   6.175  48.470  1.00  0.00     0.007 A 
HETATM   17  C12 UNL     1      27.081   7.303  47.914  1.00  0.00     0.002 A 
HETATM   18  C13 UNL     1      28.405   7.366  47.610  1.00  0.00     0.019 A 
HETATM   19  C14 UNL     1      29.222   6.276  47.858  1.00  0.00     0.011 A 
HETATM   20 BR1  UNL     1      31.084   6.270  47.468  1.00  0.00    -0.051 Br
HETATM   21  C15 UNL     1      28.603   5.169  48.418  1.00  0.00     0.026 A 
ENDBRANCH  14  15
ENDBRANCH   2  14
TORSDOF 8
ENDMDL
MODEL 8
REMARK VINA RESULT:      -6.5      4.050      6.678
REMARK  8 active torsions:
REMARK  status: ('A' for Active; 'I' for Inactive)
REMARK    1  A    between atoms: C2_2  and  C3_3 
REMARK    2  A    between atoms: C3_3  and  C5_5 
REMARK    3  A    between atoms: C5_5  and  C6_6 
REMARK    4  A    between atoms: C6_6  and  C7_7 
REMARK    5  A    between atoms: C7_7  and  S1_8 
REMARK    6  A    between atoms: S1_8  and  N1_10 
REMARK       I    between atoms: N1_10  and  C8_11 
REMARK    7  A    between atoms: C8_11  and  C9_13 
REMARK    8  A    between atoms: C9_13  and  C10_14 
ROOT
HETATM    1  N1  UNL     1      24.896   4.569  51.169  1.00  0.00    -0.276 N 
HETATM    2  C8  UNL     1      25.356   3.437  50.415  1.00  0.00     0.233 C 
HETATM    3  O2  UNL     1      24.640   3.151  49.425  1.00  0.00    -0.272 OA
HETATM    4  H10 UNL     1      25.347   4.947  52.024  1.00  0.00     0.179 HD
ENDROOT
BRANCH   1   5
HETATM    5  S1  UNL     1      23.497   5.643  50.919  1.00  0.00     0.120 S 
HETATM    6  O1  UNL     1      23.872   7.076  51.306  1.00  0.00    -0.235 OA
BRANCH   5   7
HETATM    7  C7  UNL     1      22.243   5.010  52.049  1.00  0.00     0.159 C 
BRANCH   7   8
HETATM    8  C6  UNL     1      21.665   3.726  51.679  1.00  0.00    -0.012 C 
BRANCH   8   9
HETATM    9  C5  UNL     1      21.974   2.513  52.167  1.00  0.00     0.004 C 
BRANCH   9  10
HETATM   10  C3  UNL     1      21.781   1.252  51.455  1.00  0.00    -0.052 C 
HETATM   11  C4  UNL     1      21.538  -0.013  52.190  1.00  0.00     0.049 C 
BRANCH  10  12
HETATM   12  C2  UNL     1      21.833   1.340  50.125  1.00  0.00    -0.030 C 
HETATM   13  C1  UNL     1      21.433   1.060  48.878  1.00  0.00     0.025 C 
ENDBRANCH  10  12
ENDBRANCH   9  10
ENDBRANCH   8   9
ENDBRANCH   7   8
ENDBRANCH   5   7
ENDBRANCH   1   5
BRANCH   2  14
HETATM   14  C9  UNL     1      26.568   2.746  50.841  1.00  0.00     0.142 C 
BRANCH  14  15
HETATM   15  C10 UNL     1      26.422   1.608  51.742  1.00  0.00    -0.048 A 
HETATM   16  C11 UNL     1      25.246   0.985  52.129  1.00  0.00     0.007 A 
HETATM   17  C12 UNL     1      25.240  -0.115  52.962  1.00  0.00     0.002 A 
HETATM   18  C13 UNL     1      26.389  -0.653  53.451  1.00  0.00     0.019 A 
HETATM   19  C14 UNL     1      27.609  -0.092  53.116  1.00  0.00     0.011 A 
HETATM   20 BR1  UNL     1      29.269  -0.773  53.749  1.00  0.00    -0.051 Br
HETATM   21  C15 UNL     1      27.561   1.010  52.277  1.00  0.00     0.026 A 
ENDBRANCH  14  15
ENDBRANCH   2  14
TORSDOF 8
ENDMDL
MODEL 9
REMARK VINA RESULT:      -6.4      4.067      6.895
REMARK  8 active torsions:
REMARK  status: ('A' for Active; 'I' for Inactive)
REMARK    1  A    between atoms: C2_2  and  C3_3 
REMARK    2  A    between atoms: C3_3  and  C5_5 
REMARK    3  A    between atoms: C5_5  and  C6_6 
REMARK    4  A    between atoms: C6_6  and  C7_7 
REMARK    5  A    between atoms: C7_7  and  S1_8 
REMARK    6  A    between atoms: S1_8  and  N1_10 
REMARK       I    between atoms: N1_10  and  C8_11 
REMARK    7  A    between atoms: C8_11  and  C9_13 
REMARK    8  A    between atoms: C9_13  and  C10_14 
ROOT
HETATM    1  N1  UNL     1      24.268   6.741  51.941  1.00  0.00    -0.276 N 
HETATM    2  C8  UNL     1      23.410   5.603  52.117  1.00  0.00     0.233 C 
HETATM    3  O2  UNL     1      22.528   5.482  51.233  1.00  0.00    -0.272 OA
HETATM    4  H10 UNL     1      25.044   7.012  52.574  1.00  0.00     0.179 HD
ENDROOT
BRANCH   1   5
HETATM    5  S1  UNL     1      24.301   7.990  50.672  1.00  0.00     0.120 S 
HETATM    6  O1  UNL     1      23.009   7.926  49.853  1.00  0.00    -0.235 OA
BRANCH   5   7
HETATM    7  C7  UNL     1      25.705   7.536  49.637  1.00  0.00     0.159 C 
BRANCH   7   8
HETATM    8  C6  UNL     1      26.036   6.117  49.627  1.00  0.00    -0.012 C 
BRANCH   8   9
HETATM    9  C5  UNL     1      25.392   5.126  48.988  1.00  0.00     0.004 C 
BRANCH   9  10
HETATM   10  C3  UNL     1      25.337   3.738  49.440  1.00  0.00    -0.052 C 
HETATM   11  C4  UNL     1      26.516   3.089  50.063  1.00  0.00     0.049 C 
BRANCH  10  12
HETATM   12  C2  UNL     1      24.165   3.129  49.255  1.00  0.00    -0.030 C 
HETATM   13  C1  UNL     1      22.963   2.965  48.688  1.00  0.00     0.025 C 
ENDBRANCH  10  12
ENDBRANCH   9  10
ENDBRANCH   8   9
ENDBRANCH   7   8
ENDBRANCH   5   7
ENDBRANCH   1   5
BRANCH   2  14
HETATM   14  C9  UNL     1      23.629   4.717  53.254  1.00  0.00     0.142 C 
BRANCH  14  15
HETATM   15  C10 UNL     1      23.858   3.303  52.981  1.00  0.00    -0.048 A 
HETATM   16  C11 UNL     1      25.001   2.566  53.250  1.00  0.00     0.007 A 
HETATM   17  C12 UNL     1      25.084   1.216  52.978  1.00  0.00     0.002 A 
HETATM   18  C13 UNL     1      24.046   0.529  52.430  1.00  0.00     0.019 A 
HETATM   19  C14 UNL     1      22.866   1.187  52.128  1.00  0.00     0.011 A 
HETATM   20 BR1  UNL     1      21.362   0.312  51.360  1.00  0.00    -0.051 Br
HETATM   21  C15 UNL     1      22.835   2.541  52.420  1.00  0.00     0.026 A 
ENDBRANCH  14  15
ENDBRANCH   2  14
TORSDOF 8
ENDMDL
