MODEL 1
REMARK VINA RESULT:      -5.9      0.000      0.000
REMARK  6 active torsions:
REMARK  status: ('A' for Active; 'I' for Inactive)
REMARK    1  A    between atoms: C3_4  and  C4_5 
REMARK    2  A    between atoms: C4_5  and  C5_6 
REMARK    3  A    between atoms: C5_6  and  C6_7 
REMARK    4  A    between atoms: C10_11  and  C11_12 
REMARK    5  A    between atoms: C11_12  and  N2_13 
REMARK    6  A    between atoms: C16_19  and  O2_20 
ROOT
HETATM    1  N1  UNL     1      27.675   4.196  48.885  1.00  0.00    -0.192 NA
HETATM    2  C1  UNL     1      26.607   4.378  49.270  1.00  0.00     0.087 C 
HETATM    3  C2  UNL     1      25.284   4.605  49.763  1.00  0.00     0.089 C 
HETATM    4  C3  UNL     1      24.195   4.675  49.015  1.00  0.00    -0.016 C 
ENDROOT
BRANCH   4   5
HETATM    5  C4  UNL     1      22.862   4.915  49.627  1.00  0.00     0.028 C 
BRANCH   5   6
HETATM    6  C5  UNL     1      22.977   5.499  51.020  1.00  0.00     0.015 C 
BRANCH   6   7
HETATM    7  C6  UNL     1      22.334   4.499  51.970  1.00  0.00     0.043 C 
HETATM    8  C7  UNL     1      21.255   3.703  51.292  1.00  0.00     0.011 C 
HETATM    9  C8  UNL     1      21.117   2.305  51.808  1.00  0.00     0.005 C 
HETATM   10  C9  UNL     1      22.361   1.511  51.929  1.00  0.00     0.038 C 
HETATM   11  C10 UNL     1      23.398   2.318  52.630  1.00  0.00    -0.023 C 
HETATM   12  C16 UNL     1      23.349   3.637  52.621  1.00  0.00     0.051 C 
BRANCH  11  13
HETATM   13  C11 UNL     1      24.386   1.449  53.271  1.00  0.00     0.309 C 
BRANCH  13  14
HETATM   14  N2  UNL     1      25.208   0.639  52.430  1.00  0.00     0.096 N 
HETATM   15  C12 UNL     1      25.581  -0.518  53.279  1.00  0.00     0.299 C 
HETATM   16  C13 UNL     1      26.665  -1.272  52.565  1.00  0.00     0.198 C 
HETATM   17  O1  UNL     1      27.872  -0.581  52.733  1.00  0.00    -0.388 OA
HETATM   18  C14 UNL     1      27.620   0.764  52.997  1.00  0.00     0.198 C 
HETATM   19  C15 UNL     1      26.481   1.300  52.153  1.00  0.00     0.299 C 
ENDBRANCH  13  14
ENDBRANCH  11  13
BRANCH  12  20
HETATM   20  O2  UNL     1      24.319   4.351  53.271  1.00  0.00    -0.364 OA
HETATM   21  H24 UNL     1      25.010   3.954  53.890  1.00  0.00     0.217 HD
ENDBRANCH  12  20
ENDBRANCH   6   7
ENDBRANCH   5   6
ENDBRANCH   4   5
TORSDOF 6
ENDMDL
MODEL 2
REMARK VINA RESULT:      -5.8      2.737      3.587
REMARK  6 active torsions:
REMARK  status: ('A' for Active; 'I' for Inactive)
REMARK    1  A    between atoms: C3_4  and  C4_5 
REMARK    2  A    between atoms: C4_5  and  C5_6 
REMARK    3  A    between atoms: C5_6  and  C6_7 
REMARK    4  A    between atoms: C10_11  and  C11_12 
REMARK    5  A    between atoms: C11_12  and  N2_13 
REMARK    6  A    between atoms: C16_19  and  O2_20 
ROOT
HETATM    1  N1  UNL     1      18.881   3.261  47.200  1.00  0.00    -0.192 NA
HETATM    2  C1  UNL     1      19.893   3.049  47.701  1.00  0.00     0.087 C 
HETATM    3  C2  UNL     1      21.147   2.772  48.331  1.00  0.00     0.089 C 
HETATM    4  C3  UNL     1      22.226   3.533  48.245  1.00  0.00    -0.016 C 
ENDROOT
BRANCH   4   5
HETATM    5  C4  UNL     1      23.485   3.155  48.940  1.00  0.00     0.028 C 
BRANCH   5   6
HETATM    6  C5  UNL     1      24.063   4.312  49.728  1.00  0.00     0.015 C 
BRANCH   6   7
HETATM    7  C6  UNL     1      24.248   3.821  51.157  1.00  0.00     0.043 C 
HETATM    8  C7  UNL     1      23.003   3.166  51.685  1.00  0.00     0.011 C 
HETATM    9  C8  UNL     1      23.265   2.056  52.653  1.00  0.00     0.005 C 
HETATM   10  C9  UNL     1      24.264   1.040  52.251  1.00  0.00     0.038 C 
HETATM   11  C10 UNL     1      25.495   1.721  51.760  1.00  0.00    -0.023 C 
HETATM   12  C16 UNL     1      25.442   2.951  51.283  1.00  0.00     0.051 C 
BRANCH  11  13
HETATM   13  C11 UNL     1      26.662   0.849  51.899  1.00  0.00     0.309 C 
BRANCH  13  14
HETATM   14  N2  UNL     1      26.893   0.243  53.172  1.00  0.00     0.096 N 
HETATM   15  C12 UNL     1      28.079   0.952  53.710  1.00  0.00     0.299 C 
HETATM   16  C13 UNL     1      28.552   0.191  54.913  1.00  0.00     0.198 C 
HETATM   17  O1  UNL     1      29.253  -0.941  54.477  1.00  0.00    -0.388 OA
HETATM   18  C14 UNL     1      28.842  -1.291  53.192  1.00  0.00     0.198 C 
HETATM   19  C15 UNL     1      27.344  -1.137  53.017  1.00  0.00     0.299 C 
ENDBRANCH  13  14
ENDBRANCH  11  13
BRANCH  12  20
HETATM   20  O2  UNL     1      26.589   3.550  50.835  1.00  0.00    -0.364 OA
HETATM   21  H24 UNL     1      27.009   3.386  49.932  1.00  0.00     0.217 HD
ENDBRANCH  12  20
ENDBRANCH   6   7
ENDBRANCH   5   6
ENDBRANCH   4   5
TORSDOF 6
ENDMDL
MODEL 3
REMARK VINA RESULT:      -5.8      3.196      5.174
REMARK  6 active torsions:
REMARK  status: ('A' for Active; 'I' for Inactive)
REMARK    1  A    between atoms: C3_4  and  C4_5 
REMARK    2  A    between atoms: C4_5  and  C5_6 
REMARK    3  A    between atoms: C5_6  and  C6_7 
REMARK    4  A    between atoms: C10_11  and  C11_12 
REMARK    5  A    between atoms: C11_12  and  N2_13 
REMARK    6  A    between atoms: C16_19  and  O2_20 
ROOT
HETATM    1  N1  UNL     1      16.067   0.990  48.934  1.00  0.00    -0.192 NA
HETATM    2  C1  UNL     1      16.920   0.859  49.692  1.00  0.00     0.087 C 
HETATM    3  C2  UNL     1      17.972   0.696  50.647  1.00  0.00     0.089 C 
HETATM    4  C3  UNL     1      19.256   0.569  50.351  1.00  0.00    -0.016 C 
ENDROOT
BRANCH   4   5
HETATM    5  C4  UNL     1      20.274   0.405  51.422  1.00  0.00     0.028 C 
BRANCH   5   6
HETATM    6  C5  UNL     1      20.585   1.717  52.111  1.00  0.00     0.015 C 
BRANCH   6   7
HETATM    7  C6  UNL     1      21.455   1.384  53.316  1.00  0.00     0.043 C 
HETATM    8  C7  UNL     1      21.072   0.068  53.931  1.00  0.00     0.011 C 
HETATM    9  C8  UNL     1      22.219  -0.674  54.539  1.00  0.00     0.005 C 
HETATM   10  C9  UNL     1      23.438  -0.815  53.711  1.00  0.00     0.038 C 
HETATM   11  C10 UNL     1      23.806   0.510  53.140  1.00  0.00    -0.023 C 
HETATM   12  C16 UNL     1      22.897   1.454  52.981  1.00  0.00     0.051 C 
BRANCH  11  13
HETATM   13  C11 UNL     1      25.234   0.561  52.824  1.00  0.00     0.309 C 
BRANCH  13  14
HETATM   14  N2  UNL     1      26.064   1.406  53.622  1.00  0.00     0.096 N 
HETATM   15  C12 UNL     1      27.272   1.630  52.791  1.00  0.00     0.299 C 
HETATM   16  C13 UNL     1      28.308   2.275  53.665  1.00  0.00     0.198 C 
HETATM   17  O1  UNL     1      28.880   1.290  54.480  1.00  0.00    -0.388 OA
HETATM   18  C14 UNL     1      27.998   0.220  54.626  1.00  0.00     0.198 C 
HETATM   19  C15 UNL     1      26.566   0.689  54.791  1.00  0.00     0.299 C 
ENDBRANCH  13  14
ENDBRANCH  11  13
BRANCH  12  20
HETATM   20  O2  UNL     1      23.265   2.661  52.450  1.00  0.00    -0.364 OA
HETATM   21  H24 UNL     1      22.816   3.104  51.662  1.00  0.00     0.217 HD
ENDBRANCH  12  20
ENDBRANCH   6   7
ENDBRANCH   5   6
ENDBRANCH   4   5
TORSDOF 6
ENDMDL
MODEL 4
REMARK VINA RESULT:      -5.8      4.051      6.749
REMARK  6 active torsions:
REMARK  status: ('A' for Active; 'I' for Inactive)
REMARK    1  A    between atoms: C3_4  and  C4_5 
REMARK    2  A    between atoms: C4_5  and  C5_6 
REMARK    3  A    between atoms: C5_6  and  C6_7 
REMARK    4  A    between atoms: C10_11  and  C11_12 
REMARK    5  A    between atoms: C11_12  and  N2_13 
REMARK    6  A    between atoms: C16_19  and  O2_20 
ROOT
HETATM    1  N1  UNL     1      30.186  -1.002  53.657  1.00  0.00    -0.192 NA
HETATM    2  C1  UNL     1      29.070  -0.734  53.710  1.00  0.00     0.087 C 
HETATM    3  C2  UNL     1      27.678  -0.412  53.765  1.00  0.00     0.089 C 
HETATM    4  C3  UNL     1      27.138   0.495  54.563  1.00  0.00    -0.016 C 
ENDROOT
BRANCH   4   5
HETATM    5  C4  UNL     1      25.675   0.756  54.543  1.00  0.00     0.028 C 
BRANCH   5   6
HETATM    6  C5  UNL     1      25.126   0.782  53.131  1.00  0.00     0.015 C 
BRANCH   6   7
HETATM    7  C6  UNL     1      23.951  -0.186  53.100  1.00  0.00     0.043 C 
HETATM    8  C7  UNL     1      23.754  -0.865  54.425  1.00  0.00     0.011 C 
HETATM    9  C8  UNL     1      22.327  -1.185  54.738  1.00  0.00     0.005 C 
HETATM   10  C9  UNL     1      21.341  -0.095  54.552  1.00  0.00     0.038 C 
HETATM   11  C10 UNL     1      21.545   0.537  53.219  1.00  0.00    -0.023 C 
HETATM   12  C16 UNL     1      22.716   0.474  52.613  1.00  0.00     0.051 C 
BRANCH  11  13
HETATM   13  C11 UNL     1      20.313   1.175  52.754  1.00  0.00     0.309 C 
BRANCH  13  14
HETATM   14  N2  UNL     1      19.687   0.644  51.585  1.00  0.00     0.096 N 
HETATM   15  C12 UNL     1      19.021   1.812  50.959  1.00  0.00     0.299 C 
HETATM   16  C13 UNL     1      18.114   1.290  49.883  1.00  0.00     0.198 C 
HETATM   17  O1  UNL     1      16.958   0.777  50.485  1.00  0.00    -0.388 OA
HETATM   18  C14 UNL     1      17.227   0.416  51.804  1.00  0.00     0.198 C 
HETATM   19  C15 UNL     1      18.584  -0.244  51.942  1.00  0.00     0.299 C 
ENDBRANCH  13  14
ENDBRANCH  11  13
BRANCH  12  20
HETATM   20  O2  UNL     1      22.874   1.068  51.390  1.00  0.00    -0.364 OA
HETATM   21  H24 UNL     1      23.184   0.593  50.555  1.00  0.00     0.217 HD
ENDBRANCH  12  20
ENDBRANCH   6   7
ENDBRANCH   5   6
ENDBRANCH   4   5
TORSDOF 6
ENDMDL
MODEL 5
REMARK VINA RESULT:      -5.5      2.940      3.835
REMARK  6 active torsions:
REMARK  status: ('A' for Active; 'I' for Inactive)
REMARK    1  A    between atoms: C3_4  and  C4_5 
REMARK    2  A    between atoms: C4_5  and  C5_6 
REMARK    3  A    between atoms: C5_6  and  C6_7 
REMARK    4  A    between atoms: C10_11  and  C11_12 
REMARK    5  A    between atoms: C11_12  and  N2_13 
REMARK    6  A    between atoms: C16_19  and  O2_20 
ROOT
HETATM    1  N1  UNL     1      18.457   3.444  46.497  1.00  0.00    -0.192 NA
HETATM    2  C1  UNL     1      19.328   3.195  47.204  1.00  0.00     0.087 C 
HETATM    3  C2  UNL     1      20.417   2.900  48.082  1.00  0.00     0.089 C 
HETATM    4  C3  UNL     1      20.615   1.739  48.686  1.00  0.00    -0.016 C 
ENDROOT
BRANCH   4   5
HETATM    5  C4  UNL     1      21.783   1.534  49.582  1.00  0.00     0.028 C 
BRANCH   5   6
HETATM    6  C5  UNL     1      21.929   2.659  50.586  1.00  0.00     0.015 C 
BRANCH   6   7
HETATM    7  C6  UNL     1      22.062   2.009  51.957  1.00  0.00     0.043 C 
HETATM    8  C7  UNL     1      21.833   0.526  51.894  1.00  0.00     0.011 C 
HETATM    9  C8  UNL     1      22.632  -0.255  52.888  1.00  0.00     0.005 C 
HETATM   10  C9  UNL     1      24.078   0.052  52.972  1.00  0.00     0.038 C 
HETATM   11  C10 UNL     1      24.268   1.527  53.062  1.00  0.00    -0.023 C 
HETATM   12  C16 UNL     1      23.352   2.356  52.599  1.00  0.00     0.051 C 
BRANCH  11  13
HETATM   13  C11 UNL     1      25.543   1.848  53.706  1.00  0.00     0.309 C 
BRANCH  13  14
HETATM   14  N2  UNL     1      26.675   1.037  53.385  1.00  0.00     0.096 N 
HETATM   15  C12 UNL     1      27.214   0.617  54.701  1.00  0.00     0.299 C 
HETATM   16  C13 UNL     1      28.559  -0.004  54.460  1.00  0.00     0.198 C 
HETATM   17  O1  UNL     1      29.491   1.019  54.247  1.00  0.00    -0.388 OA
HETATM   18  C14 UNL     1      28.844   2.168  53.795  1.00  0.00     0.198 C 
HETATM   19  C15 UNL     1      27.745   1.842  52.804  1.00  0.00     0.299 C 
ENDBRANCH  13  14
ENDBRANCH  11  13
BRANCH  12  20
HETATM   20  O2  UNL     1      23.557   3.706  52.692  1.00  0.00    -0.364 OA
HETATM   21  H24 UNL     1      24.160   4.152  53.367  1.00  0.00     0.217 HD
ENDBRANCH  12  20
ENDBRANCH   6   7
ENDBRANCH   5   6
ENDBRANCH   4   5
TORSDOF 6
ENDMDL
MODEL 6
REMARK VINA RESULT:      -5.5      3.258      6.863
REMARK  6 active torsions:
REMARK  status: ('A' for Active; 'I' for Inactive)
REMARK    1  A    between atoms: C3_4  and  C4_5 
REMARK    2  A    between atoms: C4_5  and  C5_6 
REMARK    3  A    between atoms: C5_6  and  C6_7 
REMARK    4  A    between atoms: C10_11  and  C11_12 
REMARK    5  A    between atoms: C11_12  and  N2_13 
REMARK    6  A    between atoms: C16_19  and  O2_20 
ROOT
HETATM    1  N1  UNL     1      21.615  -1.811  54.936  1.00  0.00    -0.192 NA
HETATM    2  C1  UNL     1      21.897  -0.877  54.329  1.00  0.00     0.087 C 
HETATM    3  C2  UNL     1      22.234   0.288  53.571  1.00  0.00     0.089 C 
HETATM    4  C3  UNL     1      23.464   0.721  53.347  1.00  0.00    -0.016 C 
ENDROOT
BRANCH   4   5
HETATM    5  C4  UNL     1      23.707   1.947  52.543  1.00  0.00     0.028 C 
BRANCH   5   6
HETATM    6  C5  UNL     1      25.102   1.966  51.952  1.00  0.00     0.015 C 
BRANCH   6   7
HETATM    7  C6  UNL     1      24.966   2.475  50.523  1.00  0.00     0.043 C 
HETATM    8  C7  UNL     1      23.527   2.579  50.105  1.00  0.00     0.011 C 
HETATM    9  C8  UNL     1      23.253   3.691  49.142  1.00  0.00     0.005 C 
HETATM   10  C9  UNL     1      23.800   5.023  49.488  1.00  0.00     0.038 C 
HETATM   11  C10 UNL     1      25.233   4.888  49.870  1.00  0.00    -0.023 C 
HETATM   12  C16 UNL     1      25.707   3.743  50.324  1.00  0.00     0.051 C 
BRANCH  11  13
HETATM   13  C11 UNL     1      25.947   6.148  49.660  1.00  0.00     0.309 C 
BRANCH  13  14
HETATM   14  N2  UNL     1      26.415   6.437  48.342  1.00  0.00     0.096 N 
HETATM   15  C12 UNL     1      27.842   6.798  48.527  1.00  0.00     0.299 C 
HETATM   16  C13 UNL     1      28.331   7.382  47.234  1.00  0.00     0.198 C 
HETATM   17  O1  UNL     1      27.866   8.699  47.135  1.00  0.00    -0.388 OA
HETATM   18  C14 UNL     1      26.723   8.862  47.917  1.00  0.00     0.198 C 
HETATM   19  C15 UNL     1      25.804   7.660  47.828  1.00  0.00     0.299 C 
ENDBRANCH  13  14
ENDBRANCH  11  13
BRANCH  12  20
HETATM   20  O2  UNL     1      27.028   3.651  50.672  1.00  0.00    -0.364 OA
HETATM   21  H24 UNL     1      27.721   4.362  50.493  1.00  0.00     0.217 HD
ENDBRANCH  12  20
ENDBRANCH   6   7
ENDBRANCH   5   6
ENDBRANCH   4   5
TORSDOF 6
ENDMDL
MODEL 7
REMARK VINA RESULT:      -5.4      2.294      5.778
REMARK  6 active torsions:
REMARK  status: ('A' for Active; 'I' for Inactive)
REMARK    1  A    between atoms: C3_4  and  C4_5 
REMARK    2  A    between atoms: C4_5  and  C5_6 
REMARK    3  A    between atoms: C5_6  and  C6_7 
REMARK    4  A    between atoms: C10_11  and  C11_12 
REMARK    5  A    between atoms: C11_12  and  N2_13 
REMARK    6  A    between atoms: C16_19  and  O2_20 
ROOT
HETATM    1  N1  UNL     1      26.931  -1.318  53.475  1.00  0.00    -0.192 NA
HETATM    2  C1  UNL     1      25.903  -0.822  53.609  1.00  0.00     0.087 C 
HETATM    3  C2  UNL     1      24.631  -0.192  53.782  1.00  0.00     0.089 C 
HETATM    4  C3  UNL     1      23.475  -0.685  53.370  1.00  0.00    -0.016 C 
ENDROOT
BRANCH   4   5
HETATM    5  C4  UNL     1      22.204   0.051  53.600  1.00  0.00     0.028 C 
BRANCH   5   6
HETATM    6  C5  UNL     1      22.146   1.338  52.805  1.00  0.00     0.015 C 
BRANCH   6   7
HETATM    7  C6  UNL     1      22.497   0.983  51.367  1.00  0.00     0.043 C 
HETATM    8  C7  UNL     1      21.275   0.638  50.565  1.00  0.00     0.011 C 
HETATM    9  C8  UNL     1      21.370   1.014  49.121  1.00  0.00     0.005 C 
HETATM   10  C9  UNL     1      21.829   2.389  48.817  1.00  0.00     0.038 C 
HETATM   11  C10 UNL     1      23.057   2.688  49.606  1.00  0.00    -0.023 C 
HETATM   12  C16 UNL     1      23.313   2.043  50.729  1.00  0.00     0.051 C 
BRANCH  11  13
HETATM   13  C11 UNL     1      23.851   3.731  48.955  1.00  0.00     0.309 C 
BRANCH  13  14
HETATM   14  N2  UNL     1      23.440   5.088  49.130  1.00  0.00     0.096 N 
HETATM   15  C12 UNL     1      24.709   5.847  49.244  1.00  0.00     0.299 C 
HETATM   16  C13 UNL     1      24.366   7.233  49.706  1.00  0.00     0.198 C 
HETATM   17  O1  UNL     1      24.103   7.193  51.081  1.00  0.00    -0.388 OA
HETATM   18  C14 UNL     1      23.714   5.908  51.455  1.00  0.00     0.198 C 
HETATM   19  C15 UNL     1      22.797   5.275  50.428  1.00  0.00     0.299 C 
ENDBRANCH  13  14
ENDBRANCH  11  13
BRANCH  12  20
HETATM   20  O2  UNL     1      24.447   2.342  51.434  1.00  0.00    -0.364 OA
HETATM   21  H24 UNL     1      25.382   2.323  51.056  1.00  0.00     0.217 HD
ENDBRANCH  12  20
ENDBRANCH   6   7
ENDBRANCH   5   6
ENDBRANCH   4   5
TORSDOF 6
ENDMDL
MODEL 8
REMARK VINA RESULT:      -5.2      2.914      4.122
REMARK  6 active torsions:
REMARK  status: ('A' for Active; 'I' for Inactive)
REMARK    1  A    between atoms: C3_4  and  C4_5 
REMARK    2  A    between atoms: C4_5  and  C5_6 
REMARK    3  A    between atoms: C5_6  and  C6_7 
REMARK    4  A    between atoms: C10_11  and  C11_12 
REMARK    5  A    between atoms: C11_12  and  N2_13 
REMARK    6  A    between atoms: C16_19  and  O2_20 
ROOT
HETATM    1  N1  UNL     1      28.313   9.086  44.415  1.00  0.00    -0.192 NA
HETATM    2  C1  UNL     1      28.416   8.464  45.375  1.00  0.00     0.087 C 
HETATM    3  C2  UNL     1      28.561   7.687  46.568  1.00  0.00     0.089 C 
HETATM    4  C3  UNL     1      27.598   7.452  47.443  1.00  0.00    -0.016 C 
ENDROOT
BRANCH   4   5
HETATM    5  C4  UNL     1      27.851   6.628  48.655  1.00  0.00     0.028 C 
BRANCH   5   6
HETATM    6  C5  UNL     1      27.260   5.240  48.527  1.00  0.00     0.015 C 
BRANCH   6   7
HETATM    7  C6  UNL     1      26.113   5.158  49.526  1.00  0.00     0.043 C 
HETATM    8  C7  UNL     1      24.794   5.481  48.884  1.00  0.00     0.011 C 
HETATM    9  C8  UNL     1      23.635   4.741  49.472  1.00  0.00     0.005 C 
HETATM   10  C9  UNL     1      23.793   3.279  49.643  1.00  0.00     0.038 C 
HETATM   11  C10 UNL     1      25.096   2.995  50.307  1.00  0.00    -0.023 C 
HETATM   12  C16 UNL     1      26.096   3.853  50.228  1.00  0.00     0.051 C 
BRANCH  11  13
HETATM   13  C11 UNL     1      25.056   1.707  51.000  1.00  0.00     0.309 C 
BRANCH  13  14
HETATM   14  N2  UNL     1      25.121   1.715  52.427  1.00  0.00     0.096 N 
HETATM   15  C12 UNL     1      26.196   0.746  52.754  1.00  0.00     0.299 C 
HETATM   16  C13 UNL     1      26.138   0.490  54.232  1.00  0.00     0.198 C 
HETATM   17  O1  UNL     1      25.076  -0.386  54.491  1.00  0.00    -0.388 OA
HETATM   18  C14 UNL     1      24.131  -0.306  53.469  1.00  0.00     0.198 C 
HETATM   19  C15 UNL     1      23.920   1.121  53.007  1.00  0.00     0.299 C 
ENDBRANCH  13  14
ENDBRANCH  11  13
BRANCH  12  20
HETATM   20  O2  UNL     1      27.283   3.562  50.845  1.00  0.00    -0.364 OA
HETATM   21  H24 UNL     1      27.379   3.300  51.815  1.00  0.00     0.217 HD
ENDBRANCH  12  20
ENDBRANCH   6   7
ENDBRANCH   5   6
ENDBRANCH   4   5
TORSDOF 6
ENDMDL
MODEL 9
REMARK VINA RESULT:      -5.2      2.646      3.283
REMARK  6 active torsions:
REMARK  status: ('A' for Active; 'I' for Inactive)
REMARK    1  A    between atoms: C3_4  and  C4_5 
REMARK    2  A    between atoms: C4_5  and  C5_6 
REMARK    3  A    between atoms: C5_6  and  C6_7 
REMARK    4  A    between atoms: C10_11  and  C11_12 
REMARK    5  A    between atoms: C11_12  and  N2_13 
REMARK    6  A    between atoms: C16_19  and  O2_20 
ROOT
HETATM    1  N1  UNL     1      26.983  10.311  47.211  1.00  0.00    -0.192 NA
HETATM    2  C1  UNL     1      26.970   9.348  47.837  1.00  0.00     0.087 C 
HETATM    3  C2  UNL     1      26.954   8.158  48.630  1.00  0.00     0.089 C 
HETATM    4  C3  UNL     1      26.887   6.926  48.152  1.00  0.00    -0.016 C 
ENDROOT
BRANCH   4   5
HETATM    5  C4  UNL     1      26.877   5.752  49.064  1.00  0.00     0.028 C 
BRANCH   5   6
HETATM    6  C5  UNL     1      25.577   4.981  48.976  1.00  0.00     0.015 C 
BRANCH   6   7
HETATM    7  C6  UNL     1      25.180   4.628  50.403  1.00  0.00     0.043 C 
HETATM    8  C7  UNL     1      23.687   4.593  50.572  1.00  0.00     0.011 C 
HETATM    9  C8  UNL     1      23.213   3.593  51.578  1.00  0.00     0.005 C 
HETATM   10  C9  UNL     1      23.763   2.222  51.468  1.00  0.00     0.038 C 
HETATM   11  C10 UNL     1      25.245   2.291  51.331  1.00  0.00    -0.023 C 
HETATM   12  C16 UNL     1      25.830   3.374  50.854  1.00  0.00     0.051 C 
BRANCH  11  13
HETATM   13  C11 UNL     1      25.867   1.048  51.789  1.00  0.00     0.309 C 
BRANCH  13  14
HETATM   14  N2  UNL     1      26.935   1.145  52.732  1.00  0.00     0.096 N 
HETATM   15  C12 UNL     1      27.475  -0.234  52.822  1.00  0.00     0.299 C 
HETATM   16  C13 UNL     1      28.413  -0.275  53.993  1.00  0.00     0.198 C 
HETATM   17  O1  UNL     1      27.655  -0.345  55.169  1.00  0.00    -0.388 OA
HETATM   18  C14 UNL     1      26.381   0.177  54.947  1.00  0.00     0.198 C 
HETATM   19  C15 UNL     1      26.423   1.414  54.073  1.00  0.00     0.299 C 
ENDBRANCH  13  14
ENDBRANCH  11  13
BRANCH  12  20
HETATM   20  O2  UNL     1      27.193   3.407  50.736  1.00  0.00    -0.364 OA
HETATM   21  H24 UNL     1      27.719   4.175  50.348  1.00  0.00     0.217 HD
ENDBRANCH  12  20
ENDBRANCH   6   7
ENDBRANCH   5   6
ENDBRANCH   4   5
TORSDOF 6
ENDMDL
