MODEL 1
REMARK VINA RESULT:      -9.8      0.000      0.000
REMARK  1 active torsions:
REMARK  status: ('A' for Active; 'I' for Inactive)
REMARK    1  A    between atoms: C4_4  and  C5_5 
ROOT
HETATM    1  C5  UNL     1      24.640   0.997  52.458  1.00  0.00     0.068 C 
HETATM    2  N1  UNL     1      23.661   0.697  53.272  1.00  0.00    -0.176 NA
HETATM    3  N2  UNL     1      22.476   1.249  52.807  1.00  0.00    -0.273 N 
HETATM    4  C6  UNL     1      21.161   0.631  52.989  1.00  0.00     0.138 C 
HETATM    5  C7  UNL     1      19.887   0.827  52.550  1.00  0.00     0.033 C 
HETATM    6  C8  UNL     1      19.224  -0.358  52.989  1.00  0.00     0.086 C 
HETATM    7  C9  UNL     1      18.023  -0.747  52.225  1.00  0.00    -0.021 C 
HETATM    8  C10 UNL     1      17.162  -0.027  51.549  1.00  0.00    -0.002 C 
HETATM    9  C11 UNL     1      17.054   1.388  51.291  1.00  0.00     0.017 C 
HETATM   10  C12 UNL     1      17.985   2.325  51.387  1.00  0.00     0.092 C 
HETATM   11  N3  UNL     1      19.244   1.978  51.778  1.00  0.00    -0.342 N 
HETATM   12  C13 UNL     1      20.255   3.057  51.309  1.00  0.00     0.097 A 
HETATM   13  C14 UNL     1      20.879   3.432  52.464  1.00  0.00     0.048 A 
HETATM   14  C15 UNL     1      21.808   3.146  51.477  1.00  0.00     0.055 A 
HETATM   15  C16 UNL     1      22.179   2.781  50.234  1.00  0.00     0.105 A 
HETATM   16  N4  UNL     1      21.030   2.535  49.508  1.00  0.00    -0.271 NA
HETATM   17  C17 UNL     1      19.783   2.680  50.122  1.00  0.00     0.038 A 
HETATM   18  C18 UNL     1      18.785   2.342  49.126  1.00  0.00     0.068 C 
HETATM   19  C19 UNL     1      22.995   2.495  52.146  1.00  0.00     0.132 C 
HETATM   20  C20 UNL     1      24.014   1.836  51.334  1.00  0.00     0.090 C 
ENDROOT
BRANCH   1  21
HETATM   21  C4  UNL     1      26.047   0.626  52.562  1.00  0.00     0.009 C 
HETATM   22  C3  UNL     1      26.453  -0.774  52.525  1.00  0.00     0.022 C 
HETATM   23  C2  UNL     1      27.676  -1.179  52.899  1.00  0.00    -0.048 C 
HETATM   24  C1  UNL     1      28.027  -2.623  52.837  1.00  0.00     0.049 C 
HETATM   25  C22 UNL     1      28.737  -0.277  53.382  1.00  0.00    -0.015 C 
HETATM   26  S1  UNL     1      28.314   1.310  53.436  1.00  0.00    -0.092 SA
HETATM   27  C23 UNL     1      30.060  -0.804  53.775  1.00  0.00     0.057 C 
HETATM   28  C21 UNL     1      26.904   1.599  52.686  1.00  0.00     0.035 C 
ENDBRANCH   1  21
TORSDOF 1
ENDMDL
MODEL 2
REMARK VINA RESULT:      -9.4      4.090      5.454
REMARK  1 active torsions:
REMARK  status: ('A' for Active; 'I' for Inactive)
REMARK    1  A    between atoms: C4_4  and  C5_5 
ROOT
HETATM    1  C5  UNL     1      25.108   4.926  49.650  1.00  0.00     0.068 C 
HETATM    2  N1  UNL     1      25.296   4.426  50.844  1.00  0.00    -0.176 NA
HETATM    3  N2  UNL     1      24.130   3.823  51.294  1.00  0.00    -0.273 N 
HETATM    4  C6  UNL     1      24.102   2.645  52.162  1.00  0.00     0.138 C 
HETATM    5  C7  UNL     1      23.176   1.767  52.637  1.00  0.00     0.033 C 
HETATM    6  C8  UNL     1      23.989   0.750  53.223  1.00  0.00     0.086 C 
HETATM    7  C9  UNL     1      23.378  -0.590  53.322  1.00  0.00    -0.021 C 
HETATM    8  C10 UNL     1      22.125  -0.958  53.429  1.00  0.00    -0.002 C 
HETATM    9  C11 UNL     1      20.886  -0.221  53.492  1.00  0.00     0.017 C 
HETATM   10  C12 UNL     1      20.640   1.026  53.119  1.00  0.00     0.092 C 
HETATM   11  N3  UNL     1      21.649   1.777  52.596  1.00  0.00    -0.342 N 
HETATM   12  C13 UNL     1      21.055   2.939  51.756  1.00  0.00     0.097 A 
HETATM   13  C14 UNL     1      21.613   4.053  52.316  1.00  0.00     0.048 A 
HETATM   14  C15 UNL     1      21.759   4.074  50.938  1.00  0.00     0.055 A 
HETATM   15  C16 UNL     1      21.592   3.577  49.696  1.00  0.00     0.105 A 
HETATM   16  N4  UNL     1      20.914   2.379  49.811  1.00  0.00    -0.271 NA
HETATM   17  C17 UNL     1      20.553   1.911  51.077  1.00  0.00     0.038 A 
HETATM   18  C18 UNL     1      19.879   0.641  50.877  1.00  0.00     0.068 C 
HETATM   19  C19 UNL     1      23.100   4.696  50.632  1.00  0.00     0.132 C 
HETATM   20  C20 UNL     1      23.651   4.605  49.283  1.00  0.00     0.090 C 
ENDROOT
BRANCH   1  21
HETATM   21  C4  UNL     1      26.060   5.643  48.809  1.00  0.00     0.009 C 
HETATM   22  C3  UNL     1      27.433   5.171  48.670  1.00  0.00     0.022 C 
HETATM   23  C2  UNL     1      28.407   5.934  48.154  1.00  0.00    -0.048 C 
HETATM   24  C1  UNL     1      29.788   5.392  48.038  1.00  0.00     0.049 C 
HETATM   25  C22 UNL     1      28.213   7.315  47.674  1.00  0.00    -0.015 C 
HETATM   26  S1  UNL     1      26.678   7.880  47.816  1.00  0.00    -0.092 SA
HETATM   27  C23 UNL     1      29.341   8.089  47.118  1.00  0.00     0.057 C 
HETATM   28  C21 UNL     1      25.622   6.709  48.202  1.00  0.00     0.035 C 
ENDBRANCH   1  21
TORSDOF 1
ENDMDL
MODEL 3
REMARK VINA RESULT:      -9.2      7.214     10.561
REMARK  1 active torsions:
REMARK  status: ('A' for Active; 'I' for Inactive)
REMARK    1  A    between atoms: C4_4  and  C5_5 
ROOT
HETATM    1  C5  UNL     1      26.110   4.918  49.375  1.00  0.00     0.068 C 
HETATM    2  N1  UNL     1      27.167   4.512  48.720  1.00  0.00    -0.176 NA
HETATM    3  N2  UNL     1      27.967   5.598  48.396  1.00  0.00    -0.273 N 
HETATM    4  C6  UNL     1      29.428   5.542  48.315  1.00  0.00     0.138 C 
HETATM    5  C7  UNL     1      30.463   6.416  48.176  1.00  0.00     0.033 C 
HETATM    6  C8  UNL     1      31.598   5.592  48.440  1.00  0.00     0.086 C 
HETATM    7  C9  UNL     1      32.803   6.291  48.928  1.00  0.00    -0.021 C 
HETATM    8  C10 UNL     1      33.225   7.515  48.735  1.00  0.00    -0.002 C 
HETATM    9  C11 UNL     1      32.695   8.632  47.992  1.00  0.00     0.017 C 
HETATM   10  C12 UNL     1      31.456   8.836  47.568  1.00  0.00     0.092 C 
HETATM   11  N3  UNL     1      30.498   7.905  47.835  1.00  0.00    -0.342 N 
HETATM   12  C13 UNL     1      29.093   8.559  47.751  1.00  0.00     0.097 A 
HETATM   13  C14 UNL     1      28.436   7.786  46.837  1.00  0.00     0.048 A 
HETATM   14  C15 UNL     1      27.667   7.954  47.978  1.00  0.00     0.055 A 
HETATM   15  C16 UNL     1      27.421   8.444  49.208  1.00  0.00     0.105 A 
HETATM   16  N4  UNL     1      28.519   9.189  49.592  1.00  0.00    -0.271 NA
HETATM   17  C17 UNL     1      29.612   9.298  48.729  1.00  0.00     0.038 A 
HETATM   18  C18 UNL     1      30.600  10.117  49.406  1.00  0.00     0.068 C 
HETATM   19  C19 UNL     1      26.921   6.664  48.217  1.00  0.00     0.132 C 
HETATM   20  C20 UNL     1      26.244   6.443  49.492  1.00  0.00     0.090 C 
ENDROOT
BRANCH   1  21
HETATM   21  C4  UNL     1      25.011   4.116  49.903  1.00  0.00     0.009 C 
HETATM   22  C3  UNL     1      25.253   3.103  50.924  1.00  0.00     0.022 C 
HETATM   23  C2  UNL     1      24.350   2.160  51.230  1.00  0.00    -0.048 C 
HETATM   24  C1  UNL     1      24.657   1.155  52.283  1.00  0.00     0.049 C 
HETATM   25  C22 UNL     1      23.030   2.034  50.584  1.00  0.00    -0.015 C 
HETATM   26  S1  UNL     1      22.725   3.160  49.427  1.00  0.00    -0.092 SA
HETATM   27  C23 UNL     1      22.091   0.964  50.978  1.00  0.00     0.057 C 
HETATM   28  C21 UNL     1      23.825   4.352  49.419  1.00  0.00     0.035 C 
ENDBRANCH   1  21
TORSDOF 1
ENDMDL
MODEL 4
REMARK VINA RESULT:      -9.2      5.259      8.095
REMARK  1 active torsions:
REMARK  status: ('A' for Active; 'I' for Inactive)
REMARK    1  A    between atoms: C4_4  and  C5_5 
ROOT
HETATM    1  C5  UNL     1      24.154   3.256  51.213  1.00  0.00     0.068 C 
HETATM    2  N1  UNL     1      24.938   3.075  50.182  1.00  0.00    -0.176 NA
HETATM    3  N2  UNL     1      25.317   4.302  49.656  1.00  0.00    -0.273 N 
HETATM    4  C6  UNL     1      26.614   4.556  49.027  1.00  0.00     0.138 C 
HETATM    5  C7  UNL     1      27.318   5.628  48.569  1.00  0.00     0.033 C 
HETATM    6  C8  UNL     1      28.609   5.068  48.329  1.00  0.00     0.086 C 
HETATM    7  C9  UNL     1      29.742   6.012  48.374  1.00  0.00    -0.021 C 
HETATM    8  C10 UNL     1      29.802   7.296  48.121  1.00  0.00    -0.002 C 
HETATM    9  C11 UNL     1      28.815   8.264  47.712  1.00  0.00     0.017 C 
HETATM   10  C12 UNL     1      27.495   8.195  47.802  1.00  0.00     0.092 C 
HETATM   11  N3  UNL     1      26.920   7.085  48.344  1.00  0.00    -0.342 N 
HETATM   12  C13 UNL     1      25.490   7.426  48.841  1.00  0.00     0.097 A 
HETATM   13  C14 UNL     1      24.703   6.518  48.191  1.00  0.00     0.048 A 
HETATM   14  C15 UNL     1      24.413   6.535  49.546  1.00  0.00     0.055 A 
HETATM   15  C16 UNL     1      24.563   6.978  50.810  1.00  0.00     0.105 A 
HETATM   16  N4  UNL     1      25.550   7.944  50.802  1.00  0.00    -0.271 NA
HETATM   17  C17 UNL     1      26.184   8.271  49.600  1.00  0.00     0.038 A 
HETATM   18  C18 UNL     1      27.169   9.290  49.910  1.00  0.00     0.068 C 
HETATM   19  C19 UNL     1      24.091   5.119  49.959  1.00  0.00     0.132 C 
HETATM   20  C20 UNL     1      24.013   4.776  51.377  1.00  0.00     0.090 C 
ENDROOT
BRANCH   1  21
HETATM   21  C4  UNL     1      23.527   2.246  52.059  1.00  0.00     0.009 C 
HETATM   22  C3  UNL     1      24.339   1.327  52.848  1.00  0.00     0.022 C 
HETATM   23  C2  UNL     1      23.833   0.217  53.406  1.00  0.00    -0.048 C 
HETATM   24  C1  UNL     1      24.716  -0.679  54.200  1.00  0.00     0.049 C 
HETATM   25  C22 UNL     1      22.423  -0.200  53.292  1.00  0.00    -0.015 C 
HETATM   26  S1  UNL     1      21.479   0.813  52.409  1.00  0.00    -0.092 SA
HETATM   27  C23 UNL     1      21.945  -1.439  53.938  1.00  0.00     0.057 C 
HETATM   28  C21 UNL     1      22.225   2.214  52.069  1.00  0.00     0.035 C 
ENDBRANCH   1  21
TORSDOF 1
ENDMDL
MODEL 5
REMARK VINA RESULT:      -8.8      4.670      5.664
REMARK  1 active torsions:
REMARK  status: ('A' for Active; 'I' for Inactive)
REMARK    1  A    between atoms: C4_4  and  C5_5 
ROOT
HETATM    1  C5  UNL     1      25.995   5.522  49.291  1.00  0.00     0.068 C 
HETATM    2  N1  UNL     1      25.948   4.416  49.988  1.00  0.00    -0.176 NA
HETATM    3  N2  UNL     1      24.705   4.290  50.591  1.00  0.00    -0.273 N 
HETATM    4  C6  UNL     1      24.042   3.008  50.838  1.00  0.00     0.138 C 
HETATM    5  C7  UNL     1      22.822   2.569  51.252  1.00  0.00     0.033 C 
HETATM    6  C8  UNL     1      22.893   1.168  50.987  1.00  0.00     0.086 C 
HETATM    7  C9  UNL     1      21.602   0.483  50.779  1.00  0.00    -0.021 C 
HETATM    8  C10 UNL     1      20.403   0.751  51.233  1.00  0.00    -0.002 C 
HETATM    9  C11 UNL     1      19.886   1.789  52.089  1.00  0.00     0.017 C 
HETATM   10  C12 UNL     1      20.421   2.964  52.389  1.00  0.00     0.092 C 
HETATM   11  N3  UNL     1      21.625   3.306  51.850  1.00  0.00    -0.342 N 
HETATM   12  C13 UNL     1      21.791   4.849  51.875  1.00  0.00     0.097 A 
HETATM   13  C14 UNL     1      22.963   5.031  52.554  1.00  0.00     0.048 A 
HETATM   14  C15 UNL     1      22.962   5.760  51.375  1.00  0.00     0.055 A 
HETATM   15  C16 UNL     1      22.412   6.204  50.229  1.00  0.00     0.105 A 
HETATM   16  N4  UNL     1      21.157   5.637  50.117  1.00  0.00    -0.271 NA
HETATM   17  C17 UNL     1      20.704   4.767  51.112  1.00  0.00     0.038 A 
HETATM   18  C18 UNL     1      19.380   4.328  50.713  1.00  0.00     0.068 C 
HETATM   19  C19 UNL     1      24.368   5.736  50.826  1.00  0.00     0.132 C 
HETATM   20  C20 UNL     1      24.620   6.186  49.459  1.00  0.00     0.090 C 
ENDROOT
BRANCH   1  21
HETATM   21  C4  UNL     1      27.103   6.046  48.502  1.00  0.00     0.009 C 
HETATM   22  C3  UNL     1      28.353   5.303  48.386  1.00  0.00     0.022 C 
HETATM   23  C2  UNL     1      29.481   5.861  47.923  1.00  0.00    -0.048 C 
HETATM   24  C1  UNL     1      30.723   5.047  47.829  1.00  0.00     0.049 C 
HETATM   25  C22 UNL     1      29.594   7.264  47.483  1.00  0.00    -0.015 C 
HETATM   26  S1  UNL     1      28.204   8.131  47.600  1.00  0.00    -0.092 SA
HETATM   27  C23 UNL     1      30.876   7.801  46.984  1.00  0.00     0.057 C 
HETATM   28  C21 UNL     1      26.916   7.195  47.917  1.00  0.00     0.035 C 
ENDBRANCH   1  21
TORSDOF 1
ENDMDL
MODEL 6
REMARK VINA RESULT:      -8.8      2.115      4.431
REMARK  1 active torsions:
REMARK  status: ('A' for Active; 'I' for Inactive)
REMARK    1  A    between atoms: C4_4  and  C5_5 
ROOT
HETATM    1  C5  UNL     1      21.431   1.083  52.181  1.00  0.00     0.068 C 
HETATM    2  N1  UNL     1      20.803   2.066  51.590  1.00  0.00    -0.176 NA
HETATM    3  N2  UNL     1      19.459   1.753  51.452  1.00  0.00    -0.273 N 
HETATM    4  C6  UNL     1      18.380   2.742  51.501  1.00  0.00     0.138 C 
HETATM    5  C7  UNL     1      17.019   2.746  51.547  1.00  0.00     0.033 C 
HETATM    6  C8  UNL     1      16.725   4.114  51.831  1.00  0.00     0.086 C 
HETATM    7  C9  UNL     1      15.433   4.372  52.496  1.00  0.00    -0.021 C 
HETATM    8  C10 UNL     1      14.303   3.711  52.467  1.00  0.00    -0.002 C 
HETATM    9  C11 UNL     1      13.888   2.505  51.794  1.00  0.00     0.017 C 
HETATM   10  C12 UNL     1      14.636   1.539  51.280  1.00  0.00     0.092 C 
HETATM   11  N3  UNL     1      15.992   1.630  51.362  1.00  0.00    -0.342 N 
HETATM   12  C13 UNL     1      16.623   0.220  51.215  1.00  0.00     0.097 A 
HETATM   13  C14 UNL     1      17.491   0.367  50.171  1.00  0.00     0.048 A 
HETATM   14  C15 UNL     1      18.118  -0.241  51.247  1.00  0.00     0.055 A 
HETATM   15  C16 UNL     1      18.157  -0.753  52.492  1.00  0.00     0.105 A 
HETATM   16  N4  UNL     1      16.902  -0.602  53.048  1.00  0.00    -0.271 NA
HETATM   17  C17 UNL     1      15.889   0.011  52.305  1.00  0.00     0.038 A 
HETATM   18  C18 UNL     1      14.710   0.039  53.150  1.00  0.00     0.068 C 
HETATM   19  C19 UNL     1      19.542   0.261  51.285  1.00  0.00     0.132 C 
HETATM   20  C20 UNL     1      20.367   0.011  52.463  1.00  0.00     0.090 C 
ENDROOT
BRANCH   1  21
HETATM   21  C4  UNL     1      22.846   0.989  52.523  1.00  0.00     0.009 C 
HETATM   22  C3  UNL     1      23.840   1.772  51.798  1.00  0.00     0.022 C 
HETATM   23  C2  UNL     1      25.154   1.514  51.874  1.00  0.00    -0.048 C 
HETATM   24  C1  UNL     1      26.118   2.351  51.110  1.00  0.00     0.049 C 
HETATM   25  C22 UNL     1      25.742   0.429  52.682  1.00  0.00    -0.015 C 
HETATM   26  S1  UNL     1      24.649  -0.474  53.512  1.00  0.00    -0.092 SA
HETATM   27  C23 UNL     1      27.202   0.211  52.712  1.00  0.00     0.057 C 
HETATM   28  C21 UNL     1      23.164   0.181  53.493  1.00  0.00     0.035 C 
ENDBRANCH   1  21
TORSDOF 1
ENDMDL
MODEL 7
REMARK VINA RESULT:      -8.3      4.667      7.564
REMARK  1 active torsions:
REMARK  status: ('A' for Active; 'I' for Inactive)
REMARK    1  A    between atoms: C4_4  and  C5_5 
ROOT
HETATM    1  C5  UNL     1      24.726   5.660  49.120  1.00  0.00     0.068 C 
HETATM    2  N1  UNL     1      25.690   5.190  49.869  1.00  0.00    -0.176 NA
HETATM    3  N2  UNL     1      25.180   4.265  50.769  1.00  0.00    -0.273 N 
HETATM    4  C6  UNL     1      25.921   3.096  51.246  1.00  0.00     0.138 C 
HETATM    5  C7  UNL     1      25.669   1.974  51.976  1.00  0.00     0.033 C 
HETATM    6  C8  UNL     1      26.859   1.209  51.783  1.00  0.00     0.086 C 
HETATM    7  C9  UNL     1      26.720  -0.252  51.942  1.00  0.00    -0.021 C 
HETATM    8  C10 UNL     1      25.891  -0.964  52.664  1.00  0.00    -0.002 C 
HETATM    9  C11 UNL     1      24.818  -0.612  53.561  1.00  0.00     0.017 C 
HETATM   10  C12 UNL     1      24.147   0.527  53.649  1.00  0.00     0.092 C 
HETATM   11  N3  UNL     1      24.460   1.553  52.809  1.00  0.00    -0.342 N 
HETATM   12  C13 UNL     1      23.259   2.529  52.703  1.00  0.00     0.097 A 
HETATM   13  C14 UNL     1      23.796   3.734  53.058  1.00  0.00     0.048 A 
HETATM   14  C15 UNL     1      23.080   3.846  51.876  1.00  0.00     0.055 A 
HETATM   15  C16 UNL     1      22.310   3.369  50.879  1.00  0.00     0.105 A 
HETATM   16  N4  UNL     1      22.101   2.024  51.116  1.00  0.00    -0.271 NA
HETATM   17  C17 UNL     1      22.675   1.426  52.241  1.00  0.00     0.038 A 
HETATM   18  C18 UNL     1      22.296   0.026  52.210  1.00  0.00     0.068 C 
HETATM   19  C19 UNL     1      23.807   4.834  50.996  1.00  0.00     0.132 C 
HETATM   20  C20 UNL     1      23.445   4.953  49.586  1.00  0.00     0.090 C 
ENDROOT
BRANCH   1  21
HETATM   21  C4  UNL     1      24.813   6.648  48.050  1.00  0.00     0.009 C 
HETATM   22  C3  UNL     1      26.091   7.254  47.698  1.00  0.00     0.022 C 
HETATM   23  C2  UNL     1      26.180   8.355  46.936  1.00  0.00    -0.048 C 
HETATM   24  C1  UNL     1      27.516   8.923  46.612  1.00  0.00     0.049 C 
HETATM   25  C22 UNL     1      25.020   9.072  46.375  1.00  0.00    -0.015 C 
HETATM   26  S1  UNL     1      23.562   8.416  46.753  1.00  0.00    -0.092 SA
HETATM   27  C23 UNL     1      25.204  10.279  45.545  1.00  0.00     0.057 C 
HETATM   28  C21 UNL     1      23.703   6.952  47.440  1.00  0.00     0.035 C 
ENDBRANCH   1  21
TORSDOF 1
ENDMDL
MODEL 8
REMARK VINA RESULT:      -8.3      8.843     12.308
REMARK  1 active torsions:
REMARK  status: ('A' for Active; 'I' for Inactive)
REMARK    1  A    between atoms: C4_4  and  C5_5 
ROOT
HETATM    1  C5  UNL     1      27.903   5.780  48.548  1.00  0.00     0.068 C 
HETATM    2  N1  UNL     1      29.046   5.270  48.172  1.00  0.00    -0.176 NA
HETATM    3  N2  UNL     1      29.852   6.263  47.632  1.00  0.00    -0.273 N 
HETATM    4  C6  UNL     1      31.312   6.280  47.741  1.00  0.00     0.138 C 
HETATM    5  C7  UNL     1      32.331   7.140  47.466  1.00  0.00     0.033 C 
HETATM    6  C8  UNL     1      33.445   6.505  48.094  1.00  0.00     0.086 C 
HETATM    7  C9  UNL     1      34.558   7.392  48.487  1.00  0.00    -0.021 C 
HETATM    8  C10 UNL     1      34.967   8.531  47.986  1.00  0.00    -0.002 C 
HETATM    9  C11 UNL     1      34.507   9.344  46.887  1.00  0.00     0.017 C 
HETATM   10  C12 UNL     1      33.328   9.334  46.282  1.00  0.00     0.092 C 
HETATM   11  N3  UNL     1      32.369   8.462  46.702  1.00  0.00    -0.342 N 
HETATM   12  C13 UNL     1      30.970   8.971  46.265  1.00  0.00     0.097 A 
HETATM   13  C14 UNL     1      30.458   7.922  45.555  1.00  0.00     0.048 A 
HETATM   14  C15 UNL     1      29.544   8.368  46.497  1.00  0.00     0.055 A 
HETATM   15  C16 UNL     1      29.127   9.180  47.487  1.00  0.00     0.105 A 
HETATM   16  N4  UNL     1      30.145  10.075  47.754  1.00  0.00    -0.271 NA
HETATM   17  C17 UNL     1      31.338   9.996  47.030  1.00  0.00     0.038 A 
HETATM   18  C18 UNL     1      32.207  11.040  47.540  1.00  0.00     0.068 C 
HETATM   19  C19 UNL     1      28.809   7.159  47.023  1.00  0.00     0.132 C 
HETATM   20  C20 UNL     1      27.979   7.279  48.219  1.00  0.00     0.090 C 
ENDROOT
BRANCH   1  21
HETATM   21  C4  UNL     1      26.768   5.100  49.162  1.00  0.00     0.009 C 
HETATM   22  C3  UNL     1      25.589   5.848  49.583  1.00  0.00     0.022 C 
HETATM   23  C2  UNL     1      24.659   5.328  50.397  1.00  0.00    -0.048 C 
HETATM   24  C1  UNL     1      23.478   6.145  50.788  1.00  0.00     0.049 C 
HETATM   25  C22 UNL     1      24.714   3.964  50.956  1.00  0.00    -0.015 C 
HETATM   26  S1  UNL     1      26.030   3.092  50.503  1.00  0.00    -0.092 SA
HETATM   27  C23 UNL     1      23.647   3.466  51.847  1.00  0.00     0.057 C 
HETATM   28  C21 UNL     1      26.867   3.809  49.311  1.00  0.00     0.035 C 
ENDBRANCH   1  21
TORSDOF 1
ENDMDL
MODEL 9
REMARK VINA RESULT:      -8.3      7.436     10.299
REMARK  1 active torsions:
REMARK  status: ('A' for Active; 'I' for Inactive)
REMARK    1  A    between atoms: C4_4  and  C5_5 
ROOT
HETATM    1  C5  UNL     1      26.394   4.920  49.335  1.00  0.00     0.068 C 
HETATM    2  N1  UNL     1      27.505   5.010  48.651  1.00  0.00    -0.176 NA
HETATM    3  N2  UNL     1      27.697   6.318  48.231  1.00  0.00    -0.273 N 
HETATM    4  C6  UNL     1      29.012   6.944  48.081  1.00  0.00     0.138 C 
HETATM    5  C7  UNL     1      29.514   8.188  47.845  1.00  0.00     0.033 C 
HETATM    6  C8  UNL     1      30.908   8.008  48.095  1.00  0.00     0.086 C 
HETATM    7  C9  UNL     1      31.655   9.220  48.485  1.00  0.00    -0.021 C 
HETATM    8  C10 UNL     1      31.451  10.483  48.208  1.00  0.00    -0.002 C 
HETATM    9  C11 UNL     1      30.444  11.169  47.435  1.00  0.00     0.017 C 
HETATM   10  C12 UNL     1      29.246  10.743  47.064  1.00  0.00     0.092 C 
HETATM   11  N3  UNL     1      28.841   9.493  47.426  1.00  0.00    -0.342 N 
HETATM   12  C13 UNL     1      27.292   9.410  47.378  1.00  0.00     0.097 A 
HETATM   13  C14 UNL     1      27.056   8.358  46.539  1.00  0.00     0.048 A 
HETATM   14  C15 UNL     1      26.321   8.228  47.707  1.00  0.00     0.055 A 
HETATM   15  C16 UNL     1      25.897   8.630  48.921  1.00  0.00     0.105 A 
HETATM   16  N4  UNL     1      26.526   9.826  49.210  1.00  0.00    -0.271 NA
HETATM   17  C17 UNL     1      27.424  10.371  48.289  1.00  0.00     0.038 A 
HETATM   18  C18 UNL     1      27.926  11.601  48.873  1.00  0.00     0.068 C 
HETATM   19  C19 UNL     1      26.270   6.758  48.050  1.00  0.00     0.132 C 
HETATM   20  C20 UNL     1      25.801   6.336  49.367  1.00  0.00     0.090 C 
ENDROOT
BRANCH   1  21
HETATM   21  C4  UNL     1      25.810   3.738  49.959  1.00  0.00     0.009 C 
HETATM   22  C3  UNL     1      24.385   3.454  49.829  1.00  0.00     0.022 C 
HETATM   23  C2  UNL     1      23.756   2.559  50.605  1.00  0.00    -0.048 C 
HETATM   24  C1  UNL     1      22.300   2.315  50.420  1.00  0.00     0.049 C 
HETATM   25  C22 UNL     1      24.414   1.770  51.663  1.00  0.00    -0.015 C 
HETATM   26  S1  UNL     1      26.021   2.065  51.837  1.00  0.00    -0.092 SA
HETATM   27  C23 UNL     1      23.648   0.803  52.475  1.00  0.00     0.057 C 
HETATM   28  C21 UNL     1      26.619   2.965  50.627  1.00  0.00     0.035 C 
ENDBRANCH   1  21
TORSDOF 1
ENDMDL
