MODEL 1
REMARK VINA RESULT:      -7.6      0.000      0.000
REMARK  6 active torsions:
REMARK  status: ('A' for Active; 'I' for Inactive)
REMARK    1  A    between atoms: O1_2  and  C2_3 
REMARK    2  A    between atoms: C2_3  and  C3_4 
REMARK    3  A    between atoms: C3_4  and  O4_24 
REMARK    4  A    between atoms: C4_5  and  C5_6 
REMARK    5  A    between atoms: C8_10  and  N1_11 
REMARK    6  A    between atoms: N1_11  and  C9_12 
ROOT
HETATM    1  C5  UNL     1      24.478  -0.150  52.933  1.00  0.00     0.040 C 
HETATM    2  C6  UNL     1      23.515  -0.766  53.822  1.00  0.00     0.183 C 
HETATM    3  O2  UNL     1      22.399  -1.398  53.243  1.00  0.00    -0.360 OA
HETATM    4  C7  UNL     1      21.152  -1.528  53.797  1.00  0.00     0.161 C 
HETATM    5  C8  UNL     1      20.402  -0.511  53.407  1.00  0.00     0.060 C 
HETATM    6  C15 UNL     1      20.185   0.710  52.614  1.00  0.00     0.333 C 
HETATM    7  N3  UNL     1      21.336   0.917  51.756  1.00  0.00     0.091 N 
HETATM    8  C16 UNL     1      22.731   1.052  51.679  1.00  0.00     0.351 A 
HETATM    9  O3  UNL     1      22.182   0.827  52.815  1.00  0.00    -0.150 OA
HETATM   10  C17 UNL     1      24.124   1.098  52.154  1.00  0.00     0.091 C 
HETATM   11  H18 UNL     1      21.205   1.035  50.685  1.00  0.00     0.322 HD
ENDROOT
BRANCH   5  12
HETATM   12  N1  UNL     1      19.122  -0.700  54.023  1.00  0.00    -0.364 N 
HETATM   13  H11 UNL     1      18.931  -0.726  55.070  1.00  0.00     0.165 HD
BRANCH  12  14
HETATM   14  C9  UNL     1      17.972  -0.875  53.208  1.00  0.00     0.119 C 
HETATM   15  C10 UNL     1      17.286  -1.998  53.100  1.00  0.00     0.072 C 
HETATM   16  C11 UNL     1      17.590  -3.243  53.792  1.00  0.00     0.033 C 
HETATM   17  N2  UNL     1      16.141  -2.093  52.260  1.00  0.00    -0.245 NA
HETATM   18  C12 UNL     1      16.828  -4.337  53.618  1.00  0.00     0.005 C 
HETATM   19  C13 UNL     1      15.680  -4.218  52.696  1.00  0.00     0.034 C 
HETATM   20  C14 UNL     1      15.285  -3.017  52.382  1.00  0.00     0.086 C 
ENDBRANCH  12  14
ENDBRANCH   5  12
BRANCH   1  21
HETATM   21  C4  UNL     1      25.729   0.250  53.658  1.00  0.00     0.014 C 
HETATM   22  C3  UNL     1      26.980  -0.139  53.872  1.00  0.00     0.066 C 
BRANCH  22  23
HETATM   23  C2  UNL     1      27.947   0.590  54.702  1.00  0.00     0.231 C 
BRANCH  23  24
HETATM   24  O1  UNL     1      27.982   1.961  54.497  1.00  0.00    -0.390 OA
HETATM   25  C1  UNL     1      28.825   2.329  53.446  1.00  0.00     0.201 C 
ENDBRANCH  23  24
ENDBRANCH  22  23
BRANCH  22  26
HETATM   26  O4  UNL     1      27.604  -1.265  53.371  1.00  0.00    -0.358 OA
HETATM   27  C18 UNL     1      28.985  -1.448  53.296  1.00  0.00     0.209 C 
ENDBRANCH  22  26
ENDBRANCH   1  21
TORSDOF 6
ENDMDL
MODEL 2
REMARK VINA RESULT:      -7.3      2.691      9.384
REMARK  6 active torsions:
REMARK  status: ('A' for Active; 'I' for Inactive)
REMARK    1  A    between atoms: O1_2  and  C2_3 
REMARK    2  A    between atoms: C2_3  and  C3_4 
REMARK    3  A    between atoms: C3_4  and  O4_24 
REMARK    4  A    between atoms: C4_5  and  C5_6 
REMARK    5  A    between atoms: C8_10  and  N1_11 
REMARK    6  A    between atoms: N1_11  and  C9_12 
ROOT
HETATM    1  C5  UNL     1      19.356  -0.404  53.493  1.00  0.00     0.040 C 
HETATM    2  C6  UNL     1      20.472  -1.176  54.001  1.00  0.00     0.183 C 
HETATM    3  O2  UNL     1      21.527  -0.477  54.614  1.00  0.00    -0.360 OA
HETATM    4  C7  UNL     1      22.846  -0.849  54.647  1.00  0.00     0.161 C 
HETATM    5  C8  UNL     1      23.473  -0.296  53.622  1.00  0.00     0.060 C 
HETATM    6  C15 UNL     1      23.503   0.589  52.446  1.00  0.00     0.333 C 
HETATM    7  N3  UNL     1      22.231   1.280  52.352  1.00  0.00     0.091 N 
HETATM    8  C16 UNL     1      20.833   1.159  52.291  1.00  0.00     0.351 A 
HETATM    9  O3  UNL     1      21.552   0.104  52.414  1.00  0.00    -0.150 OA
HETATM   10  C17 UNL     1      19.523   0.489  52.283  1.00  0.00     0.091 C 
HETATM   11  H18 UNL     1      22.200   2.364  52.297  1.00  0.00     0.322 HD
ENDROOT
BRANCH   5  12
HETATM   12  N1  UNL     1      24.837  -0.728  53.707  1.00  0.00    -0.364 N 
HETATM   13  H11 UNL     1      25.207  -1.684  53.423  1.00  0.00     0.165 HD
BRANCH  12  14
HETATM   14  C9  UNL     1      25.822   0.162  54.212  1.00  0.00     0.119 C 
HETATM   15  C10 UNL     1      27.124   0.018  54.051  1.00  0.00     0.072 C 
HETATM   16  C11 UNL     1      27.771  -1.073  53.335  1.00  0.00     0.033 C 
HETATM   17  N2  UNL     1      28.049   0.957  54.589  1.00  0.00    -0.245 NA
HETATM   18  C12 UNL     1      29.110  -1.132  53.223  1.00  0.00     0.005 C 
HETATM   19  C13 UNL     1      29.887  -0.048  53.859  1.00  0.00     0.034 C 
HETATM   20  C14 UNL     1      29.245   1.039  54.184  1.00  0.00     0.086 C 
ENDBRANCH  12  14
ENDBRANCH   5  12
BRANCH   1  21
HETATM   21  C4  UNL     1      18.201  -1.280  53.108  1.00  0.00     0.014 C 
HETATM   22  C3  UNL     1      16.882  -1.261  52.963  1.00  0.00     0.066 C 
BRANCH  22  23
HETATM   23  C2  UNL     1      16.077  -2.413  52.537  1.00  0.00     0.231 C 
BRANCH  23  24
HETATM   24  O1  UNL     1      16.429  -3.623  53.116  1.00  0.00    -0.390 OA
HETATM   25  C1  UNL     1      15.600  -4.675  52.716  1.00  0.00     0.201 C 
ENDBRANCH  23  24
ENDBRANCH  22  23
BRANCH  22  26
HETATM   26  O4  UNL     1      16.031  -0.194  53.170  1.00  0.00    -0.358 OA
HETATM   27  C18 UNL     1      14.724  -0.106  52.690  1.00  0.00     0.209 C 
ENDBRANCH  22  26
ENDBRANCH   1  21
TORSDOF 6
ENDMDL
MODEL 3
REMARK VINA RESULT:      -7.3      3.240      8.784
REMARK  6 active torsions:
REMARK  status: ('A' for Active; 'I' for Inactive)
REMARK    1  A    between atoms: O1_2  and  C2_3 
REMARK    2  A    between atoms: C2_3  and  C3_4 
REMARK    3  A    between atoms: C3_4  and  O4_24 
REMARK    4  A    between atoms: C4_5  and  C5_6 
REMARK    5  A    between atoms: C8_10  and  N1_11 
REMARK    6  A    between atoms: N1_11  and  C9_12 
ROOT
HETATM    1  C5  UNL     1      20.835   0.493  52.438  1.00  0.00     0.040 C 
HETATM    2  C6  UNL     1      22.241   0.792  52.617  1.00  0.00     0.183 C 
HETATM    3  O2  UNL     1      23.142  -0.289  52.639  1.00  0.00    -0.360 OA
HETATM    4  C7  UNL     1      24.331  -0.350  53.319  1.00  0.00     0.161 C 
HETATM    5  C8  UNL     1      24.117  -0.893  54.506  1.00  0.00     0.060 C 
HETATM    6  C15 UNL     1      23.241  -1.540  55.496  1.00  0.00     0.333 C 
HETATM    7  N3  UNL     1      21.948  -1.781  54.885  1.00  0.00     0.091 N 
HETATM    8  C16 UNL     1      20.854  -1.228  54.200  1.00  0.00     0.351 A 
HETATM    9  O3  UNL     1      21.851  -0.481  54.503  1.00  0.00    -0.150 OA
HETATM   10  C17 UNL     1      20.047  -0.196  53.530  1.00  0.00     0.091 C 
HETATM   11  H18 UNL     1      21.520  -2.779  54.887  1.00  0.00     0.322 HD
ENDROOT
BRANCH   5  12
HETATM   12  N1  UNL     1      25.389  -0.922  55.167  1.00  0.00    -0.364 N 
HETATM   13  H11 UNL     1      25.775  -1.731  55.739  1.00  0.00     0.165 HD
BRANCH  12  14
HETATM   14  C9  UNL     1      26.247   0.207  55.083  1.00  0.00     0.119 C 
HETATM   15  C10 UNL     1      27.454   0.201  54.550  1.00  0.00     0.072 C 
HETATM   16  C11 UNL     1      28.112  -0.957  53.960  1.00  0.00     0.033 C 
HETATM   17  N2  UNL     1      28.253   1.378  54.503  1.00  0.00    -0.245 NA
HETATM   18  C12 UNL     1      29.347  -0.863  53.438  1.00  0.00     0.005 C 
HETATM   19  C13 UNL     1      30.002   0.461  53.494  1.00  0.00     0.034 C 
HETATM   20  C14 UNL     1      29.244   1.495  53.725  1.00  0.00     0.086 C 
ENDBRANCH  12  14
ENDBRANCH   5  12
BRANCH   1  21
HETATM   21  C4  UNL     1      20.032   1.733  52.175  1.00  0.00     0.014 C 
HETATM   22  C3  UNL     1      19.794   2.641  51.237  1.00  0.00     0.066 C 
BRANCH  22  23
HETATM   23  C2  UNL     1      18.873   3.774  51.392  1.00  0.00     0.231 C 
BRANCH  23  24
HETATM   24  O1  UNL     1      17.696   3.487  52.068  1.00  0.00    -0.390 OA
HETATM   25  C1  UNL     1      16.623   4.277  51.646  1.00  0.00     0.201 C 
ENDBRANCH  23  24
ENDBRANCH  22  23
BRANCH  22  26
HETATM   26  O4  UNL     1      20.342   2.701  49.971  1.00  0.00    -0.358 OA
HETATM   27  C18 UNL     1      19.612   2.815  48.787  1.00  0.00     0.209 C 
ENDBRANCH  22  26
ENDBRANCH   1  21
TORSDOF 6
ENDMDL
MODEL 4
REMARK VINA RESULT:      -7.2      4.860      8.596
REMARK  6 active torsions:
REMARK  status: ('A' for Active; 'I' for Inactive)
REMARK    1  A    between atoms: O1_2  and  C2_3 
REMARK    2  A    between atoms: C2_3  and  C3_4 
REMARK    3  A    between atoms: C3_4  and  O4_24 
REMARK    4  A    between atoms: C4_5  and  C5_6 
REMARK    5  A    between atoms: C8_10  and  N1_11 
REMARK    6  A    between atoms: N1_11  and  C9_12 
ROOT
HETATM    1  C5  UNL     1      24.363   1.616  53.263  1.00  0.00     0.040 C 
HETATM    2  C6  UNL     1      24.632   3.030  53.091  1.00  0.00     0.183 C 
HETATM    3  O2  UNL     1      23.545   3.872  52.796  1.00  0.00    -0.360 OA
HETATM    4  C7  UNL     1      23.583   5.033  52.068  1.00  0.00     0.161 C 
HETATM    5  C8  UNL     1      23.323   4.752  50.801  1.00  0.00     0.060 C 
HETATM    6  C15 UNL     1      22.947   3.811  49.734  1.00  0.00     0.333 C 
HETATM    7  N3  UNL     1      22.634   2.528  50.334  1.00  0.00     0.091 N 
HETATM    8  C16 UNL     1      23.069   1.488  51.170  1.00  0.00     0.351 A 
HETATM    9  O3  UNL     1      23.822   2.511  50.993  1.00  0.00    -0.150 OA
HETATM   10  C17 UNL     1      23.964   0.758  52.083  1.00  0.00     0.091 C 
HETATM   11  H18 UNL     1      21.680   2.049  50.134  1.00  0.00     0.322 HD
ENDROOT
BRANCH   5  12
HETATM   12  N1  UNL     1      23.385   5.998  50.095  1.00  0.00    -0.364 N 
HETATM   13  H11 UNL     1      22.750   6.291  49.292  1.00  0.00     0.165 HD
BRANCH  12  14
HETATM   14  C9  UNL     1      24.364   6.960  50.458  1.00  0.00     0.119 C 
HETATM   15  C10 UNL     1      25.517   7.135  49.839  1.00  0.00     0.072 C 
HETATM   16  C11 UNL     1      25.981   6.375  48.686  1.00  0.00     0.033 C 
HETATM   17  N2  UNL     1      26.447   8.125  50.264  1.00  0.00    -0.245 NA
HETATM   18  C12 UNL     1      27.175   6.630  48.123  1.00  0.00     0.005 C 
HETATM   19  C13 UNL     1      27.988   7.707  48.725  1.00  0.00     0.034 C 
HETATM   20  C14 UNL     1      27.382   8.542  49.519  1.00  0.00     0.086 C 
ENDBRANCH  12  14
ENDBRANCH   5  12
BRANCH   1  21
HETATM   21  C4  UNL     1      25.548   0.888  53.824  1.00  0.00     0.014 C 
HETATM   22  C3  UNL     1      26.796   1.085  54.230  1.00  0.00     0.066 C 
BRANCH  22  23
HETATM   23  C2  UNL     1      27.678   0.031  54.747  1.00  0.00     0.231 C 
BRANCH  23  24
HETATM   24  O1  UNL     1      27.922  -1.015  53.869  1.00  0.00    -0.390 OA
HETATM   25  C1  UNL     1      29.274  -1.145  53.544  1.00  0.00     0.201 C 
ENDBRANCH  23  24
ENDBRANCH  22  23
BRANCH  22  26
HETATM   26  O4  UNL     1      27.492   2.278  54.253  1.00  0.00    -0.358 OA
HETATM   27  C18 UNL     1      28.647   2.546  53.519  1.00  0.00     0.209 C 
ENDBRANCH  22  26
ENDBRANCH   1  21
TORSDOF 6
ENDMDL
MODEL 5
REMARK VINA RESULT:      -7.1      2.587      3.971
REMARK  6 active torsions:
REMARK  status: ('A' for Active; 'I' for Inactive)
REMARK    1  A    between atoms: O1_2  and  C2_3 
REMARK    2  A    between atoms: C2_3  and  C3_4 
REMARK    3  A    between atoms: C3_4  and  O4_24 
REMARK    4  A    between atoms: C4_5  and  C5_6 
REMARK    5  A    between atoms: C8_10  and  N1_11 
REMARK    6  A    between atoms: N1_11  and  C9_12 
ROOT
HETATM    1  C5  UNL     1      23.498   0.032  53.690  1.00  0.00     0.040 C 
HETATM    2  C6  UNL     1      22.852   0.424  52.454  1.00  0.00     0.183 C 
HETATM    3  O2  UNL     1      21.689   1.211  52.544  1.00  0.00    -0.360 OA
HETATM    4  C7  UNL     1      20.640   1.227  51.662  1.00  0.00     0.161 C 
HETATM    5  C8  UNL     1      19.725   0.363  52.069  1.00  0.00     0.060 C 
HETATM    6  C15 UNL     1      19.203  -0.607  53.045  1.00  0.00     0.333 C 
HETATM    7  N3  UNL     1      20.076  -0.617  54.204  1.00  0.00     0.091 N 
HETATM    8  C16 UNL     1      21.388  -0.763  54.681  1.00  0.00     0.351 A 
HETATM    9  O3  UNL     1      21.166  -0.824  53.420  1.00  0.00    -0.150 OA
HETATM   10  C17 UNL     1      22.845  -0.965  54.622  1.00  0.00     0.091 C 
HETATM   11  H18 UNL     1      19.669  -0.453  55.197  1.00  0.00     0.322 HD
ENDROOT
BRANCH   5  12
HETATM   12  N1  UNL     1      18.665   0.421  51.107  1.00  0.00    -0.364 N 
HETATM   13  H11 UNL     1      18.780   0.381  50.050  1.00  0.00     0.165 HD
BRANCH  12  14
HETATM   14  C9  UNL     1      17.322   0.545  51.552  1.00  0.00     0.119 C 
HETATM   15  C10 UNL     1      16.688   1.689  51.731  1.00  0.00     0.072 C 
HETATM   16  C11 UNL     1      17.253   3.012  51.507  1.00  0.00     0.033 C 
HETATM   17  N2  UNL     1      15.337   1.728  52.179  1.00  0.00    -0.245 NA
HETATM   18  C12 UNL     1      16.524   4.122  51.716  1.00  0.00     0.005 C 
HETATM   19  C13 UNL     1      15.135   3.937  52.184  1.00  0.00     0.034 C 
HETATM   20  C14 UNL     1      14.608   2.754  52.044  1.00  0.00     0.086 C 
ENDBRANCH  12  14
ENDBRANCH   5  12
BRANCH   1  21
HETATM   21  C4  UNL     1      24.849  -0.572  53.444  1.00  0.00     0.014 C 
HETATM   22  C3  UNL     1      25.965  -0.383  52.751  1.00  0.00     0.066 C 
BRANCH  22  23
HETATM   23  C2  UNL     1      27.134  -1.271  52.800  1.00  0.00     0.231 C 
BRANCH  23  24
HETATM   24  O1  UNL     1      27.944  -1.115  53.915  1.00  0.00    -0.390 OA
HETATM   25  C1  UNL     1      29.274  -0.845  53.583  1.00  0.00     0.201 C 
ENDBRANCH  23  24
ENDBRANCH  22  23
BRANCH  22  26
HETATM   26  O4  UNL     1      26.245   0.650  51.878  1.00  0.00    -0.358 OA
HETATM   27  C18 UNL     1      26.897   1.834  52.222  1.00  0.00     0.209 C 
ENDBRANCH  22  26
ENDBRANCH   1  21
TORSDOF 6
ENDMDL
MODEL 6
REMARK VINA RESULT:      -7.0      6.243      8.683
REMARK  6 active torsions:
REMARK  status: ('A' for Active; 'I' for Inactive)
REMARK    1  A    between atoms: O1_2  and  C2_3 
REMARK    2  A    between atoms: C2_3  and  C3_4 
REMARK    3  A    between atoms: C3_4  and  O4_24 
REMARK    4  A    between atoms: C4_5  and  C5_6 
REMARK    5  A    between atoms: C8_10  and  N1_11 
REMARK    6  A    between atoms: N1_11  and  C9_12 
ROOT
HETATM    1  C5  UNL     1      25.531   5.502  48.969  1.00  0.00     0.040 C 
HETATM    2  C6  UNL     1      26.110   4.380  49.680  1.00  0.00     0.183 C 
HETATM    3  O2  UNL     1      25.278   3.278  49.953  1.00  0.00    -0.360 OA
HETATM    4  C7  UNL     1      25.376   2.423  51.019  1.00  0.00     0.161 C 
HETATM    5  C8  UNL     1      24.604   2.867  51.997  1.00  0.00     0.060 C 
HETATM    6  C15 UNL     1      23.613   3.811  52.539  1.00  0.00     0.333 C 
HETATM    7  N3  UNL     1      23.189   4.701  51.474  1.00  0.00     0.091 N 
HETATM    8  C16 UNL     1      23.584   5.605  50.475  1.00  0.00     0.351 A 
HETATM    9  O3  UNL     1      24.478   5.018  51.183  1.00  0.00    -0.150 OA
HETATM   10  C17 UNL     1      24.502   6.390  49.634  1.00  0.00     0.091 C 
HETATM   11  H18 UNL     1      22.135   4.811  51.241  1.00  0.00     0.322 HD
ENDROOT
BRANCH   5  12
HETATM   12  N1  UNL     1      24.756   1.939  53.079  1.00  0.00    -0.364 N 
HETATM   13  H11 UNL     1      24.052   1.194  53.365  1.00  0.00     0.165 HD
BRANCH  12  14
HETATM   14  C9  UNL     1      25.933   1.977  53.874  1.00  0.00     0.119 C 
HETATM   15  C10 UNL     1      26.894   1.073  53.844  1.00  0.00     0.072 C 
HETATM   16  C11 UNL     1      26.914  -0.113  52.999  1.00  0.00     0.033 C 
HETATM   17  N2  UNL     1      28.046   1.185  54.674  1.00  0.00    -0.245 NA
HETATM   18  C12 UNL     1      27.942  -0.977  53.040  1.00  0.00     0.005 C 
HETATM   19  C13 UNL     1      29.042  -0.670  53.977  1.00  0.00     0.034 C 
HETATM   20  C14 UNL     1      29.113   0.544  54.442  1.00  0.00     0.086 C 
ENDBRANCH  12  14
ENDBRANCH   5  12
BRANCH   1  21
HETATM   21  C4  UNL     1      26.578   6.478  48.521  1.00  0.00     0.014 C 
HETATM   22  C3  UNL     1      27.859   6.548  48.180  1.00  0.00     0.066 C 
BRANCH  22  23
HETATM   23  C2  UNL     1      28.544   7.782  47.776  1.00  0.00     0.231 C 
BRANCH  23  24
HETATM   24  O1  UNL     1      28.424   8.840  48.665  1.00  0.00    -0.390 OA
HETATM   25  C1  UNL     1      29.642   9.194  49.252  1.00  0.00     0.201 C 
ENDBRANCH  23  24
ENDBRANCH  22  23
BRANCH  22  26
HETATM   26  O4  UNL     1      28.772   5.513  48.132  1.00  0.00    -0.358 OA
HETATM   27  C18 UNL     1      30.157   5.669  48.082  1.00  0.00     0.209 C 
ENDBRANCH  22  26
ENDBRANCH   1  21
TORSDOF 6
ENDMDL
MODEL 7
REMARK VINA RESULT:      -7.0      5.504      8.730
REMARK  6 active torsions:
REMARK  status: ('A' for Active; 'I' for Inactive)
REMARK    1  A    between atoms: O1_2  and  C2_3 
REMARK    2  A    between atoms: C2_3  and  C3_4 
REMARK    3  A    between atoms: C3_4  and  O4_24 
REMARK    4  A    between atoms: C4_5  and  C5_6 
REMARK    5  A    between atoms: C8_10  and  N1_11 
REMARK    6  A    between atoms: N1_11  and  C9_12 
ROOT
HETATM    1  C5  UNL     1      25.381   4.733  48.989  1.00  0.00     0.040 C 
HETATM    2  C6  UNL     1      26.212   4.157  50.027  1.00  0.00     0.183 C 
HETATM    3  O2  UNL     1      26.307   2.754  50.085  1.00  0.00    -0.360 OA
HETATM    4  C7  UNL     1      26.516   1.994  51.206  1.00  0.00     0.161 C 
HETATM    5  C8  UNL     1      25.344   1.636  51.706  1.00  0.00     0.060 C 
HETATM    6  C15 UNL     1      23.874   1.584  51.651  1.00  0.00     0.333 C 
HETATM    7  N3  UNL     1      23.435   2.156  50.392  1.00  0.00     0.091 N 
HETATM    8  C16 UNL     1      23.481   3.262  49.528  1.00  0.00     0.351 A 
HETATM    9  O3  UNL     1      24.158   3.284  50.616  1.00  0.00    -0.150 OA
HETATM   10  C17 UNL     1      23.876   4.592  49.038  1.00  0.00     0.091 C 
HETATM   11  H18 UNL     1      22.784   1.591  49.732  1.00  0.00     0.322 HD
ENDROOT
BRANCH   5  12
HETATM   12  N1  UNL     1      25.629   0.855  52.873  1.00  0.00    -0.364 N 
HETATM   13  H11 UNL     1      25.556   1.191  53.880  1.00  0.00     0.165 HD
BRANCH  12  14
HETATM   14  C9  UNL     1      26.053  -0.493  52.728  1.00  0.00     0.119 C 
HETATM   15  C10 UNL     1      27.275  -0.930  52.966  1.00  0.00     0.072 C 
HETATM   16  C11 UNL     1      28.394  -0.111  53.413  1.00  0.00     0.033 C 
HETATM   17  N2  UNL     1      27.621  -2.300  52.797  1.00  0.00    -0.245 NA
HETATM   18  C12 UNL     1      29.605  -0.652  53.631  1.00  0.00     0.005 C 
HETATM   19  C13 UNL     1      29.748  -2.103  53.393  1.00  0.00     0.034 C 
HETATM   20  C14 UNL     1      28.655  -2.809  53.320  1.00  0.00     0.086 C 
ENDBRANCH  12  14
ENDBRANCH   5  12
BRANCH   1  21
HETATM   21  C4  UNL     1      25.576   6.217  48.880  1.00  0.00     0.014 C 
HETATM   22  C3  UNL     1      25.315   7.352  49.517  1.00  0.00     0.066 C 
BRANCH  22  23
HETATM   23  C2  UNL     1      25.709   8.683  49.037  1.00  0.00     0.231 C 
BRANCH  23  24
HETATM   24  O1  UNL     1      26.228   9.528  50.007  1.00  0.00    -0.390 OA
HETATM   25  C1  UNL     1      27.612   9.396  50.153  1.00  0.00     0.201 C 
ENDBRANCH  23  24
ENDBRANCH  22  23
BRANCH  22  26
HETATM   26  O4  UNL     1      24.650   7.506  50.717  1.00  0.00    -0.358 OA
HETATM   27  C18 UNL     1      23.270   7.659  50.854  1.00  0.00     0.209 C 
ENDBRANCH  22  26
ENDBRANCH   1  21
TORSDOF 6
ENDMDL
MODEL 8
REMARK VINA RESULT:      -6.9      4.827      6.730
REMARK  6 active torsions:
REMARK  status: ('A' for Active; 'I' for Inactive)
REMARK    1  A    between atoms: O1_2  and  C2_3 
REMARK    2  A    between atoms: C2_3  and  C3_4 
REMARK    3  A    between atoms: C3_4  and  O4_24 
REMARK    4  A    between atoms: C4_5  and  C5_6 
REMARK    5  A    between atoms: C8_10  and  N1_11 
REMARK    6  A    between atoms: N1_11  and  C9_12 
ROOT
HETATM    1  C5  UNL     1      26.584   4.845  48.821  1.00  0.00     0.040 C 
HETATM    2  C6  UNL     1      26.376   3.671  49.644  1.00  0.00     0.183 C 
HETATM    3  O2  UNL     1      25.065   3.171  49.752  1.00  0.00    -0.360 OA
HETATM    4  C7  UNL     1      24.529   2.505  50.823  1.00  0.00     0.161 C 
HETATM    5  C8  UNL     1      23.940   3.381  51.621  1.00  0.00     0.060 C 
HETATM    6  C15 UNL     1      23.498   4.747  51.943  1.00  0.00     0.333 C 
HETATM    7  N3  UNL     1      23.777   5.606  50.806  1.00  0.00     0.091 N 
HETATM    8  C16 UNL     1      24.742   6.074  49.901  1.00  0.00     0.351 A 
HETATM    9  O3  UNL     1      25.074   5.202  50.780  1.00  0.00    -0.150 OA
HETATM   10  C17 UNL     1      26.060   6.196  49.257  1.00  0.00     0.091 C 
HETATM   11  H18 UNL     1      22.985   6.202  50.364  1.00  0.00     0.322 HD
ENDROOT
BRANCH   5  12
HETATM   12  N1  UNL     1      23.409   2.628  52.719  1.00  0.00    -0.364 N 
HETATM   13  H11 UNL     1      23.882   2.482  53.661  1.00  0.00     0.165 HD
BRANCH  12  14
HETATM   14  C9  UNL     1      22.143   1.997  52.588  1.00  0.00     0.119 C 
HETATM   15  C10 UNL     1      21.821   0.832  53.118  1.00  0.00     0.072 C 
HETATM   16  C11 UNL     1      22.703  -0.004  53.922  1.00  0.00     0.033 C 
HETATM   17  N2  UNL     1      20.527   0.266  52.941  1.00  0.00    -0.245 NA
HETATM   18  C12 UNL     1      22.280  -1.178  54.421  1.00  0.00     0.005 C 
HETATM   19  C13 UNL     1      20.892  -1.579  54.116  1.00  0.00     0.034 C 
HETATM   20  C14 UNL     1      20.081  -0.654  53.687  1.00  0.00     0.086 C 
ENDBRANCH  12  14
ENDBRANCH   5  12
BRANCH   1  21
HETATM   21  C4  UNL     1      28.042   5.110  48.587  1.00  0.00     0.014 C 
HETATM   22  C3  UNL     1      28.879   6.066  48.205  1.00  0.00     0.066 C 
BRANCH  22  23
HETATM   23  C2  UNL     1      30.335   5.904  48.103  1.00  0.00     0.231 C 
BRANCH  23  24
HETATM   24  O1  UNL     1      30.937   5.300  49.197  1.00  0.00    -0.390 OA
HETATM   25  C1  UNL     1      31.967   6.071  49.742  1.00  0.00     0.201 C 
ENDBRANCH  23  24
ENDBRANCH  22  23
BRANCH  22  26
HETATM   26  O4  UNL     1      28.564   7.361  47.844  1.00  0.00    -0.358 OA
HETATM   27  C18 UNL     1      29.031   8.508  48.486  1.00  0.00     0.209 C 
ENDBRANCH  22  26
ENDBRANCH   1  21
TORSDOF 6
ENDMDL
MODEL 9
REMARK VINA RESULT:      -6.9      1.971      3.021
REMARK  6 active torsions:
REMARK  status: ('A' for Active; 'I' for Inactive)
REMARK    1  A    between atoms: O1_2  and  C2_3 
REMARK    2  A    between atoms: C2_3  and  C3_4 
REMARK    3  A    between atoms: C3_4  and  O4_24 
REMARK    4  A    between atoms: C4_5  and  C5_6 
REMARK    5  A    between atoms: C8_10  and  N1_11 
REMARK    6  A    between atoms: N1_11  and  C9_12 
ROOT
HETATM    1  C5  UNL     1      23.922  -0.059  53.748  1.00  0.00     0.040 C 
HETATM    2  C6  UNL     1      23.202   0.278  52.536  1.00  0.00     0.183 C 
HETATM    3  O2  UNL     1      22.065   1.098  52.656  1.00  0.00    -0.360 OA
HETATM    4  C7  UNL     1      20.960   1.090  51.846  1.00  0.00     0.161 C 
HETATM    5  C8  UNL     1      20.057   0.274  52.362  1.00  0.00     0.060 C 
HETATM    6  C15 UNL     1      19.580  -0.626  53.425  1.00  0.00     0.333 C 
HETATM    7  N3  UNL     1      20.529  -0.591  54.523  1.00  0.00     0.091 N 
HETATM    8  C16 UNL     1      21.867  -0.743  54.920  1.00  0.00     0.351 A 
HETATM    9  O3  UNL     1      21.559  -0.870  53.682  1.00  0.00    -0.150 OA
HETATM   10  C17 UNL     1      23.312  -0.984  54.777  1.00  0.00     0.091 C 
HETATM   11  H18 UNL     1      20.193  -0.361  55.529  1.00  0.00     0.322 HD
ENDROOT
BRANCH   5  12
HETATM   12  N1  UNL     1      18.935   0.303  51.470  1.00  0.00    -0.364 N 
HETATM   13  H11 UNL     1      18.920   0.749  50.504  1.00  0.00     0.165 HD
BRANCH  12  14
HETATM   14  C9  UNL     1      17.711  -0.300  51.864  1.00  0.00     0.119 C 
HETATM   15  C10 UNL     1      16.727  -0.617  51.043  1.00  0.00     0.072 C 
HETATM   16  C11 UNL     1      16.725  -0.404  49.603  1.00  0.00     0.033 C 
HETATM   17  N2  UNL     1      15.529  -1.222  51.518  1.00  0.00    -0.245 NA
HETATM   18  C12 UNL     1      15.672  -0.765  48.849  1.00  0.00     0.005 C 
HETATM   19  C13 UNL     1      14.524  -1.380  49.547  1.00  0.00     0.034 C 
HETATM   20  C14 UNL     1      14.727  -1.832  50.752  1.00  0.00     0.086 C 
ENDBRANCH  12  14
ENDBRANCH   5  12
BRANCH   1  21
HETATM   21  C4  UNL     1      25.240  -0.710  53.449  1.00  0.00     0.014 C 
HETATM   22  C3  UNL     1      26.360  -0.529  52.760  1.00  0.00     0.066 C 
BRANCH  22  23
HETATM   23  C2  UNL     1      27.484  -1.473  52.738  1.00  0.00     0.231 C 
BRANCH  23  24
HETATM   24  O1  UNL     1      28.330  -1.406  53.835  1.00  0.00    -0.390 OA
HETATM   25  C1  UNL     1      29.595  -0.908  53.513  1.00  0.00     0.201 C 
ENDBRANCH  23  24
ENDBRANCH  22  23
BRANCH  22  26
HETATM   26  O4  UNL     1      26.685   0.547  51.957  1.00  0.00    -0.358 OA
HETATM   27  C18 UNL     1      26.875   1.853  52.407  1.00  0.00     0.209 C 
ENDBRANCH  22  26
ENDBRANCH   1  21
TORSDOF 6
ENDMDL
