MODEL 1
REMARK VINA RESULT:      -7.5      0.000      0.000
REMARK  9 active torsions:
REMARK  status: ('A' for Active; 'I' for Inactive)
REMARK    1  A    between atoms: C2_2  and  C3_3 
REMARK    2  A    between atoms: C3_3  and  O1_4 
REMARK    3  A    between atoms: O1_4  and  C4_5 
REMARK    4  A    between atoms: C4_5  and  C5_6 
REMARK    5  A    between atoms: C5_6  and  C6_7 
REMARK    6  A    between atoms: C7_8  and  C8_9 
REMARK    7  A    between atoms: C8_9  and  N1_11 
REMARK    8  A    between atoms: N1_11  and  C10_12 
REMARK    9  A    between atoms: C16_18  and  N2_19 
ROOT
HETATM    1  C10 UNL     1      23.957   1.055  52.974  1.00  0.00     0.036 A 
HETATM    2  C11 UNL     1      24.536   0.008  53.748  1.00  0.00     0.011 A 
HETATM    3  C12 UNL     1      23.433  -0.874  54.150  1.00  0.00     0.054 A 
HETATM    4  C13 UNL     1      21.885  -1.178  54.095  1.00  0.00     0.035 A 
HETATM    5  C14 UNL     1      22.078  -0.204  53.494  1.00  0.00     0.166 A 
HETATM    6  C15 UNL     1      22.572   0.967  52.817  1.00  0.00     0.016 A 
HETATM    7  C16 UNL     1      21.351   1.628  52.390  1.00  0.00     0.068 C 
HETATM    8  C22 UNL     1      20.629   1.061  53.431  1.00  0.00     0.063 C 
HETATM    9  N3  UNL     1      20.942  -0.101  53.695  1.00  0.00    -0.262 NA
ENDROOT
BRANCH   1  10
HETATM   10  N1  UNL     1      24.300   2.211  52.279  1.00  0.00    -0.375 N 
HETATM   11  H16 UNL     1      24.116   3.172  52.078  1.00  0.00     0.161 HD
BRANCH  10  12
HETATM   12  C8  UNL     1      25.457   1.939  51.479  1.00  0.00     0.157 C 
HETATM   13  C9  UNL     1      25.532   3.034  50.414  1.00  0.00     0.046 C 
BRANCH  12  14
HETATM   14  C7  UNL     1      26.685   1.851  52.275  1.00  0.00    -0.082 C 
HETATM   15  C6  UNL     1      27.697   1.759  52.936  1.00  0.00    -0.102 C 
BRANCH  15  16
HETATM   16  C5  UNL     1      28.940   1.634  53.722  1.00  0.00     0.120 C 
BRANCH  16  17
HETATM   17  C4  UNL     1      28.778   0.631  54.841  1.00  0.00     0.179 C 
BRANCH  17  18
HETATM   18  O1  UNL     1      28.360  -0.620  54.410  1.00  0.00    -0.390 OA
BRANCH  18  19
HETATM   19  C3  UNL     1      29.261  -1.273  53.606  1.00  0.00     0.167 C 
BRANCH  19  20
HETATM   20  C2  UNL     1      28.686  -2.530  52.986  1.00  0.00     0.022 C 
HETATM   21  C1  UNL     1      27.290  -2.223  52.506  1.00  0.00     0.007 C 
ENDBRANCH  19  20
ENDBRANCH  18  19
ENDBRANCH  17  18
ENDBRANCH  16  17
ENDBRANCH  15  16
ENDBRANCH  12  14
ENDBRANCH  10  12
ENDBRANCH   1  10
BRANCH   7  22
HETATM   22  N2  UNL     1      21.744   2.393  51.226  1.00  0.00    -0.349 N 
HETATM   23  C17 UNL     1      22.005   1.819  49.960  1.00  0.00     0.118 A 
HETATM   24  C18 UNL     1      22.248   2.780  49.100  1.00  0.00     0.087 A 
HETATM   25 CL1  UNL     1      22.577   2.068  47.511  1.00  0.00    -0.080 Cl
HETATM   26  C19 UNL     1      22.276   4.218  49.295  1.00  0.00     0.137 A 
HETATM   27  F1  UNL     1      22.555   5.003  48.235  1.00  0.00    -0.205 F 
HETATM   28  C20 UNL     1      22.026   4.687  50.506  1.00  0.00     0.037 A 
HETATM   29  C21 UNL     1      21.720   3.805  51.661  1.00  0.00     0.159 A 
ENDBRANCH   7  22
TORSDOF 9
ENDMDL
MODEL 2
REMARK VINA RESULT:      -7.1      1.611      1.959
REMARK  9 active torsions:
REMARK  status: ('A' for Active; 'I' for Inactive)
REMARK    1  A    between atoms: C2_2  and  C3_3 
REMARK    2  A    between atoms: C3_3  and  O1_4 
REMARK    3  A    between atoms: O1_4  and  C4_5 
REMARK    4  A    between atoms: C4_5  and  C5_6 
REMARK    5  A    between atoms: C5_6  and  C6_7 
REMARK    6  A    between atoms: C7_8  and  C8_9 
REMARK    7  A    between atoms: C8_9  and  N1_11 
REMARK    8  A    between atoms: N1_11  and  C10_12 
REMARK    9  A    between atoms: C16_18  and  N2_19 
ROOT
HETATM    1  C10 UNL     1      23.913   1.538  52.280  1.00  0.00     0.036 A 
HETATM    2  C11 UNL     1      24.090   0.200  52.738  1.00  0.00     0.011 A 
HETATM    3  C12 UNL     1      22.745  -0.352  52.943  1.00  0.00     0.054 A 
HETATM    4  C13 UNL     1      21.186  -0.118  52.873  1.00  0.00     0.035 A 
HETATM    5  C14 UNL     1      21.708   0.862  52.534  1.00  0.00     0.166 A 
HETATM    6  C15 UNL     1      22.582   1.943  52.161  1.00  0.00     0.016 A 
HETATM    7  C16 UNL     1      21.658   3.047  51.966  1.00  0.00     0.068 C 
HETATM    8  C22 UNL     1      20.745   2.497  52.855  1.00  0.00     0.063 C 
HETATM    9  N3  UNL     1      20.657   1.268  52.799  1.00  0.00    -0.262 NA
ENDROOT
BRANCH   1  10
HETATM   10  N1  UNL     1      24.640   2.660  51.892  1.00  0.00    -0.375 N 
HETATM   11  H16 UNL     1      24.711   3.654  51.839  1.00  0.00     0.161 HD
BRANCH  10  12
HETATM   12  C8  UNL     1      25.871   2.226  51.302  1.00  0.00     0.157 C 
HETATM   13  C9  UNL     1      26.133   3.129  50.096  1.00  0.00     0.046 C 
BRANCH  12  14
HETATM   14  C7  UNL     1      26.986   2.231  52.254  1.00  0.00    -0.082 C 
HETATM   15  C6  UNL     1      27.911   2.254  53.038  1.00  0.00    -0.102 C 
BRANCH  15  16
HETATM   16  C5  UNL     1      29.021   2.296  54.010  1.00  0.00     0.120 C 
BRANCH  16  17
HETATM   17  C4  UNL     1      29.440   0.901  54.418  1.00  0.00     0.179 C 
BRANCH  17  18
HETATM   18  O1  UNL     1      29.527   0.014  53.355  1.00  0.00    -0.390 OA
BRANCH  18  19
HETATM   19  C3  UNL     1      29.760  -1.289  53.721  1.00  0.00     0.167 C 
BRANCH  19  20
HETATM   20  C2  UNL     1      28.790  -2.258  53.080  1.00  0.00     0.022 C 
HETATM   21  C1  UNL     1      27.491  -1.533  52.835  1.00  0.00     0.007 C 
ENDBRANCH  19  20
ENDBRANCH  18  19
ENDBRANCH  17  18
ENDBRANCH  16  17
ENDBRANCH  15  16
ENDBRANCH  12  14
ENDBRANCH  10  12
ENDBRANCH   1  10
BRANCH   7  22
HETATM   22  N2  UNL     1      22.329   3.915  51.023  1.00  0.00    -0.349 N 
HETATM   23  C17 UNL     1      23.020   5.093  51.391  1.00  0.00     0.118 A 
HETATM   24  C18 UNL     1      23.589   5.603  50.325  1.00  0.00     0.087 A 
HETATM   25 CL1  UNL     1      24.456   7.080  50.779  1.00  0.00    -0.080 Cl
HETATM   26  C19 UNL     1      23.580   5.134  48.951  1.00  0.00     0.137 A 
HETATM   27  F1  UNL     1      24.253   5.848  48.025  1.00  0.00    -0.205 F 
HETATM   28  C20 UNL     1      22.911   4.028  48.675  1.00  0.00     0.037 A 
HETATM   29  C21 UNL     1      22.177   3.255  49.709  1.00  0.00     0.159 A 
ENDBRANCH   7  22
TORSDOF 9
ENDMDL
MODEL 3
REMARK VINA RESULT:      -6.9      1.348      2.393
REMARK  9 active torsions:
REMARK  status: ('A' for Active; 'I' for Inactive)
REMARK    1  A    between atoms: C2_2  and  C3_3 
REMARK    2  A    between atoms: C3_3  and  O1_4 
REMARK    3  A    between atoms: O1_4  and  C4_5 
REMARK    4  A    between atoms: C4_5  and  C5_6 
REMARK    5  A    between atoms: C5_6  and  C6_7 
REMARK    6  A    between atoms: C7_8  and  C8_9 
REMARK    7  A    between atoms: C8_9  and  N1_11 
REMARK    8  A    between atoms: N1_11  and  C10_12 
REMARK    9  A    between atoms: C16_18  and  N2_19 
ROOT
HETATM    1  C10 UNL     1      23.254   0.497  52.574  1.00  0.00     0.036 A 
HETATM    2  C11 UNL     1      23.464  -0.482  53.587  1.00  0.00     0.011 A 
HETATM    3  C12 UNL     1      22.178  -0.655  54.275  1.00  0.00     0.054 A 
HETATM    4  C13 UNL     1      20.659  -0.238  54.380  1.00  0.00     0.035 A 
HETATM    5  C14 UNL     1      21.137   0.375  53.518  1.00  0.00     0.166 A 
HETATM    6  C15 UNL     1      21.953   1.004  52.512  1.00  0.00     0.016 A 
HETATM    7  C16 UNL     1      21.067   2.020  51.972  1.00  0.00     0.068 C 
HETATM    8  C22 UNL     1      20.361   2.099  53.163  1.00  0.00     0.063 C 
HETATM    9  N3  UNL     1      20.199   1.018  53.733  1.00  0.00    -0.262 NA
ENDROOT
BRANCH   1  10
HETATM   10  N1  UNL     1      23.926   1.178  51.563  1.00  0.00    -0.375 N 
HETATM   11  H16 UNL     1      23.906   1.596  50.656  1.00  0.00     0.161 HD
BRANCH  10  12
HETATM   12  C8  UNL     1      25.273   1.418  51.989  1.00  0.00     0.157 C 
HETATM   13  C9  UNL     1      25.199   2.334  53.211  1.00  0.00     0.046 C 
BRANCH  12  14
HETATM   14  C7  UNL     1      26.006   0.179  52.265  1.00  0.00    -0.082 C 
HETATM   15  C6  UNL     1      26.617  -0.848  52.474  1.00  0.00    -0.102 C 
BRANCH  15  16
HETATM   16  C5  UNL     1      27.382  -2.085  52.724  1.00  0.00     0.120 C 
BRANCH  16  17
HETATM   17  C4  UNL     1      28.854  -1.787  52.901  1.00  0.00     0.179 C 
BRANCH  17  18
HETATM   18  O1  UNL     1      29.157  -1.181  54.112  1.00  0.00    -0.390 OA
BRANCH  18  19
HETATM   19  C3  UNL     1      29.713   0.069  53.996  1.00  0.00     0.167 C 
BRANCH  19  20
HETATM   20  C2  UNL     1      28.837   1.155  54.585  1.00  0.00     0.022 C 
HETATM   21  C1  UNL     1      28.825   2.321  53.629  1.00  0.00     0.007 C 
ENDBRANCH  19  20
ENDBRANCH  18  19
ENDBRANCH  17  18
ENDBRANCH  16  17
ENDBRANCH  15  16
ENDBRANCH  12  14
ENDBRANCH  10  12
ENDBRANCH   1  10
BRANCH   7  22
HETATM   22  N2  UNL     1      21.542   2.229  50.621  1.00  0.00    -0.349 N 
HETATM   23  C17 UNL     1      22.297   3.356  50.218  1.00  0.00     0.118 A 
HETATM   24  C18 UNL     1      22.647   3.207  48.963  1.00  0.00     0.087 A 
HETATM   25 CL1  UNL     1      23.591   4.615  48.451  1.00  0.00    -0.080 Cl
HETATM   26  C19 UNL     1      22.365   2.121  48.041  1.00  0.00     0.137 A 
HETATM   27  F1  UNL     1      22.845   2.207  46.784  1.00  0.00    -0.205 F 
HETATM   28  C20 UNL     1      21.651   1.100  48.482  1.00  0.00     0.037 A 
HETATM   29  C21 UNL     1      21.131   1.023  49.871  1.00  0.00     0.159 A 
ENDBRANCH   7  22
TORSDOF 9
ENDMDL
MODEL 4
REMARK VINA RESULT:      -6.8      3.512      6.574
REMARK  9 active torsions:
REMARK  status: ('A' for Active; 'I' for Inactive)
REMARK    1  A    between atoms: C2_2  and  C3_3 
REMARK    2  A    between atoms: C3_3  and  O1_4 
REMARK    3  A    between atoms: O1_4  and  C4_5 
REMARK    4  A    between atoms: C4_5  and  C5_6 
REMARK    5  A    between atoms: C5_6  and  C6_7 
REMARK    6  A    between atoms: C7_8  and  C8_9 
REMARK    7  A    between atoms: C8_9  and  N1_11 
REMARK    8  A    between atoms: N1_11  and  C10_12 
REMARK    9  A    between atoms: C16_18  and  N2_19 
ROOT
HETATM    1  C10 UNL     1      22.022   0.177  53.379  1.00  0.00     0.036 A 
HETATM    2  C11 UNL     1      21.472  -0.680  54.377  1.00  0.00     0.011 A 
HETATM    3  C12 UNL     1      22.608  -1.230  55.128  1.00  0.00     0.054 A 
HETATM    4  C13 UNL     1      24.173  -1.284  55.322  1.00  0.00     0.035 A 
HETATM    5  C14 UNL     1      23.949  -0.570  54.434  1.00  0.00     0.166 A 
HETATM    6  C15 UNL     1      23.417   0.255  53.381  1.00  0.00     0.016 A 
HETATM    7  C16 UNL     1      24.612   0.692  52.682  1.00  0.00     0.068 C 
HETATM    8  C22 UNL     1      25.311  -0.439  53.080  1.00  0.00     0.063 C 
HETATM    9  N3  UNL     1      25.062  -0.814  54.228  1.00  0.00    -0.262 NA
ENDROOT
BRANCH   1  10
HETATM   10  N1  UNL     1      21.642   1.010  52.332  1.00  0.00    -0.375 N 
HETATM   11  H16 UNL     1      21.857   1.423  51.448  1.00  0.00     0.161 HD
BRANCH  10  12
HETATM   12  C8  UNL     1      20.334   1.525  52.608  1.00  0.00     0.157 C 
HETATM   13  C9  UNL     1      20.405   3.044  52.443  1.00  0.00     0.046 C 
BRANCH  12  14
HETATM   14  C7  UNL     1      19.300   0.922  51.761  1.00  0.00    -0.082 C 
HETATM   15  C6  UNL     1      18.432   0.434  51.069  1.00  0.00    -0.102 C 
BRANCH  15  16
HETATM   16  C5  UNL     1      17.374  -0.138  50.212  1.00  0.00     0.120 C 
BRANCH  16  17
HETATM   17  C4  UNL     1      16.234  -0.681  51.044  1.00  0.00     0.179 C 
BRANCH  17  18
HETATM   18  O1  UNL     1      16.635  -1.192  52.269  1.00  0.00    -0.390 OA
BRANCH  18  19
HETATM   19  C3  UNL     1      16.060  -2.394  52.598  1.00  0.00     0.167 C 
BRANCH  19  20
HETATM   20  C2  UNL     1      17.001  -3.304  53.359  1.00  0.00     0.022 C 
HETATM   21  C1  UNL     1      18.206  -2.497  53.773  1.00  0.00     0.007 C 
ENDBRANCH  19  20
ENDBRANCH  18  19
ENDBRANCH  17  18
ENDBRANCH  16  17
ENDBRANCH  15  16
ENDBRANCH  12  14
ENDBRANCH  10  12
ENDBRANCH   1  10
BRANCH   7  22
HETATM   22  N2  UNL     1      24.235   1.951  52.077  1.00  0.00    -0.349 N 
HETATM   23  C17 UNL     1      23.870   2.092  50.717  1.00  0.00     0.118 A 
HETATM   24  C18 UNL     1      23.500   3.332  50.503  1.00  0.00     0.087 A 
HETATM   25 CL1  UNL     1      23.043   3.517  48.802  1.00  0.00    -0.080 Cl
HETATM   26  C19 UNL     1      23.437   4.456  51.421  1.00  0.00     0.137 A 
HETATM   27  F1  UNL     1      23.016   5.647  50.947  1.00  0.00    -0.205 F 
HETATM   28  C20 UNL     1      23.796   4.256  52.677  1.00  0.00     0.037 A 
HETATM   29  C21 UNL     1      24.256   2.936  53.179  1.00  0.00     0.159 A 
ENDBRANCH   7  22
TORSDOF 9
ENDMDL
MODEL 5
REMARK VINA RESULT:      -6.8      2.445      4.907
REMARK  9 active torsions:
REMARK  status: ('A' for Active; 'I' for Inactive)
REMARK    1  A    between atoms: C2_2  and  C3_3 
REMARK    2  A    between atoms: C3_3  and  O1_4 
REMARK    3  A    between atoms: O1_4  and  C4_5 
REMARK    4  A    between atoms: C4_5  and  C5_6 
REMARK    5  A    between atoms: C5_6  and  C6_7 
REMARK    6  A    between atoms: C7_8  and  C8_9 
REMARK    7  A    between atoms: C8_9  and  N1_11 
REMARK    8  A    between atoms: N1_11  and  C10_12 
REMARK    9  A    between atoms: C16_18  and  N2_19 
ROOT
HETATM    1  C10 UNL     1      24.629   4.189  49.854  1.00  0.00     0.036 A 
HETATM    2  C11 UNL     1      25.748   5.050  49.662  1.00  0.00     0.011 A 
HETATM    3  C12 UNL     1      25.311   6.103  48.736  1.00  0.00     0.054 A 
HETATM    4  C13 UNL     1      24.142   6.706  47.864  1.00  0.00     0.035 A 
HETATM    5  C14 UNL     1      23.738   5.754  48.391  1.00  0.00     0.166 A 
HETATM    6  C15 UNL     1      23.482   4.555  49.146  1.00  0.00     0.016 A 
HETATM    7  C16 UNL     1      22.154   4.174  48.700  1.00  0.00     0.068 C 
HETATM    8  C22 UNL     1      22.337   4.802  47.476  1.00  0.00     0.063 C 
HETATM    9  N3  UNL     1      22.964   5.862  47.537  1.00  0.00    -0.262 NA
ENDROOT
BRANCH   1  10
HETATM   10  N1  UNL     1      24.249   3.035  50.533  1.00  0.00    -0.375 N 
HETATM   11  H16 UNL     1      23.727   2.184  50.544  1.00  0.00     0.161 HD
BRANCH  10  12
HETATM   12  C8  UNL     1      24.898   3.020  51.811  1.00  0.00     0.157 C 
HETATM   13  C9  UNL     1      23.986   3.768  52.785  1.00  0.00     0.046 C 
BRANCH  12  14
HETATM   14  C7  UNL     1      25.209   1.663  52.270  1.00  0.00    -0.082 C 
HETATM   15  C6  UNL     1      25.485   0.543  52.643  1.00  0.00    -0.102 C 
BRANCH  15  16
HETATM   16  C5  UNL     1      25.835  -0.810  53.118  1.00  0.00     0.120 C 
BRANCH  16  17
HETATM   17  C4  UNL     1      27.270  -1.151  52.785  1.00  0.00     0.179 C 
BRANCH  17  18
HETATM   18  O1  UNL     1      28.110  -1.158  53.889  1.00  0.00    -0.390 OA
BRANCH  18  19
HETATM   19  C3  UNL     1      28.209   0.049  54.535  1.00  0.00     0.167 C 
BRANCH  19  20
HETATM   20  C2  UNL     1      29.263   0.951  53.928  1.00  0.00     0.022 C 
HETATM   21  C1  UNL     1      28.641   2.302  53.678  1.00  0.00     0.007 C 
ENDBRANCH  19  20
ENDBRANCH  18  19
ENDBRANCH  17  18
ENDBRANCH  16  17
ENDBRANCH  15  16
ENDBRANCH  12  14
ENDBRANCH  10  12
ENDBRANCH   1  10
BRANCH   7  22
HETATM   22  N2  UNL     1      21.604   3.424  49.808  1.00  0.00    -0.349 N 
HETATM   23  C17 UNL     1      21.668   2.014  49.913  1.00  0.00     0.118 A 
HETATM   24  C18 UNL     1      21.161   1.651  51.068  1.00  0.00     0.087 A 
HETATM   25 CL1  UNL     1      21.237  -0.114  51.206  1.00  0.00    -0.080 Cl
HETATM   26  C19 UNL     1      20.599   2.461  52.134  1.00  0.00     0.137 A 
HETATM   27  F1  UNL     1      20.138   1.837  53.237  1.00  0.00    -0.205 F 
HETATM   28  C20 UNL     1      20.567   3.772  51.969  1.00  0.00     0.037 A 
HETATM   29  C21 UNL     1      21.080   4.440  50.746  1.00  0.00     0.159 A 
ENDBRANCH   7  22
TORSDOF 9
ENDMDL
MODEL 6
REMARK VINA RESULT:      -6.7      2.922      4.523
REMARK  9 active torsions:
REMARK  status: ('A' for Active; 'I' for Inactive)
REMARK    1  A    between atoms: C2_2  and  C3_3 
REMARK    2  A    between atoms: C3_3  and  O1_4 
REMARK    3  A    between atoms: O1_4  and  C4_5 
REMARK    4  A    between atoms: C4_5  and  C5_6 
REMARK    5  A    between atoms: C5_6  and  C6_7 
REMARK    6  A    between atoms: C7_8  and  C8_9 
REMARK    7  A    between atoms: C8_9  and  N1_11 
REMARK    8  A    between atoms: N1_11  and  C10_12 
REMARK    9  A    between atoms: C16_18  and  N2_19 
ROOT
HETATM    1  C10 UNL     1      23.744   0.579  52.563  1.00  0.00     0.036 A 
HETATM    2  C11 UNL     1      24.182  -0.351  53.550  1.00  0.00     0.011 A 
HETATM    3  C12 UNL     1      22.996  -0.715  54.336  1.00  0.00     0.054 A 
HETATM    4  C13 UNL     1      21.445  -0.535  54.566  1.00  0.00     0.035 A 
HETATM    5  C14 UNL     1      21.753   0.139  53.672  1.00  0.00     0.166 A 
HETATM    6  C15 UNL     1      22.381   0.880  52.609  1.00  0.00     0.016 A 
HETATM    7  C16 UNL     1      21.309   1.745  52.148  1.00  0.00     0.068 C 
HETATM    8  C22 UNL     1      20.696   1.722  53.393  1.00  0.00     0.063 C 
HETATM    9  N3  UNL     1      20.748   0.632  53.966  1.00  0.00    -0.262 NA
ENDROOT
BRANCH   1  10
HETATM   10  N1  UNL     1      24.221   1.349  51.506  1.00  0.00    -0.375 N 
HETATM   11  H16 UNL     1      24.061   1.763  50.612  1.00  0.00     0.161 HD
BRANCH  10  12
HETATM   12  C8  UNL     1      25.556   1.770  51.813  1.00  0.00     0.157 C 
HETATM   13  C9  UNL     1      26.416   0.508  51.896  1.00  0.00     0.046 C 
BRANCH  12  14
HETATM   14  C7  UNL     1      26.078   2.737  50.843  1.00  0.00    -0.082 C 
HETATM   15  C6  UNL     1      26.523   3.525  50.035  1.00  0.00    -0.102 C 
BRANCH  15  16
HETATM   16  C5  UNL     1      27.052   4.469  49.032  1.00  0.00     0.120 C 
BRANCH  16  17
HETATM   17  C4  UNL     1      26.476   5.853  49.229  1.00  0.00     0.179 C 
BRANCH  17  18
HETATM   18  O1  UNL     1      27.357   6.874  48.904  1.00  0.00    -0.390 OA
BRANCH  18  19
HETATM   19  C3  UNL     1      28.232   6.567  47.891  1.00  0.00     0.167 C 
BRANCH  19  20
HETATM   20  C2  UNL     1      29.662   6.940  48.220  1.00  0.00     0.022 C 
HETATM   21  C1  UNL     1      30.508   5.696  48.126  1.00  0.00     0.007 C 
ENDBRANCH  19  20
ENDBRANCH  18  19
ENDBRANCH  17  18
ENDBRANCH  16  17
ENDBRANCH  15  16
ENDBRANCH  12  14
ENDBRANCH  10  12
ENDBRANCH   1  10
BRANCH   7  22
HETATM   22  N2  UNL     1      21.637   2.018  50.765  1.00  0.00    -0.349 N 
HETATM   23  C17 UNL     1      22.245   3.216  50.322  1.00  0.00     0.118 A 
HETATM   24  C18 UNL     1      22.490   3.118  49.037  1.00  0.00     0.087 A 
HETATM   25 CL1  UNL     1      23.251   4.616  48.475  1.00  0.00    -0.080 Cl
HETATM   26  C19 UNL     1      22.226   2.024  48.120  1.00  0.00     0.137 A 
HETATM   27  F1  UNL     1      22.579   2.172  46.827  1.00  0.00    -0.205 F 
HETATM   28  C20 UNL     1      21.652   0.934  48.600  1.00  0.00     0.037 A 
HETATM   29  C21 UNL     1      21.272   0.790  50.028  1.00  0.00     0.159 A 
ENDBRANCH   7  22
TORSDOF 9
ENDMDL
MODEL 7
REMARK VINA RESULT:      -6.6      2.723      5.536
REMARK  9 active torsions:
REMARK  status: ('A' for Active; 'I' for Inactive)
REMARK    1  A    between atoms: C2_2  and  C3_3 
REMARK    2  A    between atoms: C3_3  and  O1_4 
REMARK    3  A    between atoms: O1_4  and  C4_5 
REMARK    4  A    between atoms: C4_5  and  C5_6 
REMARK    5  A    between atoms: C5_6  and  C6_7 
REMARK    6  A    between atoms: C7_8  and  C8_9 
REMARK    7  A    between atoms: C8_9  and  N1_11 
REMARK    8  A    between atoms: N1_11  and  C10_12 
REMARK    9  A    between atoms: C16_18  and  N2_19 
ROOT
HETATM    1  C10 UNL     1      24.296   4.522  49.335  1.00  0.00     0.036 A 
HETATM    2  C11 UNL     1      25.180   5.640  49.308  1.00  0.00     0.011 A 
HETATM    3  C12 UNL     1      24.603   6.607  48.364  1.00  0.00     0.054 A 
HETATM    4  C13 UNL     1      23.429   6.956  47.370  1.00  0.00     0.035 A 
HETATM    5  C14 UNL     1      23.217   5.905  47.815  1.00  0.00     0.166 A 
HETATM    6  C15 UNL     1      23.183   4.639  48.499  1.00  0.00     0.016 A 
HETATM    7  C16 UNL     1      22.051   3.972  47.880  1.00  0.00     0.068 C 
HETATM    8  C22 UNL     1      22.211   4.696  46.707  1.00  0.00     0.063 C 
HETATM    9  N3  UNL     1      22.543   5.871  46.875  1.00  0.00    -0.262 NA
ENDROOT
BRANCH   1  10
HETATM   10  N1  UNL     1      24.141   3.274  49.928  1.00  0.00    -0.375 N 
HETATM   11  H16 UNL     1      23.784   2.342  49.876  1.00  0.00     0.161 HD
BRANCH  10  12
HETATM   12  C8  UNL     1      24.790   3.289  51.205  1.00  0.00     0.157 C 
HETATM   13  C9  UNL     1      23.723   3.629  52.247  1.00  0.00     0.046 C 
BRANCH  12  14
HETATM   14  C7  UNL     1      25.477   2.029  51.504  1.00  0.00    -0.082 C 
HETATM   15  C6  UNL     1      26.039   0.987  51.768  1.00  0.00    -0.102 C 
BRANCH  15  16
HETATM   16  C5  UNL     1      26.700  -0.292  52.092  1.00  0.00     0.120 C 
BRANCH  16  17
HETATM   17  C4  UNL     1      26.095  -0.921  53.327  1.00  0.00     0.179 C 
BRANCH  17  18
HETATM   18  O1  UNL     1      25.153  -0.118  53.954  1.00  0.00    -0.390 OA
BRANCH  18  19
HETATM   19  C3  UNL     1      23.918  -0.699  54.097  1.00  0.00     0.167 C 
BRANCH  19  20
HETATM   20  C2  UNL     1      22.825   0.069  53.385  1.00  0.00     0.022 C 
HETATM   21  C1  UNL     1      21.599   0.070  54.264  1.00  0.00     0.007 C 
ENDBRANCH  19  20
ENDBRANCH  18  19
ENDBRANCH  17  18
ENDBRANCH  16  17
ENDBRANCH  15  16
ENDBRANCH  12  14
ENDBRANCH  10  12
ENDBRANCH   1  10
BRANCH   7  22
HETATM   22  N2  UNL     1      21.582   3.048  48.890  1.00  0.00    -0.349 N 
HETATM   23  C17 UNL     1      20.922   3.447  50.076  1.00  0.00     0.118 A 
HETATM   24  C18 UNL     1      20.547   2.376  50.735  1.00  0.00     0.087 A 
HETATM   25 CL1  UNL     1      19.721   2.868  52.222  1.00  0.00    -0.080 Cl
HETATM   26  C19 UNL     1      20.725   0.972  50.407  1.00  0.00     0.137 A 
HETATM   27  F1  UNL     1      20.241   0.049  51.263  1.00  0.00    -0.205 F 
HETATM   28  C20 UNL     1      21.355   0.669  49.285  1.00  0.00     0.037 A 
HETATM   29  C21 UNL     1      21.880   1.702  48.356  1.00  0.00     0.159 A 
ENDBRANCH   7  22
TORSDOF 9
ENDMDL
MODEL 8
REMARK VINA RESULT:      -6.6      3.701      7.149
REMARK  9 active torsions:
REMARK  status: ('A' for Active; 'I' for Inactive)
REMARK    1  A    between atoms: C2_2  and  C3_3 
REMARK    2  A    between atoms: C3_3  and  O1_4 
REMARK    3  A    between atoms: O1_4  and  C4_5 
REMARK    4  A    between atoms: C4_5  and  C5_6 
REMARK    5  A    between atoms: C5_6  and  C6_7 
REMARK    6  A    between atoms: C7_8  and  C8_9 
REMARK    7  A    between atoms: C8_9  and  N1_11 
REMARK    8  A    between atoms: N1_11  and  C10_12 
REMARK    9  A    between atoms: C16_18  and  N2_19 
ROOT
HETATM    1  C10 UNL     1      22.115   0.138  53.514  1.00  0.00     0.036 A 
HETATM    2  C11 UNL     1      21.628  -0.713  54.548  1.00  0.00     0.011 A 
HETATM    3  C12 UNL     1      22.807  -1.252  55.237  1.00  0.00     0.054 A 
HETATM    4  C13 UNL     1      24.381  -1.298  55.341  1.00  0.00     0.035 A 
HETATM    5  C14 UNL     1      24.104  -0.592  54.463  1.00  0.00     0.166 A 
HETATM    6  C15 UNL     1      23.507   0.223  53.436  1.00  0.00     0.016 A 
HETATM    7  C16 UNL     1      24.659   0.660  52.667  1.00  0.00     0.068 C 
HETATM    8  C22 UNL     1      25.384  -0.465  53.033  1.00  0.00     0.063 C 
HETATM    9  N3  UNL     1      25.204  -0.833  54.195  1.00  0.00    -0.262 NA
ENDROOT
BRANCH   1  10
HETATM   10  N1  UNL     1      21.672   0.962  52.484  1.00  0.00    -0.375 N 
HETATM   11  H16 UNL     1      21.834   1.370  51.588  1.00  0.00     0.161 HD
BRANCH  10  12
HETATM   12  C8  UNL     1      20.378   1.471  52.830  1.00  0.00     0.157 C 
HETATM   13  C9  UNL     1      20.337   2.933  52.381  1.00  0.00     0.046 C 
BRANCH  12  14
HETATM   14  C7  UNL     1      19.288   0.681  52.252  1.00  0.00    -0.082 C 
HETATM   15  C6  UNL     1      18.375   0.030  51.789  1.00  0.00    -0.102 C 
BRANCH  15  16
HETATM   16  C5  UNL     1      17.251  -0.740  51.220  1.00  0.00     0.120 C 
BRANCH  16  17
HETATM   17  C4  UNL     1      16.242  -1.099  52.288  1.00  0.00     0.179 C 
BRANCH  17  18
HETATM   18  O1  UNL     1      15.871  -0.026  53.085  1.00  0.00    -0.390 OA
BRANCH  18  19
HETATM   19  C3  UNL     1      14.570   0.380  52.919  1.00  0.00     0.167 C 
BRANCH  19  20
HETATM   20  C2  UNL     1      14.421   1.887  52.939  1.00  0.00     0.022 C 
HETATM   21  C1  UNL     1      15.377   2.469  51.928  1.00  0.00     0.007 C 
ENDBRANCH  19  20
ENDBRANCH  18  19
ENDBRANCH  17  18
ENDBRANCH  16  17
ENDBRANCH  15  16
ENDBRANCH  12  14
ENDBRANCH  10  12
ENDBRANCH   1  10
BRANCH   7  22
HETATM   22  N2  UNL     1      24.242   1.912  52.075  1.00  0.00    -0.349 N 
HETATM   23  C17 UNL     1      23.826   2.047  50.729  1.00  0.00     0.118 A 
HETATM   24  C18 UNL     1      23.430   3.281  50.528  1.00  0.00     0.087 A 
HETATM   25 CL1  UNL     1      22.908   3.457  48.844  1.00  0.00    -0.080 Cl
HETATM   26  C19 UNL     1      23.383   4.405  51.446  1.00  0.00     0.137 A 
HETATM   27  F1  UNL     1      22.928   5.589  50.988  1.00  0.00    -0.205 F 
HETATM   28  C20 UNL     1      23.791   4.211  52.689  1.00  0.00     0.037 A 
HETATM   29  C21 UNL     1      24.288   2.899  53.175  1.00  0.00     0.159 A 
ENDBRANCH   7  22
TORSDOF 9
ENDMDL
MODEL 9
REMARK VINA RESULT:      -6.5      3.022      6.065
REMARK  9 active torsions:
REMARK  status: ('A' for Active; 'I' for Inactive)
REMARK    1  A    between atoms: C2_2  and  C3_3 
REMARK    2  A    between atoms: C3_3  and  O1_4 
REMARK    3  A    between atoms: O1_4  and  C4_5 
REMARK    4  A    between atoms: C4_5  and  C5_6 
REMARK    5  A    between atoms: C5_6  and  C6_7 
REMARK    6  A    between atoms: C7_8  and  C8_9 
REMARK    7  A    between atoms: C8_9  and  N1_11 
REMARK    8  A    between atoms: N1_11  and  C10_12 
REMARK    9  A    between atoms: C16_18  and  N2_19 
ROOT
HETATM    1  C10 UNL     1      22.483   0.270  53.291  1.00  0.00     0.036 A 
HETATM    2  C11 UNL     1      21.893  -0.677  54.177  1.00  0.00     0.011 A 
HETATM    3  C12 UNL     1      22.993  -1.261  54.956  1.00  0.00     0.054 A 
HETATM    4  C13 UNL     1      24.543  -1.296  55.249  1.00  0.00     0.035 A 
HETATM    5  C14 UNL     1      24.357  -0.518  54.409  1.00  0.00     0.166 A 
HETATM    6  C15 UNL     1      23.871   0.379  53.393  1.00  0.00     0.016 A 
HETATM    7  C16 UNL     1      25.097   0.898  52.812  1.00  0.00     0.068 C 
HETATM    8  C22 UNL     1      25.799  -0.246  53.164  1.00  0.00     0.063 C 
HETATM    9  N3  UNL     1      25.488  -0.719  54.259  1.00  0.00    -0.262 NA
ENDROOT
BRANCH   1  10
HETATM   10  N1  UNL     1      22.148   1.178  52.290  1.00  0.00    -0.375 N 
HETATM   11  H16 UNL     1      22.198   2.108  51.931  1.00  0.00     0.161 HD
BRANCH  10  12
HETATM   12  C8  UNL     1      21.388   0.494  51.286  1.00  0.00     0.157 C 
HETATM   13  C9  UNL     1      19.913   0.639  51.664  1.00  0.00     0.046 C 
BRANCH  12  14
HETATM   14  C7  UNL     1      21.667   0.988  49.935  1.00  0.00    -0.082 C 
HETATM   15  C6  UNL     1      21.917   1.396  48.820  1.00  0.00    -0.102 C 
BRANCH  15  16
HETATM   16  C5  UNL     1      22.231   1.870  47.458  1.00  0.00     0.120 C 
BRANCH  16  17
HETATM   17  C4  UNL     1      21.451   3.122  47.123  1.00  0.00     0.179 C 
BRANCH  17  18
HETATM   18  O1  UNL     1      20.143   3.100  47.583  1.00  0.00    -0.390 OA
BRANCH  18  19
HETATM   19  C3  UNL     1      19.784   4.198  48.326  1.00  0.00     0.167 C 
BRANCH  19  20
HETATM   20  C2  UNL     1      19.265   3.829  49.699  1.00  0.00     0.022 C 
HETATM   21  C1  UNL     1      20.223   4.374  50.728  1.00  0.00     0.007 C 
ENDBRANCH  19  20
ENDBRANCH  18  19
ENDBRANCH  17  18
ENDBRANCH  16  17
ENDBRANCH  15  16
ENDBRANCH  12  14
ENDBRANCH  10  12
ENDBRANCH   1  10
BRANCH   7  22
HETATM   22  N2  UNL     1      24.725   2.194  52.286  1.00  0.00    -0.349 N 
HETATM   23  C17 UNL     1      24.748   2.519  50.909  1.00  0.00     0.118 A 
HETATM   24  C18 UNL     1      24.274   3.733  50.751  1.00  0.00     0.087 A 
HETATM   25 CL1  UNL     1      24.299   4.148  49.030  1.00  0.00    -0.080 Cl
HETATM   26  C19 UNL     1      23.783   4.676  51.741  1.00  0.00     0.137 A 
HETATM   27  F1  UNL     1      23.343   5.878  51.317  1.00  0.00    -0.205 F 
HETATM   28  C20 UNL     1      23.794   4.308  53.010  1.00  0.00     0.037 A 
HETATM   29  C21 UNL     1      24.283   2.979  53.458  1.00  0.00     0.159 A 
ENDBRANCH   7  22
TORSDOF 9
ENDMDL
