MODEL 1
REMARK VINA RESULT:      -7.1      0.000      0.000
REMARK  4 active torsions:
REMARK  status: ('A' for Active; 'I' for Inactive)
REMARK    1  A    between atoms: C7_8  and  N1_9 
REMARK    2  A    between atoms: N1_9  and  C8_10 
REMARK    3  A    between atoms: C11_14  and  N3_15 
REMARK    4  A    between atoms: N4_18  and  C14_19 
ROOT
HETATM    1  C1  UNL     1      22.031  -1.227  54.962  1.00  0.00     0.210 C 
HETATM    2  O1  UNL     1      21.329  -0.776  53.983  1.00  0.00    -0.354 OA
HETATM    3  C2  UNL     1      20.631  -0.332  53.017  1.00  0.00     0.094 A 
HETATM    4  C3  UNL     1      19.468  -0.817  53.453  1.00  0.00     0.039 A 
HETATM    5  C4  UNL     1      18.475  -0.399  52.407  1.00  0.00     0.003 A 
HETATM    6  C5  UNL     1      18.781   0.361  51.220  1.00  0.00     0.002 A 
HETATM    7  C6  UNL     1      20.127   0.754  51.008  1.00  0.00     0.032 A 
HETATM    8  C7  UNL     1      21.073   0.391  51.942  1.00  0.00     0.062 A 
ENDROOT
BRANCH   8   9
HETATM    9  N1  UNL     1      22.458   0.660  51.978  1.00  0.00    -0.376 N 
HETATM   10  H8  UNL     1      23.196  -0.030  52.212  1.00  0.00     0.160 HD
BRANCH   9  11
HETATM   11  C8  UNL     1      22.970   1.949  51.709  1.00  0.00     0.148 C 
HETATM   12  C9  UNL     1      23.335   2.232  50.302  1.00  0.00     0.019 C 
HETATM   13  C10 UNL     1      24.243   3.227  50.350  1.00  0.00     0.083 C 
HETATM   14  N2  UNL     1      24.484   3.599  51.732  1.00  0.00    -0.377 N 
HETATM   15  C11 UNL     1      24.272   2.277  52.387  1.00  0.00     0.205 C 
HETATM   16  H12 UNL     1      24.736   4.546  52.101  1.00  0.00     0.161 HD
BRANCH  15  17
HETATM   17  N3  UNL     1      25.402   1.515  52.022  1.00  0.00    -0.387 N 
HETATM   18  C12 UNL     1      25.575   0.209  52.507  1.00  0.00     0.139 C 
HETATM   19  C13 UNL     1      27.057  -0.182  52.296  1.00  0.00     0.144 C 
HETATM   20  N4  UNL     1      27.767   0.698  53.222  1.00  0.00    -0.356 N 
HETATM   21  C15 UNL     1      27.546   2.124  53.101  1.00  0.00     0.144 C 
HETATM   22  C16 UNL     1      26.573   2.346  51.971  1.00  0.00     0.139 C 
BRANCH  20  23
HETATM   23  C14 UNL     1      28.684   0.574  54.301  1.00  0.00     0.350 C 
HETATM   24  O2  UNL     1      29.079   1.284  55.279  1.00  0.00    -0.284 OA
ENDBRANCH  20  23
ENDBRANCH  15  17
ENDBRANCH   9  11
ENDBRANCH   8   9
TORSDOF 4
ENDMDL
MODEL 2
REMARK VINA RESULT:      -6.9      2.841      5.732
REMARK  4 active torsions:
REMARK  status: ('A' for Active; 'I' for Inactive)
REMARK    1  A    between atoms: C7_8  and  N1_9 
REMARK    2  A    between atoms: N1_9  and  C8_10 
REMARK    3  A    between atoms: C11_14  and  N3_15 
REMARK    4  A    between atoms: N4_18  and  C14_19 
ROOT
HETATM    1  C1  UNL     1      22.887   7.173  50.720  1.00  0.00     0.210 C 
HETATM    2  O1  UNL     1      23.889   6.439  50.385  1.00  0.00    -0.354 OA
HETATM    3  C2  UNL     1      24.881   5.717  50.051  1.00  0.00     0.094 A 
HETATM    4  C3  UNL     1      25.327   6.530  49.093  1.00  0.00     0.039 A 
HETATM    5  C4  UNL     1      26.534   5.828  48.540  1.00  0.00     0.003 A 
HETATM    6  C5  UNL     1      27.042   4.557  48.995  1.00  0.00     0.002 A 
HETATM    7  C6  UNL     1      26.357   3.903  50.050  1.00  0.00     0.032 A 
HETATM    8  C7  UNL     1      25.243   4.511  50.587  1.00  0.00     0.062 A 
ENDROOT
BRANCH   8   9
HETATM    9  N1  UNL     1      24.400   4.087  51.636  1.00  0.00    -0.376 N 
HETATM   10  H8  UNL     1      24.371   4.502  52.586  1.00  0.00     0.160 HD
BRANCH   9  11
HETATM   11  C8  UNL     1      23.505   3.004  51.478  1.00  0.00     0.148 C 
HETATM   12  C9  UNL     1      22.435   2.881  52.493  1.00  0.00     0.019 C 
HETATM   13  C10 UNL     1      22.066   1.585  52.484  1.00  0.00     0.083 C 
HETATM   14  N2  UNL     1      22.856   0.862  51.504  1.00  0.00    -0.377 N 
HETATM   15  C11 UNL     1      24.125   1.639  51.584  1.00  0.00     0.205 C 
HETATM   16  H12 UNL     1      22.561   0.033  50.936  1.00  0.00     0.161 HD
BRANCH  15  17
HETATM   17  N3  UNL     1      24.685   1.277  52.828  1.00  0.00    -0.387 N 
HETATM   18  C12 UNL     1      25.769   1.990  53.363  1.00  0.00     0.139 C 
HETATM   19  C13 UNL     1      26.409   1.119  54.470  1.00  0.00     0.144 C 
HETATM   20  N4  UNL     1      26.981   0.001  53.722  1.00  0.00    -0.356 N 
HETATM   21  C15 UNL     1      26.099  -0.756  52.859  1.00  0.00     0.144 C 
HETATM   22  C16 UNL     1      24.721  -0.153  52.966  1.00  0.00     0.139 C 
BRANCH  20  23
HETATM   23  C14 UNL     1      28.249  -0.623  53.563  1.00  0.00     0.350 C 
HETATM   24  O2  UNL     1      28.701  -1.805  53.443  1.00  0.00    -0.284 OA
ENDBRANCH  20  23
ENDBRANCH  15  17
ENDBRANCH   9  11
ENDBRANCH   8   9
TORSDOF 4
ENDMDL
MODEL 3
REMARK VINA RESULT:      -6.9      2.901      6.346
REMARK  4 active torsions:
REMARK  status: ('A' for Active; 'I' for Inactive)
REMARK    1  A    between atoms: C7_8  and  N1_9 
REMARK    2  A    between atoms: N1_9  and  C8_10 
REMARK    3  A    between atoms: C11_14  and  N3_15 
REMARK    4  A    between atoms: N4_18  and  C14_19 
ROOT
HETATM    1  C1  UNL     1      26.800  -2.337  52.325  1.00  0.00     0.210 C 
HETATM    2  O1  UNL     1      27.256  -1.180  52.654  1.00  0.00    -0.354 OA
HETATM    3  C2  UNL     1      27.711  -0.038  52.981  1.00  0.00     0.094 A 
HETATM    4  C3  UNL     1      28.752  -0.499  53.675  1.00  0.00     0.039 A 
HETATM    5  C4  UNL     1      29.440   0.738  54.178  1.00  0.00     0.003 A 
HETATM    6  C5  UNL     1      29.014   2.092  53.925  1.00  0.00     0.002 A 
HETATM    7  C6  UNL     1      27.851   2.290  53.138  1.00  0.00     0.032 A 
HETATM    8  C7  UNL     1      27.187   1.184  52.656  1.00  0.00     0.062 A 
ENDROOT
BRANCH   8   9
HETATM    9  N1  UNL     1      26.031   1.102  51.852  1.00  0.00    -0.376 N 
HETATM   10  H8  UNL     1      26.002   0.742  50.880  1.00  0.00     0.160 HD
BRANCH   9  11
HETATM   11  C8  UNL     1      24.771   1.545  52.316  1.00  0.00     0.148 C 
HETATM   12  C9  UNL     1      23.593   1.118  51.529  1.00  0.00     0.019 C 
HETATM   13  C10 UNL     1      22.629   2.023  51.787  1.00  0.00     0.083 C 
HETATM   14  N2  UNL     1      23.136   3.023  52.710  1.00  0.00    -0.377 N 
HETATM   15  C11 UNL     1      24.569   3.035  52.300  1.00  0.00     0.205 C 
HETATM   16  H12 UNL     1      22.595   3.553  53.433  1.00  0.00     0.161 HD
BRANCH  15  17
HETATM   17  N3  UNL     1      24.574   3.677  51.044  1.00  0.00    -0.387 N 
HETATM   18  C12 UNL     1      25.766   3.824  50.317  1.00  0.00     0.139 C 
HETATM   19  C13 UNL     1      25.532   4.908  49.239  1.00  0.00     0.144 C 
HETATM   20  N4  UNL     1      25.376   6.130  50.025  1.00  0.00    -0.356 N 
HETATM   21  C15 UNL     1      24.359   6.144  51.057  1.00  0.00     0.144 C 
HETATM   22  C16 UNL     1      23.677   4.799  51.049  1.00  0.00     0.139 C 
BRANCH  20  23
HETATM   23  C14 UNL     1      25.969   7.420  50.099  1.00  0.00     0.350 C 
HETATM   24  O2  UNL     1      26.959   8.025  49.580  1.00  0.00    -0.284 OA
ENDBRANCH  20  23
ENDBRANCH  15  17
ENDBRANCH   9  11
ENDBRANCH   8   9
TORSDOF 4
ENDMDL
MODEL 4
REMARK VINA RESULT:      -6.9      1.901      6.499
REMARK  4 active torsions:
REMARK  status: ('A' for Active; 'I' for Inactive)
REMARK    1  A    between atoms: C7_8  and  N1_9 
REMARK    2  A    between atoms: N1_9  and  C8_10 
REMARK    3  A    between atoms: C11_14  and  N3_15 
REMARK    4  A    between atoms: N4_18  and  C14_19 
ROOT
HETATM    1  C1  UNL     1      24.781  -1.204  55.451  1.00  0.00     0.210 C 
HETATM    2  O1  UNL     1      25.635  -0.484  54.813  1.00  0.00    -0.354 OA
HETATM    3  C2  UNL     1      26.483   0.227  54.186  1.00  0.00     0.094 A 
HETATM    4  C3  UNL     1      27.490   0.023  55.037  1.00  0.00     0.039 A 
HETATM    5  C4  UNL     1      28.628   0.818  54.465  1.00  0.00     0.003 A 
HETATM    6  C5  UNL     1      28.573   1.603  53.256  1.00  0.00     0.002 A 
HETATM    7  C6  UNL     1      27.351   1.638  52.537  1.00  0.00     0.032 A 
HETATM    8  C7  UNL     1      26.280   0.924  53.027  1.00  0.00     0.062 A 
ENDROOT
BRANCH   8   9
HETATM    9  N1  UNL     1      24.976   0.781  52.507  1.00  0.00    -0.376 N 
HETATM   10  H8  UNL     1      24.427  -0.099  52.502  1.00  0.00     0.160 HD
BRANCH   9  11
HETATM   11  C8  UNL     1      24.293   1.864  51.907  1.00  0.00     0.148 C 
HETATM   12  C9  UNL     1      24.231   3.118  52.691  1.00  0.00     0.019 C 
HETATM   13  C10 UNL     1      23.156   3.787  52.230  1.00  0.00     0.083 C 
HETATM   14  N2  UNL     1      22.518   3.016  51.179  1.00  0.00    -0.377 N 
HETATM   15  C11 UNL     1      22.828   1.639  51.656  1.00  0.00     0.205 C 
HETATM   16  H12 UNL     1      21.998   3.384  50.347  1.00  0.00     0.161 HD
BRANCH  15  17
HETATM   17  N3  UNL     1      21.998   1.459  52.782  1.00  0.00    -0.387 N 
HETATM   18  C12 UNL     1      22.122   0.318  53.591  1.00  0.00     0.139 C 
HETATM   19  C13 UNL     1      20.837   0.200  54.445  1.00  0.00     0.144 C 
HETATM   20  N4  UNL     1      19.807  -0.107  53.454  1.00  0.00    -0.356 N 
HETATM   21  C15 UNL     1      19.652   0.802  52.338  1.00  0.00     0.144 C 
HETATM   22  C16 UNL     1      20.663   1.909  52.501  1.00  0.00     0.139 C 
BRANCH  20  23
HETATM   23  C14 UNL     1      18.830  -1.114  53.227  1.00  0.00     0.350 C 
HETATM   24  O2  UNL     1      17.751  -1.238  52.566  1.00  0.00    -0.284 OA
ENDBRANCH  20  23
ENDBRANCH  15  17
ENDBRANCH   9  11
ENDBRANCH   8   9
TORSDOF 4
ENDMDL
MODEL 5
REMARK VINA RESULT:      -6.8      2.952      6.275
REMARK  4 active torsions:
REMARK  status: ('A' for Active; 'I' for Inactive)
REMARK    1  A    between atoms: C7_8  and  N1_9 
REMARK    2  A    between atoms: N1_9  and  C8_10 
REMARK    3  A    between atoms: C11_14  and  N3_15 
REMARK    4  A    between atoms: N4_18  and  C14_19 
ROOT
HETATM    1  C1  UNL     1      28.798   2.514  53.640  1.00  0.00     0.210 C 
HETATM    2  O1  UNL     1      28.381   1.337  53.331  1.00  0.00    -0.354 OA
HETATM    3  C2  UNL     1      27.973   0.171  53.027  1.00  0.00     0.094 A 
HETATM    4  C3  UNL     1      28.950  -0.485  53.654  1.00  0.00     0.039 A 
HETATM    5  C4  UNL     1      28.651  -1.934  53.397  1.00  0.00     0.003 A 
HETATM    6  C5  UNL     1      27.533  -2.433  52.634  1.00  0.00     0.002 A 
HETATM    7  C6  UNL     1      26.633  -1.491  52.073  1.00  0.00     0.032 A 
HETATM    8  C7  UNL     1      26.871  -0.150  52.283  1.00  0.00     0.062 A 
ENDROOT
BRANCH   8   9
HETATM    9  N1  UNL     1      26.136   0.976  51.853  1.00  0.00    -0.376 N 
HETATM   10  H8  UNL     1      26.368   1.564  51.032  1.00  0.00     0.160 HD
BRANCH   9  11
HETATM   11  C8  UNL     1      24.992   1.425  52.551  1.00  0.00     0.148 C 
HETATM   12  C9  UNL     1      23.686   0.924  52.065  1.00  0.00     0.019 C 
HETATM   13  C10 UNL     1      22.771   1.827  52.470  1.00  0.00     0.083 C 
HETATM   14  N2  UNL     1      23.432   2.894  53.199  1.00  0.00    -0.377 N 
HETATM   15  C11 UNL     1      24.743   2.906  52.490  1.00  0.00     0.205 C 
HETATM   16  H12 UNL     1      23.042   3.461  53.989  1.00  0.00     0.161 HD
BRANCH  15  17
HETATM   17  N3  UNL     1      24.458   3.464  51.226  1.00  0.00    -0.387 N 
HETATM   18  C12 UNL     1      25.438   3.509  50.223  1.00  0.00     0.139 C 
HETATM   19  C13 UNL     1      24.978   4.530  49.156  1.00  0.00     0.144 C 
HETATM   20  N4  UNL     1      25.055   5.806  49.864  1.00  0.00    -0.356 N 
HETATM   21  C15 UNL     1      24.324   5.934  51.107  1.00  0.00     0.144 C 
HETATM   22  C16 UNL     1      23.622   4.624  51.365  1.00  0.00     0.139 C 
BRANCH  20  23
HETATM   23  C14 UNL     1      25.686   7.069  49.695  1.00  0.00     0.350 C 
HETATM   24  O2  UNL     1      26.301   7.912  50.421  1.00  0.00    -0.284 OA
ENDBRANCH  20  23
ENDBRANCH  15  17
ENDBRANCH   9  11
ENDBRANCH   8   9
TORSDOF 4
ENDMDL
MODEL 6
REMARK VINA RESULT:      -6.8      1.743      6.737
REMARK  4 active torsions:
REMARK  status: ('A' for Active; 'I' for Inactive)
REMARK    1  A    between atoms: C7_8  and  N1_9 
REMARK    2  A    between atoms: N1_9  and  C8_10 
REMARK    3  A    between atoms: C11_14  and  N3_15 
REMARK    4  A    between atoms: N4_18  and  C14_19 
ROOT
HETATM    1  C1  UNL     1      28.566   2.476  53.840  1.00  0.00     0.210 C 
HETATM    2  O1  UNL     1      28.185   1.275  53.578  1.00  0.00    -0.354 OA
HETATM    3  C2  UNL     1      27.813   0.087  53.320  1.00  0.00     0.094 A 
HETATM    4  C3  UNL     1      29.041  -0.429  53.246  1.00  0.00     0.039 A 
HETATM    5  C4  UNL     1      28.817  -1.878  52.923  1.00  0.00     0.003 A 
HETATM    6  C5  UNL     1      27.531  -2.506  52.748  1.00  0.00     0.002 A 
HETATM    7  C6  UNL     1      26.371  -1.702  52.889  1.00  0.00     0.032 A 
HETATM    8  C7  UNL     1      26.529  -0.366  53.184  1.00  0.00     0.062 A 
ENDROOT
BRANCH   8   9
HETATM    9  N1  UNL     1      25.557   0.636  53.387  1.00  0.00    -0.376 N 
HETATM   10  H8  UNL     1      25.160   0.909  54.305  1.00  0.00     0.160 HD
BRANCH   9  11
HETATM   11  C8  UNL     1      25.005   1.364  52.308  1.00  0.00     0.148 C 
HETATM   12  C9  UNL     1      24.772   2.808  52.538  1.00  0.00     0.019 C 
HETATM   13  C10 UNL     1      23.812   3.170  51.666  1.00  0.00     0.083 C 
HETATM   14  N2  UNL     1      23.411   2.018  50.879  1.00  0.00    -0.377 N 
HETATM   15  C11 UNL     1      23.626   0.941  51.886  1.00  0.00     0.205 C 
HETATM   16  H12 UNL     1      23.071   2.011  49.888  1.00  0.00     0.161 HD
BRANCH  15  17
HETATM   17  N3  UNL     1      22.582   1.114  52.819  1.00  0.00    -0.387 N 
HETATM   18  C12 UNL     1      22.386   0.190  53.858  1.00  0.00     0.139 C 
HETATM   19  C13 UNL     1      20.960   0.405  54.420  1.00  0.00     0.144 C 
HETATM   20  N4  UNL     1      20.102  -0.027  53.319  1.00  0.00    -0.356 N 
HETATM   21  C15 UNL     1      20.291   0.602  52.029  1.00  0.00     0.144 C 
HETATM   22  C16 UNL     1      21.402   1.612  52.167  1.00  0.00     0.139 C 
BRANCH  20  23
HETATM   23  C14 UNL     1      19.050  -0.959  53.105  1.00  0.00     0.350 C 
HETATM   24  O2  UNL     1      17.891  -1.186  53.576  1.00  0.00    -0.284 OA
ENDBRANCH  20  23
ENDBRANCH  15  17
ENDBRANCH   9  11
ENDBRANCH   8   9
TORSDOF 4
ENDMDL
MODEL 7
REMARK VINA RESULT:      -6.7      2.256      4.223
REMARK  4 active torsions:
REMARK  status: ('A' for Active; 'I' for Inactive)
REMARK    1  A    between atoms: C7_8  and  N1_9 
REMARK    2  A    between atoms: N1_9  and  C8_10 
REMARK    3  A    between atoms: C11_14  and  N3_15 
REMARK    4  A    between atoms: N4_18  and  C14_19 
ROOT
HETATM    1  C1  UNL     1      22.501   5.073  51.914  1.00  0.00     0.210 C 
HETATM    2  O1  UNL     1      22.285   4.080  51.124  1.00  0.00    -0.354 OA
HETATM    3  C2  UNL     1      22.073   3.102  50.340  1.00  0.00     0.094 A 
HETATM    4  C3  UNL     1      22.501   3.715  49.235  1.00  0.00     0.039 A 
HETATM    5  C4  UNL     1      22.315   2.697  48.148  1.00  0.00     0.003 A 
HETATM    6  C5  UNL     1      21.787   1.367  48.331  1.00  0.00     0.002 A 
HETATM    7  C6  UNL     1      21.407   0.973  49.639  1.00  0.00     0.032 A 
HETATM    8  C7  UNL     1      21.559   1.877  50.668  1.00  0.00     0.062 A 
ENDROOT
BRANCH   8   9
HETATM    9  N1  UNL     1      21.275   1.737  52.043  1.00  0.00    -0.376 N 
HETATM   10  H8  UNL     1      21.067   2.518  52.693  1.00  0.00     0.160 HD
BRANCH   9  11
HETATM   11  C8  UNL     1      21.274   0.473  52.676  1.00  0.00     0.148 C 
HETATM   12  C9  UNL     1      20.900   0.455  54.108  1.00  0.00     0.019 C 
HETATM   13  C10 UNL     1      21.453  -0.662  54.620  1.00  0.00     0.083 C 
HETATM   14  N2  UNL     1      22.173  -1.369  53.576  1.00  0.00    -0.377 N 
HETATM   15  C11 UNL     1      22.611  -0.210  52.747  1.00  0.00     0.205 C 
HETATM   16  H12 UNL     1      22.313  -2.403  53.489  1.00  0.00     0.161 HD
BRANCH  15  17
HETATM   17  N3  UNL     1      23.618   0.413  53.512  1.00  0.00    -0.387 N 
HETATM   18  C12 UNL     1      24.284   1.552  53.033  1.00  0.00     0.139 C 
HETATM   19  C13 UNL     1      25.577   1.730  53.863  1.00  0.00     0.144 C 
HETATM   20  N4  UNL     1      26.388   0.582  53.464  1.00  0.00    -0.356 N 
HETATM   21  C15 UNL     1      25.809  -0.737  53.613  1.00  0.00     0.144 C 
HETATM   22  C16 UNL     1      24.423  -0.571  54.182  1.00  0.00     0.139 C 
BRANCH  20  23
HETATM   23  C14 UNL     1      27.680   0.340  52.924  1.00  0.00     0.350 C 
HETATM   24  O2  UNL     1      28.888   0.563  53.252  1.00  0.00    -0.284 OA
ENDBRANCH  20  23
ENDBRANCH  15  17
ENDBRANCH   9  11
ENDBRANCH   8   9
TORSDOF 4
ENDMDL
MODEL 8
REMARK VINA RESULT:      -6.7      1.091      2.044
REMARK  4 active torsions:
REMARK  status: ('A' for Active; 'I' for Inactive)
REMARK    1  A    between atoms: C7_8  and  N1_9 
REMARK    2  A    between atoms: N1_9  and  C8_10 
REMARK    3  A    between atoms: C11_14  and  N3_15 
REMARK    4  A    between atoms: N4_18  and  C14_19 
ROOT
HETATM    1  C1  UNL     1      19.413   1.435  49.604  1.00  0.00     0.210 C 
HETATM    2  O1  UNL     1      19.900   0.902  50.669  1.00  0.00    -0.354 OA
HETATM    3  C2  UNL     1      20.376   0.374  51.723  1.00  0.00     0.094 A 
HETATM    4  C3  UNL     1      19.200   0.031  52.250  1.00  0.00     0.039 A 
HETATM    5  C4  UNL     1      19.551  -0.620  53.556  1.00  0.00     0.003 A 
HETATM    6  C5  UNL     1      20.889  -0.803  54.064  1.00  0.00     0.002 A 
HETATM    7  C6  UNL     1      21.972  -0.335  53.278  1.00  0.00     0.032 A 
HETATM    8  C7  UNL     1      21.695   0.271  52.072  1.00  0.00     0.062 A 
ENDROOT
BRANCH   8   9
HETATM    9  N1  UNL     1      22.574   0.806  51.106  1.00  0.00    -0.376 N 
HETATM   10  H8  UNL     1      22.928   0.300  50.273  1.00  0.00     0.160 HD
BRANCH   9  11
HETATM   11  C8  UNL     1      23.083   2.120  51.214  1.00  0.00     0.148 C 
HETATM   12  C9  UNL     1      23.691   2.692  49.991  1.00  0.00     0.019 C 
HETATM   13  C10 UNL     1      24.540   3.649  50.415  1.00  0.00     0.083 C 
HETATM   14  N2  UNL     1      24.507   3.720  51.864  1.00  0.00    -0.377 N 
HETATM   15  C11 UNL     1      24.223   2.291  52.178  1.00  0.00     0.205 C 
HETATM   16  H12 UNL     1      24.653   4.567  52.463  1.00  0.00     0.161 HD
BRANCH  15  17
HETATM   17  N3  UNL     1      25.427   1.617  51.883  1.00  0.00    -0.387 N 
HETATM   18  C12 UNL     1      25.587   0.259  52.198  1.00  0.00     0.139 C 
HETATM   19  C13 UNL     1      27.099  -0.063  52.159  1.00  0.00     0.144 C 
HETATM   20  N4  UNL     1      27.628   0.688  53.296  1.00  0.00    -0.356 N 
HETATM   21  C15 UNL     1      27.363   2.111  53.346  1.00  0.00     0.144 C 
HETATM   22  C16 UNL     1      26.555   2.473  52.126  1.00  0.00     0.139 C 
BRANCH  20  23
HETATM   23  C14 UNL     1      28.383   0.429  54.471  1.00  0.00     0.350 C 
HETATM   24  O2  UNL     1      28.916   1.102  55.409  1.00  0.00    -0.284 OA
ENDBRANCH  20  23
ENDBRANCH  15  17
ENDBRANCH   9  11
ENDBRANCH   8   9
TORSDOF 4
ENDMDL
MODEL 9
REMARK VINA RESULT:      -6.7      7.699      9.943
REMARK  4 active torsions:
REMARK  status: ('A' for Active; 'I' for Inactive)
REMARK    1  A    between atoms: C7_8  and  N1_9 
REMARK    2  A    between atoms: N1_9  and  C8_10 
REMARK    3  A    between atoms: C11_14  and  N3_15 
REMARK    4  A    between atoms: N4_18  and  C14_19 
ROOT
HETATM    1  C1  UNL     1      26.006   9.238  47.627  1.00  0.00     0.210 C 
HETATM    2  O1  UNL     1      26.336   8.038  47.953  1.00  0.00    -0.354 OA
HETATM    3  C2  UNL     1      26.658   6.851  48.276  1.00  0.00     0.094 A 
HETATM    4  C3  UNL     1      25.434   6.473  48.649  1.00  0.00     0.039 A 
HETATM    5  C4  UNL     1      25.604   5.050  49.096  1.00  0.00     0.003 A 
HETATM    6  C5  UNL     1      26.845   4.315  49.092  1.00  0.00     0.002 A 
HETATM    7  C6  UNL     1      28.012   4.978  48.631  1.00  0.00     0.032 A 
HETATM    8  C7  UNL     1      27.903   6.286  48.213  1.00  0.00     0.062 A 
ENDROOT
BRANCH   8   9
HETATM    9  N1  UNL     1      28.889   7.158  47.705  1.00  0.00    -0.376 N 
HETATM   10  H8  UNL     1      29.161   7.239  46.708  1.00  0.00     0.160 HD
BRANCH   9  11
HETATM   11  C8  UNL     1      29.634   8.009  48.552  1.00  0.00     0.148 C 
HETATM   12  C9  UNL     1      30.082   9.293  47.966  1.00  0.00     0.019 C 
HETATM   13  C10 UNL     1      31.153   9.674  48.689  1.00  0.00     0.083 C 
HETATM   14  N2  UNL     1      31.419   8.688  49.720  1.00  0.00    -0.377 N 
HETATM   15  C11 UNL     1      30.953   7.459  49.016  1.00  0.00     0.205 C 
HETATM   16  H12 UNL     1      31.828   8.855  50.670  1.00  0.00     0.161 HD
BRANCH  15  17
HETATM   17  N3  UNL     1      31.937   7.219  48.034  1.00  0.00    -0.387 N 
HETATM   18  C12 UNL     1      31.795   6.165  47.118  1.00  0.00     0.139 C 
HETATM   19  C13 UNL     1      33.181   5.898  46.484  1.00  0.00     0.144 C 
HETATM   20  N4  UNL     1      33.961   5.370  47.602  1.00  0.00    -0.356 N 
HETATM   21  C15 UNL     1      34.044   6.172  48.805  1.00  0.00     0.144 C 
HETATM   22  C16 UNL     1      33.251   7.433  48.574  1.00  0.00     0.139 C 
BRANCH  20  23
HETATM   23  C14 UNL     1      34.724   4.209  47.900  1.00  0.00     0.350 C 
HETATM   24  O2  UNL     1      34.533   2.954  47.962  1.00  0.00    -0.284 OA
ENDBRANCH  20  23
ENDBRANCH  15  17
ENDBRANCH   9  11
ENDBRANCH   8   9
TORSDOF 4
ENDMDL
