MODEL 1
REMARK VINA RESULT:      -8.0      0.000      0.000
REMARK  5 active torsions:
REMARK  status: ('A' for Active; 'I' for Inactive)
REMARK    1  A    between atoms: N1_1  and  C1_2 
REMARK    2  A    between atoms: C2_3  and  C3_4 
REMARK    3  A    between atoms: C3_4  and  C4_5 
REMARK    4  A    between atoms: C4_5  and  C5_6 
REMARK    5  A    between atoms: C6_8  and  C7_9 
ROOT
HETATM    1  C5  UNL     1      24.982   1.558  52.610  1.00  0.00     0.094 C 
HETATM    2  F1  UNL     1      25.676   2.481  53.329  1.00  0.00    -0.211 F 
HETATM    3  C6  UNL     1      24.311   1.886  51.543  1.00  0.00     0.038 C 
ENDROOT
BRANCH   3   4
HETATM    4  C7  UNL     1      24.293   3.264  51.092  1.00  0.00     0.011 C 
HETATM    5  C8  UNL     1      25.309   3.708  50.378  1.00  0.00    -0.043 A 
HETATM    6  C9  UNL     1      26.584   3.081  49.879  1.00  0.00     0.078 A 
HETATM    7  C16 UNL     1      25.759   4.948  49.713  1.00  0.00    -0.020 A 
HETATM    8  C10 UNL     1      26.907   4.371  49.266  1.00  0.00    -0.042 A 
HETATM    9  C11 UNL     1      27.873   4.956  48.532  1.00  0.00     0.024 A 
HETATM   10  C12 UNL     1      27.633   6.313  48.211  1.00  0.00     0.014 A 
HETATM   11  P1  UNL     1      28.454   7.744  47.274  1.00  0.00     0.005 P 
HETATM   12  C14 UNL     1      26.423   7.013  48.650  1.00  0.00     0.087 A 
HETATM   13  C13 UNL     1      26.958   8.922  47.712  1.00  0.00     0.158 A 
HETATM   14  O1  UNL     1      26.196   8.251  48.361  1.00  0.00    -0.321 OA
HETATM   15  C15 UNL     1      25.517   6.269  49.404  1.00  0.00     0.050 A 
ENDBRANCH   3   4
BRANCH   1  16
HETATM   16  C4  UNL     1      25.066   0.186  53.154  1.00  0.00     0.074 C 
BRANCH  16  17
HETATM   17  C3  UNL     1      26.042   0.110  54.336  1.00  0.00     0.044 C 
BRANCH  17  18
HETATM   18  C2  UNL     1      27.279  -0.511  53.788  1.00  0.00    -0.048 C 
HETATM   19  C1  UNL     1      28.472  -0.080  54.129  1.00  0.00     0.015 C 
HETATM   20  C18 UNL     1      29.647  -0.764  53.527  1.00  0.00     0.131 C 
HETATM   21  S1  UNL     1      28.878  -2.336  53.033  1.00  0.00    -0.159 SA
HETATM   22  C17 UNL     1      27.183  -1.657  52.820  1.00  0.00     0.110 C 
BRANCH  19  23
HETATM   23  N1  UNL     1      28.452   1.013  55.055  1.00  0.00    -0.402 N 
HETATM   24  H1  UNL     1      29.293   1.551  54.693  1.00  0.00     0.156 HD
HETATM   25  H2  UNL     1      27.848   1.304  55.880  1.00  0.00     0.156 HD
ENDBRANCH  19  23
ENDBRANCH  17  18
ENDBRANCH  16  17
ENDBRANCH   1  16
TORSDOF 5
ENDMDL
MODEL 2
REMARK VINA RESULT:      -7.9      5.123      8.235
REMARK  5 active torsions:
REMARK  status: ('A' for Active; 'I' for Inactive)
REMARK    1  A    between atoms: N1_1  and  C1_2 
REMARK    2  A    between atoms: C2_3  and  C3_4 
REMARK    3  A    between atoms: C3_4  and  C4_5 
REMARK    4  A    between atoms: C4_5  and  C5_6 
REMARK    5  A    between atoms: C6_8  and  C7_9 
ROOT
HETATM    1  C5  UNL     1      26.971   4.792  48.920  1.00  0.00     0.094 C 
HETATM    2  F1  UNL     1      25.982   5.648  48.547  1.00  0.00    -0.211 F 
HETATM    3  C6  UNL     1      26.732   3.757  49.674  1.00  0.00     0.038 C 
ENDROOT
BRANCH   3   4
HETATM    4  C7  UNL     1      25.383   3.492  50.136  1.00  0.00     0.011 C 
HETATM    5  C8  UNL     1      25.192   2.513  50.998  1.00  0.00    -0.043 A 
HETATM    6  C9  UNL     1      26.109   1.526  51.673  1.00  0.00     0.078 A 
HETATM    7  C16 UNL     1      24.090   1.867  51.741  1.00  0.00    -0.020 A 
HETATM    8  C10 UNL     1      24.927   0.981  52.345  1.00  0.00    -0.042 A 
HETATM    9  C11 UNL     1      24.588   0.017  53.222  1.00  0.00     0.024 A 
HETATM   10  C12 UNL     1      23.207  -0.049  53.523  1.00  0.00     0.014 A 
HETATM   11  P1  UNL     1      22.007  -1.058  54.591  1.00  0.00     0.005 P 
HETATM   12  C14 UNL     1      22.234   0.865  52.918  1.00  0.00     0.087 A 
HETATM   13  C13 UNL     1      20.500   0.009  53.952  1.00  0.00     0.158 A 
HETATM   14  O1  UNL     1      20.973   0.812  53.187  1.00  0.00    -0.321 OA
HETATM   15  C15 UNL     1      22.744   1.809  52.028  1.00  0.00     0.050 A 
ENDBRANCH   3   4
BRANCH   1  16
HETATM   16  C4  UNL     1      28.306   5.152  48.396  1.00  0.00     0.074 C 
BRANCH  16  17
HETATM   17  C3  UNL     1      28.424   6.662  48.151  1.00  0.00     0.044 C 
BRANCH  17  18
HETATM   18  C2  UNL     1      29.876   6.970  48.265  1.00  0.00    -0.048 C 
HETATM   19  C1  UNL     1      30.306   8.003  48.951  1.00  0.00     0.015 C 
HETATM   20  C18 UNL     1      31.775   8.228  49.006  1.00  0.00     0.131 C 
HETATM   21  S1  UNL     1      32.365   6.562  48.574  1.00  0.00    -0.159 SA
HETATM   22  C17 UNL     1      30.889   6.090  47.586  1.00  0.00     0.110 C 
BRANCH  19  23
HETATM   23  N1  UNL     1      29.262   8.775  49.557  1.00  0.00    -0.402 N 
HETATM   24  H1  UNL     1      29.825   9.235  50.330  1.00  0.00     0.156 HD
HETATM   25  H2  UNL     1      28.224   8.922  49.384  1.00  0.00     0.156 HD
ENDBRANCH  19  23
ENDBRANCH  17  18
ENDBRANCH  16  17
ENDBRANCH   1  16
TORSDOF 5
ENDMDL
MODEL 3
REMARK VINA RESULT:      -7.8      4.773      7.626
REMARK  5 active torsions:
REMARK  status: ('A' for Active; 'I' for Inactive)
REMARK    1  A    between atoms: N1_1  and  C1_2 
REMARK    2  A    between atoms: C2_3  and  C3_4 
REMARK    3  A    between atoms: C3_4  and  C4_5 
REMARK    4  A    between atoms: C4_5  and  C5_6 
REMARK    5  A    between atoms: C6_8  and  C7_9 
ROOT
HETATM    1  C5  UNL     1      21.731   2.334  51.401  1.00  0.00     0.094 C 
HETATM    2  F1  UNL     1      22.322   1.959  50.234  1.00  0.00    -0.211 F 
HETATM    3  C6  UNL     1      21.960   1.703  52.517  1.00  0.00     0.038 C 
ENDROOT
BRANCH   3   4
HETATM    4  C7  UNL     1      22.866   0.571  52.538  1.00  0.00     0.011 C 
HETATM    5  C8  UNL     1      24.143   0.790  52.782  1.00  0.00    -0.043 A 
HETATM    6  C9  UNL     1      24.952   2.028  53.065  1.00  0.00     0.078 A 
HETATM    7  C16 UNL     1      25.408   0.037  52.910  1.00  0.00    -0.020 A 
HETATM    8  C10 UNL     1      26.129   1.162  53.165  1.00  0.00    -0.042 A 
HETATM    9  C11 UNL     1      27.453   1.238  53.401  1.00  0.00     0.024 A 
HETATM   10  C12 UNL     1      28.131  -0.004  53.372  1.00  0.00     0.014 A 
HETATM   11  P1  UNL     1      29.882  -0.701  53.591  1.00  0.00     0.005 P 
HETATM   12  C14 UNL     1      27.434  -1.265  53.104  1.00  0.00     0.087 A 
HETATM   13  C13 UNL     1      29.229  -2.514  53.266  1.00  0.00     0.158 A 
HETATM   14  O1  UNL     1      28.044  -2.402  53.076  1.00  0.00    -0.321 OA
HETATM   15  C15 UNL     1      26.061  -1.176  52.880  1.00  0.00     0.050 A 
ENDBRANCH   3   4
BRANCH   1  16
HETATM   16  C4  UNL     1      20.827   3.497  51.269  1.00  0.00     0.074 C 
BRANCH  16  17
HETATM   17  C3  UNL     1      21.421   4.747  51.932  1.00  0.00     0.044 C 
BRANCH  17  18
HETATM   18  C2  UNL     1      22.492   5.213  51.009  1.00  0.00    -0.048 C 
HETATM   19  C1  UNL     1      23.679   5.558  51.454  1.00  0.00     0.015 C 
HETATM   20  C18 UNL     1      24.682   6.011  50.454  1.00  0.00     0.131 C 
HETATM   21  S1  UNL     1      23.971   5.287  48.944  1.00  0.00    -0.159 SA
HETATM   22  C17 UNL     1      22.230   5.300  49.531  1.00  0.00     0.110 C 
BRANCH  19  23
HETATM   23  N1  UNL     1      23.825   5.439  52.874  1.00  0.00    -0.402 N 
HETATM   24  H1  UNL     1      23.153   6.204  53.173  1.00  0.00     0.156 HD
HETATM   25  H2  UNL     1      24.389   4.826  53.534  1.00  0.00     0.156 HD
ENDBRANCH  19  23
ENDBRANCH  17  18
ENDBRANCH  16  17
ENDBRANCH   1  16
TORSDOF 5
ENDMDL
MODEL 4
REMARK VINA RESULT:      -7.7      6.669      9.088
REMARK  5 active torsions:
REMARK  status: ('A' for Active; 'I' for Inactive)
REMARK    1  A    between atoms: N1_1  and  C1_2 
REMARK    2  A    between atoms: C2_3  and  C3_4 
REMARK    3  A    between atoms: C3_4  and  C4_5 
REMARK    4  A    between atoms: C4_5  and  C5_6 
REMARK    5  A    between atoms: C6_8  and  C7_9 
ROOT
HETATM    1  C5  UNL     1      20.439   0.172  51.593  1.00  0.00     0.094 C 
HETATM    2  F1  UNL     1      21.233  -0.098  50.521  1.00  0.00    -0.211 F 
HETATM    3  C6  UNL     1      20.821  -0.092  52.810  1.00  0.00     0.038 C 
ENDROOT
BRANCH   3   4
HETATM    4  C7  UNL     1      22.121  -0.687  53.051  1.00  0.00     0.011 C 
HETATM    5  C8  UNL     1      23.171   0.106  53.142  1.00  0.00    -0.043 A 
HETATM    6  C9  UNL     1      23.360   1.597  53.051  1.00  0.00     0.078 A 
HETATM    7  C16 UNL     1      24.629   0.020  53.366  1.00  0.00    -0.020 A 
HETATM    8  C10 UNL     1      24.789   1.369  53.282  1.00  0.00    -0.042 A 
HETATM    9  C11 UNL     1      25.941   2.055  53.399  1.00  0.00     0.024 A 
HETATM   10  C12 UNL     1      27.085   1.255  53.633  1.00  0.00     0.014 A 
HETATM   11  P1  UNL     1      28.954   1.447  53.897  1.00  0.00     0.005 P 
HETATM   12  C14 UNL     1      27.005  -0.204  53.738  1.00  0.00     0.087 A 
HETATM   13  C13 UNL     1      29.153  -0.488  54.081  1.00  0.00     0.158 A 
HETATM   14  O1  UNL     1      28.043  -0.941  53.952  1.00  0.00    -0.321 OA
HETATM   15  C15 UNL     1      25.738  -0.766  53.594  1.00  0.00     0.050 A 
ENDBRANCH   3   4
BRANCH   1  16
HETATM   16  C4  UNL     1      19.137   0.777  51.239  1.00  0.00     0.074 C 
BRANCH  16  17
HETATM   17  C3  UNL     1      18.010  -0.265  51.259  1.00  0.00     0.044 C 
BRANCH  17  18
HETATM   18  C2  UNL     1      16.775   0.495  51.593  1.00  0.00    -0.048 C 
HETATM   19  C1  UNL     1      15.934   0.068  52.507  1.00  0.00     0.015 C 
HETATM   20  C18 UNL     1      14.727   0.897  52.769  1.00  0.00     0.131 C 
HETATM   21  S1  UNL     1      15.289   2.493  52.100  1.00  0.00    -0.159 SA
HETATM   22  C17 UNL     1      16.464   1.781  50.880  1.00  0.00     0.110 C 
BRANCH  19  23
HETATM   23  N1  UNL     1      16.322  -1.164  53.126  1.00  0.00    -0.402 N 
HETATM   24  H1  UNL     1      16.054  -0.937  54.127  1.00  0.00     0.156 HD
HETATM   25  H2  UNL     1      16.750  -2.080  52.799  1.00  0.00     0.156 HD
ENDBRANCH  19  23
ENDBRANCH  17  18
ENDBRANCH  16  17
ENDBRANCH   1  16
TORSDOF 5
ENDMDL
MODEL 5
REMARK VINA RESULT:      -7.7      6.542      8.631
REMARK  5 active torsions:
REMARK  status: ('A' for Active; 'I' for Inactive)
REMARK    1  A    between atoms: N1_1  and  C1_2 
REMARK    2  A    between atoms: C2_3  and  C3_4 
REMARK    3  A    between atoms: C3_4  and  C4_5 
REMARK    4  A    between atoms: C4_5  and  C5_6 
REMARK    5  A    between atoms: C6_8  and  C7_9 
ROOT
HETATM    1  C5  UNL     1      23.557  -0.977  54.718  1.00  0.00     0.094 C 
HETATM    2  F1  UNL     1      23.210  -1.830  55.720  1.00  0.00    -0.211 F 
HETATM    3  C6  UNL     1      22.669  -0.479  53.906  1.00  0.00     0.038 C 
ENDROOT
BRANCH   3   4
HETATM    4  C7  UNL     1      21.270  -0.828  54.056  1.00  0.00     0.011 C 
HETATM    5  C8  UNL     1      20.427  -0.484  53.102  1.00  0.00    -0.043 A 
HETATM    6  C9  UNL     1      20.579   0.241  51.791  1.00  0.00     0.078 A 
HETATM    7  C16 UNL     1      18.990  -0.591  52.779  1.00  0.00    -0.020 A 
HETATM    8  C10 UNL     1      19.138   0.065  51.596  1.00  0.00    -0.042 A 
HETATM    9  C11 UNL     1      18.172   0.351  50.704  1.00  0.00     0.024 A 
HETATM   10  C12 UNL     1      16.878  -0.093  51.069  1.00  0.00     0.014 A 
HETATM   11  P1  UNL     1      15.104  -0.082  50.400  1.00  0.00     0.005 P 
HETATM   12  C14 UNL     1      16.627  -0.807  52.324  1.00  0.00     0.087 A 
HETATM   13  C13 UNL     1      14.474  -1.042  51.981  1.00  0.00     0.158 A 
HETATM   14  O1  UNL     1      15.451  -1.216  52.665  1.00  0.00    -0.321 OA
HETATM   15  C15 UNL     1      17.734  -1.027  53.142  1.00  0.00     0.050 A 
ENDBRANCH   3   4
BRANCH   1  16
HETATM   16  C4  UNL     1      25.005  -0.686  54.653  1.00  0.00     0.074 C 
BRANCH  16  17
HETATM   17  C3  UNL     1      25.356   0.141  53.409  1.00  0.00     0.044 C 
BRANCH  17  18
HETATM   18  C2  UNL     1      26.843   0.228  53.398  1.00  0.00    -0.048 C 
HETATM   19  C1  UNL     1      27.466   1.352  53.669  1.00  0.00     0.015 C 
HETATM   20  C18 UNL     1      28.953   1.338  53.632  1.00  0.00     0.131 C 
HETATM   21  S1  UNL     1      29.256  -0.446  53.819  1.00  0.00    -0.159 SA
HETATM   22  C17 UNL     1      27.667  -0.986  53.072  1.00  0.00     0.110 C 
BRANCH  19  23
HETATM   23  N1  UNL     1      26.590   2.446  53.967  1.00  0.00    -0.402 N 
HETATM   24  H1  UNL     1      25.889   1.933  54.577  1.00  0.00     0.156 HD
HETATM   25  H2  UNL     1      26.548   3.478  53.718  1.00  0.00     0.156 HD
ENDBRANCH  19  23
ENDBRANCH  17  18
ENDBRANCH  16  17
ENDBRANCH   1  16
TORSDOF 5
ENDMDL
MODEL 6
REMARK VINA RESULT:      -7.6      5.471      7.727
REMARK  5 active torsions:
REMARK  status: ('A' for Active; 'I' for Inactive)
REMARK    1  A    between atoms: N1_1  and  C1_2 
REMARK    2  A    between atoms: C2_3  and  C3_4 
REMARK    3  A    between atoms: C3_4  and  C4_5 
REMARK    4  A    between atoms: C4_5  and  C5_6 
REMARK    5  A    between atoms: C6_8  and  C7_9 
ROOT
HETATM    1  C5  UNL     1      25.279   2.262  52.054  1.00  0.00     0.094 C 
HETATM    2  F1  UNL     1      25.019   1.996  50.745  1.00  0.00    -0.211 F 
HETATM    3  C6  UNL     1      24.324   2.371  52.932  1.00  0.00     0.038 C 
ENDROOT
BRANCH   3   4
HETATM    4  C7  UNL     1      22.941   2.205  52.526  1.00  0.00     0.011 C 
HETATM    5  C8  UNL     1      22.281   1.146  52.950  1.00  0.00    -0.043 A 
HETATM    6  C9  UNL     1      22.644  -0.026  53.824  1.00  0.00     0.078 A 
HETATM    7  C16 UNL     1      20.939   0.538  52.839  1.00  0.00    -0.020 A 
HETATM    8  C10 UNL     1      21.277  -0.516  53.629  1.00  0.00    -0.042 A 
HETATM    9  C11 UNL     1      20.486  -1.545  53.988  1.00  0.00     0.024 A 
HETATM   10  C12 UNL     1      19.171  -1.489  53.467  1.00  0.00     0.014 A 
HETATM   11  P1  UNL     1      17.558  -2.487  53.503  1.00  0.00     0.005 P 
HETATM   12  C14 UNL     1      18.721  -0.390  52.607  1.00  0.00     0.087 A 
HETATM   13  C13 UNL     1      16.687  -1.171  52.351  1.00  0.00     0.158 A 
HETATM   14  O1  UNL     1      17.524  -0.331  52.129  1.00  0.00    -0.321 OA
HETATM   15  C15 UNL     1      19.660   0.600  52.328  1.00  0.00     0.050 A 
ENDBRANCH   3   4
BRANCH   1  16
HETATM   16  C4  UNL     1      26.717   2.412  52.362  1.00  0.00     0.074 C 
BRANCH  16  17
HETATM   17  C3  UNL     1      27.058   1.841  53.745  1.00  0.00     0.044 C 
BRANCH  17  18
HETATM   18  C2  UNL     1      28.035   0.747  53.492  1.00  0.00    -0.048 C 
HETATM   19  C1  UNL     1      29.289   0.847  53.866  1.00  0.00     0.015 C 
HETATM   20  C18 UNL     1      30.189  -0.299  53.567  1.00  0.00     0.131 C 
HETATM   21  S1  UNL     1      28.955  -1.617  53.342  1.00  0.00    -0.159 SA
HETATM   22  C17 UNL     1      27.596  -0.510  52.792  1.00  0.00     0.110 C 
BRANCH  19  23
HETATM   23  N1  UNL     1      29.604   2.081  54.523  1.00  0.00    -0.402 N 
HETATM   24  H1  UNL     1      29.215   2.755  53.800  1.00  0.00     0.156 HD
HETATM   25  H2  UNL     1      30.072   2.362  55.434  1.00  0.00     0.156 HD
ENDBRANCH  19  23
ENDBRANCH  17  18
ENDBRANCH  16  17
ENDBRANCH   1  16
TORSDOF 5
ENDMDL
MODEL 7
REMARK VINA RESULT:      -7.6      6.405      8.553
REMARK  5 active torsions:
REMARK  status: ('A' for Active; 'I' for Inactive)
REMARK    1  A    between atoms: N1_1  and  C1_2 
REMARK    2  A    between atoms: C2_3  and  C3_4 
REMARK    3  A    between atoms: C3_4  and  C4_5 
REMARK    4  A    between atoms: C4_5  and  C5_6 
REMARK    5  A    between atoms: C6_8  and  C7_9 
ROOT
HETATM    1  C5  UNL     1      20.553   1.158  51.117  1.00  0.00     0.094 C 
HETATM    2  F1  UNL     1      21.409   1.162  50.060  1.00  0.00    -0.211 F 
HETATM    3  C6  UNL     1      20.889   1.657  52.272  1.00  0.00     0.038 C 
ENDROOT
BRANCH   3   4
HETATM    4  C7  UNL     1      22.206   2.237  52.457  1.00  0.00     0.011 C 
HETATM    5  C8  UNL     1      23.190   1.455  52.856  1.00  0.00    -0.043 A 
HETATM    6  C9  UNL     1      23.285  -0.010  53.192  1.00  0.00     0.078 A 
HETATM    7  C16 UNL     1      24.629   1.535  53.176  1.00  0.00    -0.020 A 
HETATM    8  C10 UNL     1      24.704   0.210  53.477  1.00  0.00    -0.042 A 
HETATM    9  C11 UNL     1      25.797  -0.467  53.878  1.00  0.00     0.024 A 
HETATM   10  C12 UNL     1      26.972   0.315  53.985  1.00  0.00     0.014 A 
HETATM   11  P1  UNL     1      28.799   0.120  54.455  1.00  0.00     0.005 P 
HETATM   12  C14 UNL     1      26.982   1.748  53.682  1.00  0.00     0.087 A 
HETATM   13  C13 UNL     1      29.113   2.020  54.122  1.00  0.00     0.158 A 
HETATM   14  O1  UNL     1      28.049   2.469  53.777  1.00  0.00    -0.321 OA
HETATM   15  C15 UNL     1      25.769   2.303  53.279  1.00  0.00     0.050 A 
ENDBRANCH   3   4
BRANCH   1  16
HETATM   16  C4  UNL     1      19.240   0.545  50.823  1.00  0.00     0.074 C 
BRANCH  16  17
HETATM   17  C3  UNL     1      18.770  -0.355  51.973  1.00  0.00     0.044 C 
BRANCH  17  18
HETATM   18  C2  UNL     1      17.337  -0.645  51.690  1.00  0.00    -0.048 C 
HETATM   19  C1  UNL     1      16.574  -1.254  52.568  1.00  0.00     0.015 C 
HETATM   20  C18 UNL     1      15.156  -1.499  52.192  1.00  0.00     0.131 C 
HETATM   21  S1  UNL     1      14.962  -0.263  50.871  1.00  0.00    -0.159 SA
HETATM   22  C17 UNL     1      16.732  -0.239  50.375  1.00  0.00     0.110 C 
BRANCH  19  23
HETATM   23  N1  UNL     1      17.247  -1.597  53.786  1.00  0.00    -0.402 N 
HETATM   24  H1  UNL     1      16.529  -1.233  54.478  1.00  0.00     0.156 HD
HETATM   25  H2  UNL     1      18.167  -2.062  54.044  1.00  0.00     0.156 HD
ENDBRANCH  19  23
ENDBRANCH  17  18
ENDBRANCH  16  17
ENDBRANCH   1  16
TORSDOF 5
ENDMDL
MODEL 8
REMARK VINA RESULT:      -7.6      5.473      7.903
REMARK  5 active torsions:
REMARK  status: ('A' for Active; 'I' for Inactive)
REMARK    1  A    between atoms: N1_1  and  C1_2 
REMARK    2  A    between atoms: C2_3  and  C3_4 
REMARK    3  A    between atoms: C3_4  and  C4_5 
REMARK    4  A    between atoms: C4_5  and  C5_6 
REMARK    5  A    between atoms: C6_8  and  C7_9 
ROOT
HETATM    1  C5  UNL     1      20.519   0.221  51.539  1.00  0.00     0.094 C 
HETATM    2  F1  UNL     1      21.299  -0.058  50.459  1.00  0.00    -0.211 F 
HETATM    3  C6  UNL     1      20.906  -0.051  52.751  1.00  0.00     0.038 C 
ENDROOT
BRANCH   3   4
HETATM    4  C7  UNL     1      22.200  -0.666  52.980  1.00  0.00     0.011 C 
HETATM    5  C8  UNL     1      23.256   0.113  53.103  1.00  0.00    -0.043 A 
HETATM    6  C9  UNL     1      23.460   1.604  53.061  1.00  0.00     0.078 A 
HETATM    7  C16 UNL     1      24.711   0.006  53.332  1.00  0.00    -0.020 A 
HETATM    8  C10 UNL     1      24.885   1.354  53.293  1.00  0.00    -0.042 A 
HETATM    9  C11 UNL     1      26.043   2.025  53.438  1.00  0.00     0.024 A 
HETATM   10  C12 UNL     1      27.178   1.207  53.653  1.00  0.00     0.014 A 
HETATM   11  P1  UNL     1      29.047   1.372  53.933  1.00  0.00     0.005 P 
HETATM   12  C14 UNL     1      27.083  -0.254  53.710  1.00  0.00     0.087 A 
HETATM   13  C13 UNL     1      29.226  -0.570  54.056  1.00  0.00     0.158 A 
HETATM   14  O1  UNL     1      28.113  -1.008  53.906  1.00  0.00    -0.321 OA
HETATM   15  C15 UNL     1      25.811  -0.798  53.541  1.00  0.00     0.050 A 
ENDBRANCH   3   4
BRANCH   1  16
HETATM   16  C4  UNL     1      19.223   0.846  51.196  1.00  0.00     0.074 C 
BRANCH  16  17
HETATM   17  C3  UNL     1      19.212   2.341  51.542  1.00  0.00     0.044 C 
BRANCH  17  18
HETATM   18  C2  UNL     1      19.947   3.010  50.434  1.00  0.00    -0.048 C 
HETATM   19  C1  UNL     1      20.900   3.882  50.670  1.00  0.00     0.015 C 
HETATM   20  C18 UNL     1      21.575   4.496  49.496  1.00  0.00     0.131 C 
HETATM   21  S1  UNL     1      21.165   3.268  48.219  1.00  0.00    -0.159 SA
HETATM   22  C17 UNL     1      19.607   2.693  49.004  1.00  0.00     0.110 C 
BRANCH  19  23
HETATM   23  N1  UNL     1      21.146   4.111  52.063  1.00  0.00    -0.402 N 
HETATM   24  H1  UNL     1      20.196   4.498  52.336  1.00  0.00     0.156 HD
HETATM   25  H2  UNL     1      21.967   3.980  52.724  1.00  0.00     0.156 HD
ENDBRANCH  19  23
ENDBRANCH  17  18
ENDBRANCH  16  17
ENDBRANCH   1  16
TORSDOF 5
ENDMDL
MODEL 9
REMARK VINA RESULT:      -7.4      4.178      5.647
REMARK  5 active torsions:
REMARK  status: ('A' for Active; 'I' for Inactive)
REMARK    1  A    between atoms: N1_1  and  C1_2 
REMARK    2  A    between atoms: C2_3  and  C3_4 
REMARK    3  A    between atoms: C3_4  and  C4_5 
REMARK    4  A    between atoms: C4_5  and  C5_6 
REMARK    5  A    between atoms: C6_8  and  C7_9 
ROOT
HETATM    1  C5  UNL     1      25.231   2.999  51.058  1.00  0.00     0.094 C 
HETATM    2  F1  UNL     1      26.244   2.743  51.930  1.00  0.00    -0.211 F 
HETATM    3  C6  UNL     1      25.460   3.389  49.838  1.00  0.00     0.038 C 
ENDROOT
BRANCH   3   4
HETATM    4  C7  UNL     1      26.824   3.561  49.374  1.00  0.00     0.011 C 
HETATM    5  C8  UNL     1      27.194   4.744  48.925  1.00  0.00    -0.043 A 
HETATM    6  C9  UNL     1      26.487   6.064  48.765  1.00  0.00     0.078 A 
HETATM    7  C16 UNL     1      28.389   5.413  48.372  1.00  0.00    -0.020 A 
HETATM    8  C10 UNL     1      27.741   6.601  48.232  1.00  0.00    -0.042 A 
HETATM    9  C11 UNL     1      28.253   7.750  47.751  1.00  0.00     0.024 A 
HETATM   10  C12 UNL     1      29.611   7.674  47.360  1.00  0.00     0.014 A 
HETATM   11  P1  UNL     1      30.971   8.780  46.634  1.00  0.00     0.005 P 
HETATM   12  C14 UNL     1      30.386   6.435  47.476  1.00  0.00     0.087 A 
HETATM   13  C13 UNL     1      32.237   7.292  46.671  1.00  0.00     0.158 A 
HETATM   14  O1  UNL     1      31.625   6.357  47.122  1.00  0.00    -0.321 OA
HETATM   15  C15 UNL     1      29.711   5.331  47.994  1.00  0.00     0.050 A 
ENDBRANCH   3   4
BRANCH   1  16
HETATM   16  C4  UNL     1      23.883   2.793  51.630  1.00  0.00     0.074 C 
BRANCH  16  17
HETATM   17  C3  UNL     1      23.510   3.916  52.607  1.00  0.00     0.044 C 
BRANCH  17  18
HETATM   18  C2  UNL     1      22.601   4.817  51.845  1.00  0.00    -0.048 C 
HETATM   19  C1  UNL     1      22.953   6.043  51.534  1.00  0.00     0.015 C 
HETATM   20  C18 UNL     1      21.975   6.865  50.772  1.00  0.00     0.131 C 
HETATM   21  S1  UNL     1      20.932   5.548  50.074  1.00  0.00    -0.159 SA
HETATM   22  C17 UNL     1      21.245   4.330  51.414  1.00  0.00     0.110 C 
BRANCH  19  23
HETATM   23  N1  UNL     1      24.261   6.406  51.990  1.00  0.00    -0.402 N 
HETATM   24  H1  UNL     1      24.282   5.847  52.892  1.00  0.00     0.156 HD
HETATM   25  H2  UNL     1      25.048   7.024  51.634  1.00  0.00     0.156 HD
ENDBRANCH  19  23
ENDBRANCH  17  18
ENDBRANCH  16  17
ENDBRANCH   1  16
TORSDOF 5
ENDMDL
