MODEL 1
REMARK VINA RESULT:      -9.4      0.000      0.000
REMARK  0 active torsions:
REMARK  status: ('A' for Active; 'I' for Inactive)
ROOT
HETATM    1  C1  UNL     1      23.508   2.905  49.556  1.00  0.00     0.051 C 
HETATM    2  C2  UNL     1      24.178   4.019  50.319  1.00  0.00    -0.028 C 
HETATM    3  C3  UNL     1      23.529   5.043  50.951  1.00  0.00     0.058 C 
HETATM    4  N1  UNL     1      22.734   5.198  52.161  1.00  0.00    -0.374 N 
HETATM    5  C4  UNL     1      23.044   3.869  52.640  1.00  0.00     0.064 A 
HETATM    6  C5  UNL     1      24.286   4.027  53.201  1.00  0.00     0.039 A 
HETATM    7  C6  UNL     1      24.017   2.735  53.146  1.00  0.00     0.077 A 
HETATM    8  C7  UNL     1      23.686   1.452  53.062  1.00  0.00     0.044 A 
HETATM    9  C8  UNL     1      22.436   1.534  52.502  1.00  0.00    -0.012 A 
HETATM   10  C9  UNL     1      22.069   0.219  52.393  1.00  0.00     0.031 A 
HETATM   11  C10 UNL     1      23.120  -0.514  52.887  1.00  0.00     0.110 A 
HETATM   12  N2  UNL     1      24.135   0.242  53.303  1.00  0.00    -0.253 N 
HETATM   13  S1  UNL     1      25.749   0.225  53.903  1.00  0.00     0.242 S 
HETATM   14  O1  UNL     1      25.891   1.010  55.152  1.00  0.00    -0.205 OA
HETATM   15  O2  UNL     1      26.263  -1.179  54.043  1.00  0.00    -0.205 OA
HETATM   16  C11 UNL     1      26.798   0.950  52.615  1.00  0.00     0.159 C 
HETATM   17  C12 UNL     1      27.156   1.737  51.564  1.00  0.00     0.039 C 
HETATM   18  C13 UNL     1      26.485   2.761  50.707  1.00  0.00    -0.012 C 
HETATM   19  C14 UNL     1      25.597   3.621  50.130  1.00  0.00    -0.049 C 
HETATM   20  C15 UNL     1      26.326   4.290  49.046  1.00  0.00     0.085 C 
HETATM   21  C16 UNL     1      26.522   5.742  49.199  1.00  0.00     0.093 C 
HETATM   22  N3  UNL     1      25.828   6.836  49.271  1.00  0.00    -0.275 NA
HETATM   23  C17 UNL     1      24.471   7.148  49.655  1.00  0.00     0.140 C 
HETATM   24  C18 UNL     1      23.591   6.398  50.351  1.00  0.00     0.088 C 
HETATM   25  C19 UNL     1      22.335   7.089  50.612  1.00  0.00     0.103 C 
HETATM   26  N4  UNL     1      21.320   7.635  50.803  1.00  0.00    -0.191 NA
HETATM   27  C20 UNL     1      22.186   2.867  52.310  1.00  0.00     0.018 A 
HETATM   28  H4  UNL     1      22.264   6.105  52.269  1.00  0.00     0.161 HD
ENDROOT
TORSDOF 0
ENDMDL
MODEL 2
REMARK VINA RESULT:      -9.0      3.240      6.008
REMARK  0 active torsions:
REMARK  status: ('A' for Active; 'I' for Inactive)
ROOT
HETATM    1  C1  UNL     1      24.548   3.228  53.606  1.00  0.00     0.051 C 
HETATM    2  C2  UNL     1      24.564   1.944  52.817  1.00  0.00    -0.028 C 
HETATM    3  C3  UNL     1      23.668   0.920  52.958  1.00  0.00     0.058 C 
HETATM    4  N1  UNL     1      22.276   0.683  52.603  1.00  0.00    -0.374 N 
HETATM    5  C4  UNL     1      22.186   1.881  51.799  1.00  0.00     0.064 A 
HETATM    6  C5  UNL     1      22.757   1.500  50.612  1.00  0.00     0.039 A 
HETATM    7  C6  UNL     1      22.580   2.808  50.584  1.00  0.00     0.077 A 
HETATM    8  C7  UNL     1      22.374   4.119  50.620  1.00  0.00     0.044 A 
HETATM    9  C8  UNL     1      21.797   4.267  51.856  1.00  0.00    -0.012 A 
HETATM   10  C9  UNL     1      21.580   5.617  51.927  1.00  0.00     0.031 A 
HETATM   11  C10 UNL     1      22.045   6.142  50.746  1.00  0.00     0.110 A 
HETATM   12  N2  UNL     1      22.545   5.220  49.925  1.00  0.00    -0.253 N 
HETATM   13  S1  UNL     1      23.372   4.960  48.436  1.00  0.00     0.242 S 
HETATM   14  O1  UNL     1      22.667   3.990  47.566  1.00  0.00    -0.205 OA
HETATM   15  O2  UNL     1      23.657   6.259  47.738  1.00  0.00    -0.205 OA
HETATM   16  C11 UNL     1      25.014   4.315  48.850  1.00  0.00     0.159 C 
HETATM   17  C12 UNL     1      25.979   3.655  49.547  1.00  0.00     0.039 C 
HETATM   18  C13 UNL     1      26.042   2.853  50.807  1.00  0.00    -0.012 C 
HETATM   19  C14 UNL     1      25.756   2.196  51.967  1.00  0.00    -0.049 C 
HETATM   20  C15 UNL     1      27.023   1.614  52.426  1.00  0.00     0.085 C 
HETATM   21  C16 UNL     1      27.082   0.142  52.458  1.00  0.00     0.093 C 
HETATM   22  N3  UNL     1      26.519  -0.862  53.058  1.00  0.00    -0.275 NA
HETATM   23  C17 UNL     1      25.246  -1.066  53.706  1.00  0.00     0.140 C 
HETATM   24  C18 UNL     1      24.118  -0.330  53.617  1.00  0.00     0.088 C 
HETATM   25  C19 UNL     1      23.005  -0.900  54.362  1.00  0.00     0.103 C 
HETATM   26  N4  UNL     1      22.117  -1.347  54.977  1.00  0.00    -0.191 NA
HETATM   27  C20 UNL     1      21.744   3.015  52.409  1.00  0.00     0.018 A 
HETATM   28  H4  UNL     1      21.858  -0.169  52.996  1.00  0.00     0.161 HD
ENDROOT
TORSDOF 0
ENDMDL
MODEL 3
REMARK VINA RESULT:      -8.9      2.146      2.879
REMARK  0 active torsions:
REMARK  status: ('A' for Active; 'I' for Inactive)
ROOT
HETATM    1  C1  UNL     1      22.170   1.233  49.855  1.00  0.00     0.051 C 
HETATM    2  C2  UNL     1      22.152   2.693  50.229  1.00  0.00    -0.028 C 
HETATM    3  C3  UNL     1      21.225   3.289  51.038  1.00  0.00     0.058 C 
HETATM    4  N1  UNL     1      20.926   3.306  52.462  1.00  0.00    -0.374 N 
HETATM    5  C4  UNL     1      22.143   2.609  52.815  1.00  0.00     0.064 A 
HETATM    6  C5  UNL     1      23.084   3.607  52.801  1.00  0.00     0.039 A 
HETATM    7  C6  UNL     1      23.710   2.449  52.909  1.00  0.00     0.077 A 
HETATM    8  C7  UNL     1      24.277   1.253  53.016  1.00  0.00     0.044 A 
HETATM    9  C8  UNL     1      23.176   0.434  53.026  1.00  0.00    -0.012 A 
HETATM   10  C9  UNL     1      23.732  -0.813  53.127  1.00  0.00     0.031 A 
HETATM   11  C10 UNL     1      25.092  -0.626  53.163  1.00  0.00     0.110 A 
HETATM   12  N2  UNL     1      25.445   0.657  53.091  1.00  0.00    -0.253 N 
HETATM   13  S1  UNL     1      26.772   1.747  52.963  1.00  0.00     0.242 S 
HETATM   14  O1  UNL     1      26.739   2.795  54.010  1.00  0.00    -0.205 OA
HETATM   15  O2  UNL     1      28.080   1.010  52.925  1.00  0.00    -0.205 OA
HETATM   16  C11 UNL     1      26.660   2.525  51.330  1.00  0.00     0.159 C 
HETATM   17  C12 UNL     1      26.091   3.024  50.198  1.00  0.00     0.039 C 
HETATM   18  C13 UNL     1      24.703   3.169  49.664  1.00  0.00    -0.012 C 
HETATM   19  C14 UNL     1      23.352   3.148  49.480  1.00  0.00    -0.049 C 
HETATM   20  C15 UNL     1      23.111   3.759  48.167  1.00  0.00     0.085 C 
HETATM   21  C16 UNL     1      22.361   5.027  48.173  1.00  0.00     0.093 C 
HETATM   22  N3  UNL     1      21.188   5.486  48.490  1.00  0.00    -0.275 NA
HETATM   23  C17 UNL     1      20.147   5.058  49.393  1.00  0.00     0.140 C 
HETATM   24  C18 UNL     1      20.217   4.184  50.419  1.00  0.00     0.088 C 
HETATM   25  C19 UNL     1      18.965   4.068  51.155  1.00  0.00     0.103 C 
HETATM   26  N4  UNL     1      17.955   3.959  51.733  1.00  0.00    -0.191 NA
HETATM   27  C20 UNL     1      22.085   1.253  52.910  1.00  0.00     0.018 A 
HETATM   28  H4  UNL     1      20.044   3.761  52.724  1.00  0.00     0.161 HD
ENDROOT
TORSDOF 0
ENDMDL
MODEL 4
REMARK VINA RESULT:      -8.7      4.825      7.531
REMARK  0 active torsions:
REMARK  status: ('A' for Active; 'I' for Inactive)
ROOT
HETATM    1  C1  UNL     1      27.919   8.114  46.702  1.00  0.00     0.051 C 
HETATM    2  C2  UNL     1      28.468   8.014  48.102  1.00  0.00    -0.028 C 
HETATM    3  C3  UNL     1      28.871   9.073  48.869  1.00  0.00     0.058 C 
HETATM    4  N1  UNL     1      28.221  10.149  49.602  1.00  0.00    -0.374 N 
HETATM    5  C4  UNL     1      26.900   9.585  49.433  1.00  0.00     0.064 A 
HETATM    6  C5  UNL     1      26.848   8.624  50.410  1.00  0.00     0.039 A 
HETATM    7  C6  UNL     1      25.796   8.475  49.626  1.00  0.00     0.077 A 
HETATM    8  C7  UNL     1      24.761   8.378  48.800  1.00  0.00     0.044 A 
HETATM    9  C8  UNL     1      25.007   9.419  47.939  1.00  0.00    -0.012 A 
HETATM   10  C9  UNL     1      23.956   9.339  47.065  1.00  0.00     0.031 A 
HETATM   11  C10 UNL     1      23.195   8.272  47.476  1.00  0.00     0.110 A 
HETATM   12  N2  UNL     1      23.687   7.663  48.553  1.00  0.00    -0.253 N 
HETATM   13  S1  UNL     1      23.513   6.316  49.612  1.00  0.00     0.242 S 
HETATM   14  O1  UNL     1      23.459   6.725  51.035  1.00  0.00    -0.205 OA
HETATM   15  O2  UNL     1      22.346   5.458  49.214  1.00  0.00    -0.205 OA
HETATM   16  C11 UNL     1      24.953   5.247  49.348  1.00  0.00     0.159 C 
HETATM   17  C12 UNL     1      26.232   4.894  49.046  1.00  0.00     0.039 C 
HETATM   18  C13 UNL     1      27.479   5.607  48.633  1.00  0.00    -0.012 C 
HETATM   19  C14 UNL     1      28.409   6.540  48.281  1.00  0.00    -0.049 C 
HETATM   20  C15 UNL     1      29.652   5.800  48.030  1.00  0.00     0.085 C 
HETATM   21  C16 UNL     1      30.770   6.089  48.945  1.00  0.00     0.093 C 
HETATM   22  N3  UNL     1      31.543   7.073  49.289  1.00  0.00    -0.275 NA
HETATM   23  C17 UNL     1      31.428   8.511  49.244  1.00  0.00     0.140 C 
HETATM   24  C18 UNL     1      30.323   9.272  49.094  1.00  0.00     0.088 C 
HETATM   25  C19 UNL     1      30.598  10.699  49.179  1.00  0.00     0.103 C 
HETATM   26  N4  UNL     1      30.821  11.846  49.226  1.00  0.00    -0.191 NA
HETATM   27  C20 UNL     1      26.174   9.999  48.359  1.00  0.00     0.018 A 
HETATM   28  H4  UNL     1      28.846  10.879  49.964  1.00  0.00     0.161 HD
ENDROOT
TORSDOF 0
ENDMDL
MODEL 5
REMARK VINA RESULT:      -8.4      3.146      4.701
REMARK  0 active torsions:
REMARK  status: ('A' for Active; 'I' for Inactive)
ROOT
HETATM    1  C1  UNL     1      23.626   4.441  52.603  1.00  0.00     0.051 C 
HETATM    2  C2  UNL     1      23.449   4.645  51.121  1.00  0.00    -0.028 C 
HETATM    3  C3  UNL     1      24.360   4.294  50.162  1.00  0.00     0.058 C 
HETATM    4  N1  UNL     1      24.826   3.056  49.557  1.00  0.00    -0.374 N 
HETATM    5  C4  UNL     1      23.794   2.259  50.181  1.00  0.00     0.064 A 
HETATM    6  C5  UNL     1      22.708   2.474  49.372  1.00  0.00     0.039 A 
HETATM    7  C6  UNL     1      22.299   1.835  50.453  1.00  0.00     0.077 A 
HETATM    8  C7  UNL     1      21.954   1.192  51.563  1.00  0.00     0.044 A 
HETATM    9  C8  UNL     1      23.167   1.075  52.193  1.00  0.00    -0.012 A 
HETATM   10  C9  UNL     1      22.841   0.421  53.351  1.00  0.00     0.031 A 
HETATM   11  C10 UNL     1      21.483   0.216  53.307  1.00  0.00     0.110 A 
HETATM   12  N2  UNL     1      20.918   0.695  52.200  1.00  0.00    -0.253 N 
HETATM   13  S1  UNL     1      19.425   0.980  51.391  1.00  0.00     0.242 S 
HETATM   14  O1  UNL     1      19.414   0.420  50.019  1.00  0.00    -0.205 OA
HETATM   15  O2  UNL     1      18.261   0.507  52.215  1.00  0.00    -0.205 OA
HETATM   16  C11 UNL     1      19.203   2.776  51.309  1.00  0.00     0.159 C 
HETATM   17  C12 UNL     1      19.537   4.094  51.239  1.00  0.00     0.039 C 
HETATM   18  C13 UNL     1      20.805   4.883  51.171  1.00  0.00    -0.012 C 
HETATM   19  C14 UNL     1      22.108   5.283  51.122  1.00  0.00    -0.049 C 
HETATM   20  C15 UNL     1      22.079   6.749  51.054  1.00  0.00     0.085 C 
HETATM   21  C16 UNL     1      22.607   7.347  49.815  1.00  0.00     0.093 C 
HETATM   22  N3  UNL     1      23.718   7.438  49.150  1.00  0.00    -0.275 NA
HETATM   23  C17 UNL     1      24.920   6.642  49.079  1.00  0.00     0.140 C 
HETATM   24  C18 UNL     1      25.122   5.370  49.482  1.00  0.00     0.088 C 
HETATM   25  C19 UNL     1      26.457   4.879  49.170  1.00  0.00     0.103 C 
HETATM   26  N4  UNL     1      27.536   4.491  48.938  1.00  0.00    -0.191 NA
HETATM   27  C20 UNL     1      24.086   1.680  51.377  1.00  0.00     0.018 A 
HETATM   28  H4  UNL     1      25.648   3.143  48.946  1.00  0.00     0.161 HD
ENDROOT
TORSDOF 0
ENDMDL
MODEL 6
REMARK VINA RESULT:      -8.3      4.204      7.369
REMARK  0 active torsions:
REMARK  status: ('A' for Active; 'I' for Inactive)
ROOT
HETATM    1  C1  UNL     1      21.196   0.249  49.924  1.00  0.00     0.051 C 
HETATM    2  C2  UNL     1      20.351   0.680  51.095  1.00  0.00    -0.028 C 
HETATM    3  C3  UNL     1      20.687   0.521  52.411  1.00  0.00     0.058 C 
HETATM    4  N1  UNL     1      21.623   1.136  53.340  1.00  0.00    -0.374 N 
HETATM    5  C4  UNL     1      21.968   2.200  52.425  1.00  0.00     0.064 A 
HETATM    6  C5  UNL     1      20.932   3.086  52.577  1.00  0.00     0.039 A 
HETATM    7  C6  UNL     1      21.654   3.468  51.539  1.00  0.00     0.077 A 
HETATM    8  C7  UNL     1      22.422   3.798  50.507  1.00  0.00     0.044 A 
HETATM    9  C8  UNL     1      23.374   2.811  50.555  1.00  0.00    -0.012 A 
HETATM   10  C9  UNL     1      24.180   3.121  49.492  1.00  0.00     0.031 A 
HETATM   11  C10 UNL     1      23.639   4.243  48.914  1.00  0.00     0.110 A 
HETATM   12  N2  UNL     1      22.542   4.673  49.535  1.00  0.00    -0.253 N 
HETATM   13  S1  UNL     1      21.248   5.809  49.483  1.00  0.00     0.242 S 
HETATM   14  O1  UNL     1      21.116   6.566  50.750  1.00  0.00    -0.205 OA
HETATM   15  O2  UNL     1      21.360   6.707  48.284  1.00  0.00    -0.205 OA
HETATM   16  C11 UNL     1      19.729   4.866  49.185  1.00  0.00     0.159 C 
HETATM   17  C12 UNL     1      18.860   3.819  49.211  1.00  0.00     0.039 C 
HETATM   18  C13 UNL     1      18.865   2.428  49.757  1.00  0.00    -0.012 C 
HETATM   19  C14 UNL     1      19.191   1.249  50.361  1.00  0.00    -0.049 C 
HETATM   20  C15 UNL     1      18.028   0.370  50.191  1.00  0.00     0.085 C 
HETATM   21  C16 UNL     1      17.333  -0.026  51.428  1.00  0.00     0.093 C 
HETATM   22  N3  UNL     1      17.551  -0.692  52.520  1.00  0.00    -0.275 NA
HETATM   23  C17 UNL     1      18.733  -1.041  53.272  1.00  0.00     0.140 C 
HETATM   24  C18 UNL     1      19.971  -0.507  53.205  1.00  0.00     0.088 C 
HETATM   25  C19 UNL     1      20.889  -1.073  54.184  1.00  0.00     0.103 C 
HETATM   26  N4  UNL     1      21.632  -1.542  54.956  1.00  0.00    -0.191 NA
HETATM   27  C20 UNL     1      23.042   2.005  51.611  1.00  0.00     0.018 A 
HETATM   28  H4  UNL     1      21.721   0.665  54.248  1.00  0.00     0.161 HD
ENDROOT
TORSDOF 0
ENDMDL
MODEL 7
REMARK VINA RESULT:      -8.1      4.078      6.081
REMARK  0 active torsions:
REMARK  status: ('A' for Active; 'I' for Inactive)
ROOT
HETATM    1  C1  UNL     1      22.825   3.597  48.201  1.00  0.00     0.051 C 
HETATM    2  C2  UNL     1      22.150   4.717  48.949  1.00  0.00    -0.028 C 
HETATM    3  C3  UNL     1      21.756   4.666  50.258  1.00  0.00     0.058 C 
HETATM    4  N1  UNL     1      22.411   4.695  51.557  1.00  0.00    -0.374 N 
HETATM    5  C4  UNL     1      23.700   5.037  50.997  1.00  0.00     0.064 A 
HETATM    6  C5  UNL     1      23.600   6.390  50.799  1.00  0.00     0.039 A 
HETATM    7  C6  UNL     1      24.704   5.966  50.211  1.00  0.00     0.077 A 
HETATM    8  C7  UNL     1      25.798   5.474  49.641  1.00  0.00     0.044 A 
HETATM    9  C8  UNL     1      25.700   4.146  49.974  1.00  0.00    -0.012 A 
HETATM   10  C9  UNL     1      26.816   3.609  49.389  1.00  0.00     0.031 A 
HETATM   11  C10 UNL     1      27.463   4.649  48.768  1.00  0.00     0.110 A 
HETATM   12  N2  UNL     1      26.838   5.816  48.915  1.00  0.00    -0.253 N 
HETATM   13  S1  UNL     1      26.826   7.475  48.453  1.00  0.00     0.242 S 
HETATM   14  O1  UNL     1      26.784   8.382  49.623  1.00  0.00    -0.205 OA
HETATM   15  O2  UNL     1      27.962   7.788  47.521  1.00  0.00    -0.205 OA
HETATM   16  C11 UNL     1      25.345   7.730  47.440  1.00  0.00     0.159 C 
HETATM   17  C12 UNL     1      24.076   7.553  46.981  1.00  0.00     0.039 C 
HETATM   18  C13 UNL     1      22.921   6.665  47.318  1.00  0.00    -0.012 C 
HETATM   19  C14 UNL     1      22.092   5.732  47.866  1.00  0.00    -0.049 C 
HETATM   20  C15 UNL     1      20.828   5.827  47.125  1.00  0.00     0.085 C 
HETATM   21  C16 UNL     1      19.657   6.267  47.902  1.00  0.00     0.093 C 
HETATM   22  N3  UNL     1      18.925   5.880  48.902  1.00  0.00    -0.275 NA
HETATM   23  C17 UNL     1      19.142   5.013  50.036  1.00  0.00     0.140 C 
HETATM   24  C18 UNL     1      20.306   4.569  50.557  1.00  0.00     0.088 C 
HETATM   25  C19 UNL     1      20.123   3.768  51.760  1.00  0.00     0.103 C 
HETATM   26  N4  UNL     1      19.976   3.109  52.713  1.00  0.00    -0.191 NA
HETATM   27  C20 UNL     1      24.543   4.013  50.694  1.00  0.00     0.018 A 
HETATM   28  H4  UNL     1      21.808   4.488  52.362  1.00  0.00     0.161 HD
ENDROOT
TORSDOF 0
ENDMDL
MODEL 8
REMARK VINA RESULT:      -8.1      2.632      3.228
REMARK  0 active torsions:
REMARK  status: ('A' for Active; 'I' for Inactive)
ROOT
HETATM    1  C1  UNL     1      22.051   2.103  49.190  1.00  0.00     0.051 C 
HETATM    2  C2  UNL     1      22.545   3.149  50.157  1.00  0.00    -0.028 C 
HETATM    3  C3  UNL     1      22.000   4.392  50.320  1.00  0.00     0.058 C 
HETATM    4  N1  UNL     1      20.796   4.943  50.924  1.00  0.00    -0.374 N 
HETATM    5  C4  UNL     1      20.423   3.687  51.535  1.00  0.00     0.064 A 
HETATM    6  C5  UNL     1      21.204   3.649  52.661  1.00  0.00     0.039 A 
HETATM    7  C6  UNL     1      20.634   2.467  52.513  1.00  0.00     0.077 A 
HETATM    8  C7  UNL     1      20.030   1.303  52.307  1.00  0.00     0.044 A 
HETATM    9  C8  UNL     1      19.310   1.572  51.170  1.00  0.00    -0.012 A 
HETATM   10  C9  UNL     1      18.680   0.381  50.925  1.00  0.00     0.031 A 
HETATM   11  C10 UNL     1      19.080  -0.476  51.921  1.00  0.00     0.110 A 
HETATM   12  N2  UNL     1      19.923   0.085  52.786  1.00  0.00    -0.253 N 
HETATM   13  S1  UNL     1      20.940  -0.200  54.147  1.00  0.00     0.242 S 
HETATM   14  O1  UNL     1      20.665   0.742  55.258  1.00  0.00    -0.205 OA
HETATM   15  O2  UNL     1      20.879  -1.636  54.581  1.00  0.00    -0.205 OA
HETATM   16  C11 UNL     1      22.648   0.017  53.584  1.00  0.00     0.159 C 
HETATM   17  C12 UNL     1      23.693   0.498  52.855  1.00  0.00     0.039 C 
HETATM   18  C13 UNL     1      23.869   1.479  51.741  1.00  0.00    -0.012 C 
HETATM   19  C14 UNL     1      23.682   2.404  50.758  1.00  0.00    -0.049 C 
HETATM   20  C15 UNL     1      25.012   2.679  50.200  1.00  0.00     0.085 C 
HETATM   21  C16 UNL     1      25.521   4.048  50.388  1.00  0.00     0.093 C 
HETATM   22  N3  UNL     1      25.238   5.269  50.049  1.00  0.00    -0.275 NA
HETATM   23  C17 UNL     1      24.030   5.952  49.650  1.00  0.00     0.140 C 
HETATM   24  C18 UNL     1      22.745   5.565  49.801  1.00  0.00     0.088 C 
HETATM   25  C19 UNL     1      21.792   6.565  49.339  1.00  0.00     0.103 C 
HETATM   26  N4  UNL     1      21.027   7.358  48.949  1.00  0.00    -0.191 NA
HETATM   27  C20 UNL     1      19.591   2.870  50.834  1.00  0.00     0.018 A 
HETATM   28  H4  UNL     1      20.623   5.938  50.739  1.00  0.00     0.161 HD
ENDROOT
TORSDOF 0
ENDMDL
MODEL 9
REMARK VINA RESULT:      -8.1      3.128      4.118
REMARK  0 active torsions:
REMARK  status: ('A' for Active; 'I' for Inactive)
ROOT
HETATM    1  C1  UNL     1      21.246   0.597  49.237  1.00  0.00     0.051 C 
HETATM    2  C2  UNL     1      20.922   2.065  49.346  1.00  0.00    -0.028 C 
HETATM    3  C3  UNL     1      19.767   2.580  49.866  1.00  0.00     0.058 C 
HETATM    4  N1  UNL     1      19.188   2.737  51.193  1.00  0.00    -0.374 N 
HETATM    5  C4  UNL     1      20.403   2.338  51.866  1.00  0.00     0.064 A 
HETATM    6  C5  UNL     1      21.156   3.484  51.847  1.00  0.00     0.039 A 
HETATM    7  C6  UNL     1      21.923   2.492  52.259  1.00  0.00     0.077 A 
HETATM    8  C7  UNL     1      22.640   1.451  52.667  1.00  0.00     0.044 A 
HETATM    9  C8  UNL     1      21.705   0.448  52.625  1.00  0.00    -0.012 A 
HETATM   10  C9  UNL     1      22.420  -0.646  53.033  1.00  0.00     0.031 A 
HETATM   11  C10 UNL     1      23.697  -0.202  53.273  1.00  0.00     0.110 A 
HETATM   12  N2  UNL     1      23.848   1.102  53.046  1.00  0.00    -0.253 N 
HETATM   13  S1  UNL     1      24.983   2.395  52.967  1.00  0.00     0.242 S 
HETATM   14  O1  UNL     1      24.573   3.552  53.797  1.00  0.00    -0.205 OA
HETATM   15  O2  UNL     1      26.372   1.920  53.285  1.00  0.00    -0.205 OA
HETATM   16  C11 UNL     1      25.081   2.906  51.230  1.00  0.00     0.159 C 
HETATM   17  C12 UNL     1      24.681   3.127  49.949  1.00  0.00     0.039 C 
HETATM   18  C13 UNL     1      23.425   2.932  49.162  1.00  0.00    -0.012 C 
HETATM   19  C14 UNL     1      22.160   2.631  48.752  1.00  0.00    -0.049 C 
HETATM   20  C15 UNL     1      22.096   2.999  47.332  1.00  0.00     0.085 C 
HETATM   21  C16 UNL     1      21.167   4.090  46.990  1.00  0.00     0.093 C 
HETATM   22  N3  UNL     1      19.897   4.359  47.013  1.00  0.00    -0.275 NA
HETATM   23  C17 UNL     1      18.776   3.870  47.780  1.00  0.00     0.140 C 
HETATM   24  C18 UNL     1      18.775   3.175  48.937  1.00  0.00     0.088 C 
HETATM   25  C19 UNL     1      17.436   2.927  49.452  1.00  0.00     0.103 C 
HETATM   26  N4  UNL     1      16.360   2.710  49.855  1.00  0.00    -0.191 NA
HETATM   27  C20 UNL     1      20.543   1.022  52.180  1.00  0.00     0.018 A 
HETATM   28  H4  UNL     1      18.209   3.049  51.214  1.00  0.00     0.161 HD
ENDROOT
TORSDOF 0
ENDMDL
