MODEL 1
REMARK VINA RESULT:      -7.9      0.000      0.000
REMARK  5 active torsions:
REMARK  status: ('A' for Active; 'I' for Inactive)
REMARK    1  A    between atoms: C2_2  and  N1_3 
REMARK    2  A    between atoms: C2_2  and  C15_21 
REMARK       I    between atoms: C3_4  and  N2_5 
REMARK       I    between atoms: C3_4  and  N3_6 
REMARK    3  A    between atoms: C7_10  and  C8_11 
REMARK    4  A    between atoms: C8_11  and  C9_12 
REMARK    5  A    between atoms: C15_21  and  C16_23 
ROOT
HETATM    1  N1  UNL     1      28.167   1.459  53.389  1.00  0.00    -0.098 NA
HETATM    2  C3  UNL     1      27.024   2.033  53.405  1.00  0.00     0.717 C 
HETATM    3  N2  UNL     1      27.498   2.621  52.192  1.00  0.00    -0.231 N 
HETATM    4  N3  UNL     1      25.726   2.443  53.773  1.00  0.00    -0.050 NA
HETATM    5  C4  UNL     1      24.790   2.220  52.877  1.00  0.00     0.127 A 
HETATM    6  C5  UNL     1      24.794   1.615  51.522  1.00  0.00     0.108 A 
HETATM    7  C6  UNL     1      23.361   1.729  51.157  1.00  0.00     0.006 A 
HETATM    8  C7  UNL     1      22.548   2.287  52.065  1.00  0.00     0.011 A 
HETATM    9  N4  UNL     1      23.441   2.584  53.118  1.00  0.00    -0.347 N 
HETATM   10  H5  UNL     1      27.801   2.922  51.230  1.00  0.00     0.174 HD
HETATM   11  H6  UNL     1      27.879   3.166  51.391  1.00  0.00     0.174 HD
HETATM   12  H15 UNL     1      23.126   3.036  54.000  1.00  0.00     0.167 HD
ENDROOT
BRANCH   8  13
HETATM   13  C8  UNL     1      21.113   2.439  51.785  1.00  0.00     0.097 C 
BRANCH  13  14
HETATM   14  C9  UNL     1      20.266   1.295  52.110  1.00  0.00    -0.031 A 
HETATM   15  C10 UNL     1      20.603   0.665  53.316  1.00  0.00     0.011 A 
HETATM   16  C11 UNL     1      19.912  -0.422  53.810  1.00  0.00     0.024 A 
HETATM   17  C12 UNL     1      18.840  -0.921  53.100  1.00  0.00     0.035 A 
HETATM   18 CL1  UNL     1      17.864  -2.294  53.596  1.00  0.00    -0.084 Cl
HETATM   19  C13 UNL     1      18.470  -0.335  51.907  1.00  0.00     0.048 A 
HETATM   20  C14 UNL     1      19.190   0.747  51.454  1.00  0.00     0.042 A 
HETATM   21 CL2  UNL     1      18.781   1.509  49.935  1.00  0.00    -0.084 Cl
ENDBRANCH  13  14
ENDBRANCH   8  13
BRANCH   1  22
HETATM   22  C2  UNL     1      28.507   0.551  54.464  1.00  0.00     0.159 C 
HETATM   23  C1  UNL     1      27.207  -0.119  54.916  1.00  0.00     0.038 C 
BRANCH  22  24
HETATM   24  C15 UNL     1      29.503  -0.490  53.993  1.00  0.00     0.223 C 
HETATM   25  F1  UNL     1      30.447   0.142  53.231  1.00  0.00    -0.245 F 
BRANCH  24  26
HETATM   26  C16 UNL     1      28.708  -1.494  53.163  1.00  0.00     0.261 C 
HETATM   27  F2  UNL     1      29.210  -2.753  53.308  1.00  0.00    -0.252 F 
ENDBRANCH  24  26
ENDBRANCH  22  24
ENDBRANCH   1  22
TORSDOF 5
ENDMDL
MODEL 2
REMARK VINA RESULT:      -7.8      5.927      8.361
REMARK  5 active torsions:
REMARK  status: ('A' for Active; 'I' for Inactive)
REMARK    1  A    between atoms: C2_2  and  N1_3 
REMARK    2  A    between atoms: C2_2  and  C15_21 
REMARK       I    between atoms: C3_4  and  N2_5 
REMARK       I    between atoms: C3_4  and  N3_6 
REMARK    3  A    between atoms: C7_10  and  C8_11 
REMARK    4  A    between atoms: C8_11  and  C9_12 
REMARK    5  A    between atoms: C15_21  and  C16_23 
ROOT
HETATM    1  N1  UNL     1      25.796   1.048  53.098  1.00  0.00    -0.098 NA
HETATM    2  C3  UNL     1      26.133   1.626  52.008  1.00  0.00     0.717 C 
HETATM    3  N2  UNL     1      24.808   1.265  51.612  1.00  0.00    -0.231 N 
HETATM    4  N3  UNL     1      26.860   2.317  51.017  1.00  0.00    -0.050 NA
HETATM    5  C4  UNL     1      26.303   3.425  50.579  1.00  0.00     0.127 A 
HETATM    6  C5  UNL     1      25.039   4.132  50.905  1.00  0.00     0.108 A 
HETATM    7  C6  UNL     1      25.123   5.297  49.991  1.00  0.00     0.006 A 
HETATM    8  C7  UNL     1      26.209   5.376  49.210  1.00  0.00     0.011 A 
HETATM    9  N4  UNL     1      26.926   4.217  49.583  1.00  0.00    -0.347 N 
HETATM   10  H5  UNL     1      23.787   1.127  51.396  1.00  0.00     0.174 HD
HETATM   11  H6  UNL     1      23.905   0.886  51.257  1.00  0.00     0.174 HD
HETATM   12  H15 UNL     1      27.841   3.971  49.154  1.00  0.00     0.167 HD
ENDROOT
BRANCH   8  13
HETATM   13  C8  UNL     1      26.373   6.498  48.274  1.00  0.00     0.097 C 
BRANCH  13  14
HETATM   14  C9  UNL     1      27.356   7.511  48.645  1.00  0.00    -0.031 A 
HETATM   15  C10 UNL     1      28.637   7.273  48.131  1.00  0.00     0.011 A 
HETATM   16  C11 UNL     1      29.701   8.124  48.351  1.00  0.00     0.024 A 
HETATM   17  C12 UNL     1      29.511   9.261  49.107  1.00  0.00     0.035 A 
HETATM   18 CL1  UNL     1      30.762  10.438  49.475  1.00  0.00    -0.084 Cl
HETATM   19  C13 UNL     1      28.268   9.539  49.635  1.00  0.00     0.048 A 
HETATM   20  C14 UNL     1      27.237   8.660  49.389  1.00  0.00     0.042 A 
HETATM   21 CL2  UNL     1      25.648   8.950  50.058  1.00  0.00    -0.084 Cl
ENDBRANCH  13  14
ENDBRANCH   8  13
BRANCH   1  22
HETATM   22  C2  UNL     1      26.755   0.985  54.180  1.00  0.00     0.159 C 
HETATM   23  C1  UNL     1      26.229  -0.039  55.189  1.00  0.00     0.038 C 
BRANCH  22  24
HETATM   24  C15 UNL     1      28.118   0.568  53.665  1.00  0.00     0.223 C 
HETATM   25  F1  UNL     1      28.409  -0.663  54.188  1.00  0.00    -0.245 F 
BRANCH  24  26
HETATM   26  C16 UNL     1      29.102   1.623  54.166  1.00  0.00     0.261 C 
HETATM   27  F2  UNL     1      28.709   2.872  53.786  1.00  0.00    -0.252 F 
ENDBRANCH  24  26
ENDBRANCH  22  24
ENDBRANCH   1  22
TORSDOF 5
ENDMDL
MODEL 3
REMARK VINA RESULT:      -7.8      4.020      5.907
REMARK  5 active torsions:
REMARK  status: ('A' for Active; 'I' for Inactive)
REMARK    1  A    between atoms: C2_2  and  N1_3 
REMARK    2  A    between atoms: C2_2  and  C15_21 
REMARK       I    between atoms: C3_4  and  N2_5 
REMARK       I    between atoms: C3_4  and  N3_6 
REMARK    3  A    between atoms: C7_10  and  C8_11 
REMARK    4  A    between atoms: C8_11  and  C9_12 
REMARK    5  A    between atoms: C15_21  and  C16_23 
ROOT
HETATM    1  N1  UNL     1      27.524  -0.625  54.452  1.00  0.00    -0.098 NA
HETATM    2  C3  UNL     1      26.736  -0.252  53.517  1.00  0.00     0.717 C 
HETATM    3  N2  UNL     1      25.730  -0.518  54.495  1.00  0.00    -0.231 N 
HETATM    4  N3  UNL     1      26.229   0.204  52.282  1.00  0.00    -0.050 NA
HETATM    5  C4  UNL     1      25.492   1.291  52.343  1.00  0.00     0.127 A 
HETATM    6  C5  UNL     1      25.060   2.173  53.456  1.00  0.00     0.108 A 
HETATM    7  C6  UNL     1      24.250   3.176  52.724  1.00  0.00     0.006 A 
HETATM    8  C7  UNL     1      24.150   3.021  51.397  1.00  0.00     0.011 A 
HETATM    9  N4  UNL     1      24.920   1.857  51.176  1.00  0.00    -0.347 N 
HETATM   10  H5  UNL     1      25.021  -0.573  55.272  1.00  0.00     0.174 HD
HETATM   11  H6  UNL     1      24.981  -0.843  55.142  1.00  0.00     0.174 HD
HETATM   12  H15 UNL     1      25.051   1.453  50.228  1.00  0.00     0.167 HD
ENDROOT
BRANCH   8  13
HETATM   13  C8  UNL     1      23.367   3.971  50.593  1.00  0.00     0.097 C 
BRANCH  13  14
HETATM   14  C9  UNL     1      23.912   5.320  50.473  1.00  0.00    -0.031 A 
HETATM   15  C10 UNL     1      25.237   5.357  50.018  1.00  0.00     0.011 A 
HETATM   16  C11 UNL     1      25.926   6.536  49.818  1.00  0.00     0.024 A 
HETATM   17  C12 UNL     1      25.297   7.737  50.072  1.00  0.00     0.035 A 
HETATM   18 CL1  UNL     1      26.038   9.316  49.868  1.00  0.00    -0.084 Cl
HETATM   19  C13 UNL     1      23.994   7.753  50.522  1.00  0.00     0.048 A 
HETATM   20  C14 UNL     1      23.347   6.550  50.706  1.00  0.00     0.042 A 
HETATM   21 CL2  UNL     1      21.704   6.512  51.302  1.00  0.00    -0.084 Cl
ENDBRANCH  13  14
ENDBRANCH   8  13
BRANCH   1  22
HETATM   22  C2  UNL     1      28.950  -0.636  54.202  1.00  0.00     0.159 C 
HETATM   23  C1  UNL     1      29.251  -1.888  53.374  1.00  0.00     0.038 C 
BRANCH  22  24
HETATM   24  C15 UNL     1      29.374   0.610  53.451  1.00  0.00     0.223 C 
HETATM   25  F1  UNL     1      30.650   0.417  52.997  1.00  0.00    -0.245 F 
BRANCH  24  26
HETATM   26  C16 UNL     1      29.318   1.754  54.461  1.00  0.00     0.261 C 
HETATM   27  F2  UNL     1      28.585   2.796  53.975  1.00  0.00    -0.252 F 
ENDBRANCH  24  26
ENDBRANCH  22  24
ENDBRANCH   1  22
TORSDOF 5
ENDMDL
MODEL 4
REMARK VINA RESULT:      -7.7      6.228      8.871
REMARK  5 active torsions:
REMARK  status: ('A' for Active; 'I' for Inactive)
REMARK    1  A    between atoms: C2_2  and  N1_3 
REMARK    2  A    between atoms: C2_2  and  C15_21 
REMARK       I    between atoms: C3_4  and  N2_5 
REMARK       I    between atoms: C3_4  and  N3_6 
REMARK    3  A    between atoms: C7_10  and  C8_11 
REMARK    4  A    between atoms: C8_11  and  C9_12 
REMARK    5  A    between atoms: C15_21  and  C16_23 
ROOT
HETATM    1  N1  UNL     1      24.043   1.462  53.292  1.00  0.00    -0.098 NA
HETATM    2  C3  UNL     1      24.260   2.624  52.805  1.00  0.00     0.717 C 
HETATM    3  N2  UNL     1      25.572   2.406  53.325  1.00  0.00    -0.231 N 
HETATM    4  N3  UNL     1      24.097   3.867  52.159  1.00  0.00    -0.050 NA
HETATM    5  C4  UNL     1      24.921   4.094  51.159  1.00  0.00     0.127 A 
HETATM    6  C5  UNL     1      26.019   3.309  50.540  1.00  0.00     0.108 A 
HETATM    7  C6  UNL     1      26.467   4.240  49.476  1.00  0.00     0.006 A 
HETATM    8  C7  UNL     1      25.816   5.408  49.381  1.00  0.00     0.011 A 
HETATM    9  N4  UNL     1      24.868   5.304  50.423  1.00  0.00    -0.347 N 
HETATM   10  H5  UNL     1      26.565   2.165  53.578  1.00  0.00     0.174 HD
HETATM   11  H6  UNL     1      26.485   2.327  53.820  1.00  0.00     0.174 HD
HETATM   12  H15 UNL     1      24.187   6.062  50.628  1.00  0.00     0.167 HD
ENDROOT
BRANCH   8  13
HETATM   13  C8  UNL     1      26.195   6.389  48.354  1.00  0.00     0.097 C 
BRANCH  13  14
HETATM   14  C9  UNL     1      27.223   7.355  48.731  1.00  0.00    -0.031 A 
HETATM   15  C10 UNL     1      28.499   7.044  48.244  1.00  0.00     0.011 A 
HETATM   16  C11 UNL     1      29.602   7.842  48.474  1.00  0.00     0.024 A 
HETATM   17  C12 UNL     1      29.457   8.998  49.211  1.00  0.00     0.035 A 
HETATM   18 CL1  UNL     1      30.761  10.113  49.587  1.00  0.00    -0.084 Cl
HETATM   19  C13 UNL     1      28.220   9.348  49.711  1.00  0.00     0.048 A 
HETATM   20  C14 UNL     1      27.150   8.520  49.456  1.00  0.00     0.042 A 
HETATM   21 CL2  UNL     1      25.566   8.901  50.091  1.00  0.00    -0.084 Cl
ENDBRANCH  13  14
ENDBRANCH   8  13
BRANCH   1  22
HETATM   22  C2  UNL     1      22.725   0.881  53.153  1.00  0.00     0.159 C 
HETATM   23  C1  UNL     1      22.407   0.839  51.656  1.00  0.00     0.038 C 
BRANCH  22  24
HETATM   24  C15 UNL     1      22.687  -0.515  53.741  1.00  0.00     0.223 C 
HETATM   25  F1  UNL     1      22.374  -1.389  52.736  1.00  0.00    -0.245 F 
BRANCH  24  26
HETATM   26  C16 UNL     1      21.599  -0.496  54.811  1.00  0.00     0.261 C 
HETATM   27  F2  UNL     1      20.827   0.622  54.700  1.00  0.00    -0.252 F 
ENDBRANCH  24  26
ENDBRANCH  22  24
ENDBRANCH   1  22
TORSDOF 5
ENDMDL
MODEL 5
REMARK VINA RESULT:      -7.4      7.405     10.294
REMARK  5 active torsions:
REMARK  status: ('A' for Active; 'I' for Inactive)
REMARK    1  A    between atoms: C2_2  and  N1_3 
REMARK    2  A    between atoms: C2_2  and  C15_21 
REMARK       I    between atoms: C3_4  and  N2_5 
REMARK       I    between atoms: C3_4  and  N3_6 
REMARK    3  A    between atoms: C7_10  and  C8_11 
REMARK    4  A    between atoms: C8_11  and  C9_12 
REMARK    5  A    between atoms: C15_21  and  C16_23 
ROOT
HETATM    1  N1  UNL     1      24.980   2.938  50.991  1.00  0.00    -0.098 NA
HETATM    2  C3  UNL     1      25.827   3.267  50.091  1.00  0.00     0.717 C 
HETATM    3  N2  UNL     1      24.651   3.614  49.358  1.00  0.00    -0.231 N 
HETATM    4  N3  UNL     1      27.029   3.500  49.392  1.00  0.00    -0.050 NA
HETATM    5  C4  UNL     1      27.213   4.737  48.985  1.00  0.00     0.127 A 
HETATM    6  C5  UNL     1      26.412   5.981  49.100  1.00  0.00     0.108 A 
HETATM    7  C6  UNL     1      27.285   6.946  48.388  1.00  0.00     0.006 A 
HETATM    8  C7  UNL     1      28.437   6.470  47.895  1.00  0.00     0.011 A 
HETATM    9  N4  UNL     1      28.379   5.109  48.270  1.00  0.00    -0.347 N 
HETATM   10  H5  UNL     1      23.789   4.004  48.897  1.00  0.00     0.174 HD
HETATM   11  H6  UNL     1      23.808   3.736  48.759  1.00  0.00     0.174 HD
HETATM   12  H15 UNL     1      29.138   4.438  48.035  1.00  0.00     0.167 HD
ENDROOT
BRANCH   8  13
HETATM   13  C8  UNL     1      29.362   7.358  47.176  1.00  0.00     0.097 C 
BRANCH  13  14
HETATM   14  C9  UNL     1      30.756   7.327  47.608  1.00  0.00    -0.031 A 
HETATM   15  C10 UNL     1      31.540   6.389  46.926  1.00  0.00     0.011 A 
HETATM   16  C11 UNL     1      32.888   6.219  47.174  1.00  0.00     0.024 A 
HETATM   17  C12 UNL     1      33.502   7.000  48.131  1.00  0.00     0.035 A 
HETATM   18 CL1  UNL     1      35.202   6.902  48.559  1.00  0.00    -0.084 Cl
HETATM   19  C13 UNL     1      32.771   7.938  48.829  1.00  0.00     0.048 A 
HETATM   20  C14 UNL     1      31.430   8.071  48.547  1.00  0.00     0.042 A 
HETATM   21 CL2  UNL     1      30.452   9.225  49.423  1.00  0.00    -0.084 Cl
ENDBRANCH  13  14
ENDBRANCH   8  13
BRANCH   1  22
HETATM   22  C2  UNL     1      25.465   2.407  52.247  1.00  0.00     0.159 C 
HETATM   23  C1  UNL     1      24.495   1.302  52.674  1.00  0.00     0.038 C 
BRANCH  22  24
HETATM   24  C15 UNL     1      26.865   1.849  52.089  1.00  0.00     0.223 C 
HETATM   25  F1  UNL     1      26.759   0.555  51.661  1.00  0.00    -0.245 F 
BRANCH  24  26
HETATM   26  C16 UNL     1      27.508   1.919  53.472  1.00  0.00     0.261 C 
HETATM   27  F2  UNL     1      28.480   2.874  53.509  1.00  0.00    -0.252 F 
ENDBRANCH  24  26
ENDBRANCH  22  24
ENDBRANCH   1  22
TORSDOF 5
ENDMDL
MODEL 6
REMARK VINA RESULT:      -7.4      2.106      2.476
REMARK  5 active torsions:
REMARK  status: ('A' for Active; 'I' for Inactive)
REMARK    1  A    between atoms: C2_2  and  N1_3 
REMARK    2  A    between atoms: C2_2  and  C15_21 
REMARK       I    between atoms: C3_4  and  N2_5 
REMARK       I    between atoms: C3_4  and  N3_6 
REMARK    3  A    between atoms: C7_10  and  C8_11 
REMARK    4  A    between atoms: C8_11  and  C9_12 
REMARK    5  A    between atoms: C15_21  and  C16_23 
ROOT
HETATM    1  N1  UNL     1      26.752   1.380  54.020  1.00  0.00    -0.098 NA
HETATM    2  C3  UNL     1      25.514   1.299  53.710  1.00  0.00     0.717 C 
HETATM    3  N2  UNL     1      25.594   2.725  53.739  1.00  0.00    -0.231 N 
HETATM    4  N3  UNL     1      24.235   0.802  53.388  1.00  0.00    -0.050 NA
HETATM    5  C4  UNL     1      23.745   1.211  52.238  1.00  0.00     0.127 A 
HETATM    6  C5  UNL     1      24.254   2.109  51.171  1.00  0.00     0.108 A 
HETATM    7  C6  UNL     1      23.126   2.072  50.208  1.00  0.00     0.006 A 
HETATM    8  C7  UNL     1      22.073   1.312  50.540  1.00  0.00     0.011 A 
HETATM    9  N4  UNL     1      22.468   0.789  51.791  1.00  0.00    -0.347 N 
HETATM   10  H5  UNL     1      25.709   3.765  53.615  1.00  0.00     0.174 HD
HETATM   11  H6  UNL     1      25.597   3.755  53.896  1.00  0.00     0.174 HD
HETATM   12  H15 UNL     1      21.862   0.144  52.336  1.00  0.00     0.167 HD
ENDROOT
BRANCH   8  13
HETATM   13  C8  UNL     1      20.912   1.219  49.643  1.00  0.00     0.097 C 
BRANCH  13  14
HETATM   14  C9  UNL     1      19.612   1.520  50.236  1.00  0.00    -0.031 A 
HETATM   15  C10 UNL     1      18.856   0.384  50.551  1.00  0.00     0.011 A 
HETATM   16  C11 UNL     1      17.608   0.455  51.137  1.00  0.00     0.024 A 
HETATM   17  C12 UNL     1      17.070   1.689  51.432  1.00  0.00     0.035 A 
HETATM   18 CL1  UNL     1      15.499   1.944  52.175  1.00  0.00    -0.084 Cl
HETATM   19  C13 UNL     1      17.776   2.838  51.141  1.00  0.00     0.048 A 
HETATM   20  C14 UNL     1      19.017   2.717  50.555  1.00  0.00     0.042 A 
HETATM   21 CL2  UNL     1      19.942   4.141  50.139  1.00  0.00    -0.084 Cl
ENDBRANCH  13  14
ENDBRANCH   8  13
BRANCH   1  22
HETATM   22  C2  UNL     1      27.508   0.159  54.202  1.00  0.00     0.159 C 
HETATM   23  C1  UNL     1      27.435  -0.616  52.884  1.00  0.00     0.038 C 
BRANCH  22  24
HETATM   24  C15 UNL     1      28.949   0.466  54.557  1.00  0.00     0.223 C 
HETATM   25  F1  UNL     1      29.123   1.821  54.481  1.00  0.00    -0.245 F 
BRANCH  24  26
HETATM   26  C16 UNL     1      29.804  -0.256  53.519  1.00  0.00     0.261 C 
HETATM   27  F2  UNL     1      30.474  -1.301  54.084  1.00  0.00    -0.252 F 
ENDBRANCH  24  26
ENDBRANCH  22  24
ENDBRANCH   1  22
TORSDOF 5
ENDMDL
MODEL 7
REMARK VINA RESULT:      -7.3      7.137      8.616
REMARK  5 active torsions:
REMARK  status: ('A' for Active; 'I' for Inactive)
REMARK    1  A    between atoms: C2_2  and  N1_3 
REMARK    2  A    between atoms: C2_2  and  C15_21 
REMARK       I    between atoms: C3_4  and  N2_5 
REMARK       I    between atoms: C3_4  and  N3_6 
REMARK    3  A    between atoms: C7_10  and  C8_11 
REMARK    4  A    between atoms: C8_11  and  C9_12 
REMARK    5  A    between atoms: C15_21  and  C16_23 
ROOT
HETATM    1  N1  UNL     1      33.397   5.430  46.451  1.00  0.00    -0.098 NA
HETATM    2  C3  UNL     1      32.490   5.699  47.311  1.00  0.00     0.717 C 
HETATM    3  N2  UNL     1      32.829   7.048  46.988  1.00  0.00    -0.231 N 
HETATM    4  N3  UNL     1      31.470   5.578  48.277  1.00  0.00    -0.050 NA
HETATM    5  C4  UNL     1      30.335   6.170  47.975  1.00  0.00     0.127 A 
HETATM    6  C5  UNL     1      29.874   6.963  46.808  1.00  0.00     0.108 A 
HETATM    7  C6  UNL     1      28.485   7.284  47.215  1.00  0.00     0.006 A 
HETATM    8  C7  UNL     1      28.078   6.811  48.402  1.00  0.00     0.011 A 
HETATM    9  N4  UNL     1      29.227   6.128  48.858  1.00  0.00    -0.347 N 
HETATM   10  H5  UNL     1      32.984   8.026  46.628  1.00  0.00     0.174 HD
HETATM   11  H6  UNL     1      33.160   8.029  46.874  1.00  0.00     0.174 HD
HETATM   12  H15 UNL     1      29.250   5.635  49.773  1.00  0.00     0.167 HD
ENDROOT
BRANCH   8  13
HETATM   13  C8  UNL     1      26.715   7.083  48.883  1.00  0.00     0.097 C 
BRANCH  13  14
HETATM   14  C9  UNL     1      26.004   5.955  49.478  1.00  0.00    -0.031 A 
HETATM   15  C10 UNL     1      26.500   4.704  49.091  1.00  0.00     0.011 A 
HETATM   16  C11 UNL     1      25.978   3.515  49.560  1.00  0.00     0.024 A 
HETATM   17  C12 UNL     1      24.923   3.544  50.447  1.00  0.00     0.035 A 
HETATM   18 CL1  UNL     1      24.152   2.122  51.131  1.00  0.00    -0.084 Cl
HETATM   19  C13 UNL     1      24.400   4.752  50.859  1.00  0.00     0.048 A 
HETATM   20  C14 UNL     1      24.954   5.912  50.364  1.00  0.00     0.042 A 
HETATM   21 CL2  UNL     1      24.310   7.469  50.830  1.00  0.00    -0.084 Cl
ENDBRANCH  13  14
ENDBRANCH   8  13
BRANCH   1  22
HETATM   22  C2  UNL     1      33.701   4.044  46.165  1.00  0.00     0.159 C 
HETATM   23  C1  UNL     1      35.045   4.019  45.432  1.00  0.00     0.038 C 
BRANCH  22  24
HETATM   24  C15 UNL     1      33.781   3.237  47.445  1.00  0.00     0.223 C 
HETATM   25  F1  UNL     1      35.093   2.911  47.658  1.00  0.00    -0.245 F 
BRANCH  24  26
HETATM   26  C16 UNL     1      32.936   1.987  47.212  1.00  0.00     0.261 C 
HETATM   27  F2  UNL     1      32.992   1.154  48.290  1.00  0.00    -0.252 F 
ENDBRANCH  24  26
ENDBRANCH  22  24
ENDBRANCH   1  22
TORSDOF 5
ENDMDL
MODEL 8
REMARK VINA RESULT:      -7.3      3.190      4.757
REMARK  5 active torsions:
REMARK  status: ('A' for Active; 'I' for Inactive)
REMARK    1  A    between atoms: C2_2  and  N1_3 
REMARK    2  A    between atoms: C2_2  and  C15_21 
REMARK       I    between atoms: C3_4  and  N2_5 
REMARK       I    between atoms: C3_4  and  N3_6 
REMARK    3  A    between atoms: C7_10  and  C8_11 
REMARK    4  A    between atoms: C8_11  and  C9_12 
REMARK    5  A    between atoms: C15_21  and  C16_23 
ROOT
HETATM    1  N1  UNL     1      27.042   1.291  54.193  1.00  0.00    -0.098 NA
HETATM    2  C3  UNL     1      25.831   1.330  53.786  1.00  0.00     0.717 C 
HETATM    3  N2  UNL     1      25.999   2.737  53.965  1.00  0.00    -0.231 N 
HETATM    4  N3  UNL     1      24.552   0.959  53.320  1.00  0.00    -0.050 NA
HETATM    5  C4  UNL     1      24.185   1.511  52.185  1.00  0.00     0.127 A 
HETATM    6  C5  UNL     1      24.836   2.468  51.255  1.00  0.00     0.108 A 
HETATM    7  C6  UNL     1      23.789   2.606  50.213  1.00  0.00     0.006 A 
HETATM    8  C7  UNL     1      22.666   1.896  50.386  1.00  0.00     0.011 A 
HETATM    9  N4  UNL     1      22.924   1.227  51.603  1.00  0.00    -0.347 N 
HETATM   10  H5  UNL     1      26.191   3.772  53.956  1.00  0.00     0.174 HD
HETATM   11  H6  UNL     1      26.056   3.744  54.226  1.00  0.00     0.174 HD
HETATM   12  H15 UNL     1      22.236   0.578  52.034  1.00  0.00     0.167 HD
ENDROOT
BRANCH   8  13
HETATM   13  C8  UNL     1      21.578   1.973  49.401  1.00  0.00     0.097 C 
BRANCH  13  14
HETATM   14  C9  UNL     1      21.662   3.058  48.428  1.00  0.00    -0.031 A 
HETATM   15  C10 UNL     1      22.056   2.644  47.149  1.00  0.00     0.011 A 
HETATM   16  C11 UNL     1      22.176   3.515  46.085  1.00  0.00     0.024 A 
HETATM   17  C12 UNL     1      21.899   4.853  46.273  1.00  0.00     0.035 A 
HETATM   18 CL1  UNL     1      22.006   6.081  45.022  1.00  0.00    -0.084 Cl
HETATM   19  C13 UNL     1      21.508   5.310  47.514  1.00  0.00     0.048 A 
HETATM   20  C14 UNL     1      21.402   4.403  48.545  1.00  0.00     0.042 A 
HETATM   21 CL2  UNL     1      20.938   4.933  50.145  1.00  0.00    -0.084 Cl
ENDBRANCH  13  14
ENDBRANCH   8  13
BRANCH   1  22
HETATM   22  C2  UNL     1      27.701   0.007  54.306  1.00  0.00     0.159 C 
HETATM   23  C1  UNL     1      27.417  -0.759  53.011  1.00  0.00     0.038 C 
BRANCH  22  24
HETATM   24  C15 UNL     1      29.193   0.183  54.501  1.00  0.00     0.223 C 
HETATM   25  F1  UNL     1      29.508   1.480  54.204  1.00  0.00    -0.245 F 
BRANCH  24  26
HETATM   26  C16 UNL     1      29.865  -0.783  53.529  1.00  0.00     0.261 C 
HETATM   27  F2  UNL     1      30.738  -1.601  54.182  1.00  0.00    -0.252 F 
ENDBRANCH  24  26
ENDBRANCH  22  24
ENDBRANCH   1  22
TORSDOF 5
ENDMDL
MODEL 9
REMARK VINA RESULT:      -7.2      7.064      8.836
REMARK  5 active torsions:
REMARK  status: ('A' for Active; 'I' for Inactive)
REMARK    1  A    between atoms: C2_2  and  N1_3 
REMARK    2  A    between atoms: C2_2  and  C15_21 
REMARK       I    between atoms: C3_4  and  N2_5 
REMARK       I    between atoms: C3_4  and  N3_6 
REMARK    3  A    between atoms: C7_10  and  C8_11 
REMARK    4  A    between atoms: C8_11  and  C9_12 
REMARK    5  A    between atoms: C15_21  and  C16_23 
ROOT
HETATM    1  N1  UNL     1      28.224   9.097  48.258  1.00  0.00    -0.098 NA
HETATM    2  C3  UNL     1      27.289   8.357  48.721  1.00  0.00     0.717 C 
HETATM    3  N2  UNL     1      27.050   8.096  47.337  1.00  0.00    -0.231 N 
HETATM    4  N3  UNL     1      26.409   7.684  49.593  1.00  0.00    -0.050 NA
HETATM    5  C4  UNL     1      26.392   6.374  49.474  1.00  0.00     0.127 A 
HETATM    6  C5  UNL     1      27.114   5.417  48.598  1.00  0.00     0.108 A 
HETATM    7  C6  UNL     1      26.548   4.127  49.062  1.00  0.00     0.006 A 
HETATM    8  C7  UNL     1      25.639   4.184  50.045  1.00  0.00     0.011 A 
HETATM    9  N4  UNL     1      25.553   5.573  50.289  1.00  0.00    -0.347 N 
HETATM   10  H5  UNL     1      26.988   7.798  46.329  1.00  0.00     0.174 HD
HETATM   11  H6  UNL     1      26.770   8.008  46.337  1.00  0.00     0.174 HD
HETATM   12  H15 UNL     1      24.920   5.970  51.011  1.00  0.00     0.167 HD
ENDROOT
BRANCH   8  13
HETATM   13  C8  UNL     1      25.027   2.952  50.565  1.00  0.00     0.097 C 
BRANCH  13  14
HETATM   14  C9  UNL     1      25.674   2.351  51.728  1.00  0.00    -0.031 A 
HETATM   15  C10 UNL     1      26.694   1.446  51.404  1.00  0.00     0.011 A 
HETATM   16  C11 UNL     1      27.440   0.787  52.360  1.00  0.00     0.024 A 
HETATM   17  C12 UNL     1      27.183   1.019  53.695  1.00  0.00     0.035 A 
HETATM   18 CL1  UNL     1      28.043   0.260  55.025  1.00  0.00    -0.084 Cl
HETATM   19  C13 UNL     1      26.189   1.901  54.064  1.00  0.00     0.048 A 
HETATM   20  C14 UNL     1      25.472   2.535  53.074  1.00  0.00     0.042 A 
HETATM   21 CL2  UNL     1      24.182   3.641  53.487  1.00  0.00    -0.084 Cl
ENDBRANCH  13  14
ENDBRANCH   8  13
BRANCH   1  22
HETATM   22  C2  UNL     1      29.063   9.825  49.187  1.00  0.00     0.159 C 
HETATM   23  C1  UNL     1      30.260   8.928  49.511  1.00  0.00     0.038 C 
BRANCH  22  24
HETATM   24  C15 UNL     1      29.529  11.132  48.578  1.00  0.00     0.223 C 
HETATM   25  F1  UNL     1      30.651  11.534  49.250  1.00  0.00    -0.245 F 
BRANCH  24  26
HETATM   26  C16 UNL     1      28.386  12.124  48.775  1.00  0.00     0.261 C 
HETATM   27  F2  UNL     1      28.721  13.077  49.691  1.00  0.00    -0.252 F 
ENDBRANCH  24  26
ENDBRANCH  22  24
ENDBRANCH   1  22
TORSDOF 5
ENDMDL
