MODEL 1
REMARK VINA RESULT:      -9.8      0.000      0.000
REMARK  6 active torsions:
REMARK  status: ('A' for Active; 'I' for Inactive)
REMARK    1  A    between atoms: C1_2  and  C2_3 
REMARK       I    between atoms: C1_2  and  N2_12 
REMARK    2  A    between atoms: C3_4  and  C4_5 
REMARK    3  A    between atoms: C4_5  and  C5_6 
REMARK    4  A    between atoms: N2_12  and  C9_13 
REMARK    5  A    between atoms: C14_20  and  N5_21 
REMARK    6  A    between atoms: N5_21  and  C15_22 
ROOT
HETATM    1  C9  UNL     1      24.390   3.619  50.383  1.00  0.00     0.036 A 
HETATM    2  C10 UNL     1      23.224   3.237  49.734  1.00  0.00     0.032 A 
HETATM    3  C11 UNL     1      22.537   2.151  50.234  1.00  0.00     0.035 A 
HETATM    4  C12 UNL     1      23.006   1.483  51.338  1.00  0.00     0.072 A 
HETATM    5  N3  UNL     1      22.277   0.436  51.760  1.00  0.00    -0.241 NA
HETATM    6  C13 UNL     1      22.650  -0.283  52.831  1.00  0.00     0.236 A 
HETATM    7  N4  UNL     1      23.760   0.099  53.431  1.00  0.00    -0.224 NA
HETATM    8  C14 UNL     1      24.565   1.114  53.109  1.00  0.00     0.142 A 
HETATM    9  C21 UNL     1      24.158   1.834  52.008  1.00  0.00     0.041 A 
HETATM   10  C22 UNL     1      24.803   2.911  51.480  1.00  0.00     0.047 A 
ENDROOT
BRANCH   1  11
HETATM   11  N2  UNL     1      25.118   4.748  49.878  1.00  0.00    -0.316 N 
HETATM   12  C1  UNL     1      26.336   4.313  49.285  1.00  0.00     0.300 C 
HETATM   13  O1  UNL     1      26.535   3.053  49.317  1.00  0.00    -0.258 OA
HETATM   14  H11 UNL     1      24.930   5.777  49.866  1.00  0.00     0.170 HD
BRANCH  12  15
HETATM   15  C2  UNL     1      27.290   5.206  48.687  1.00  0.00    -0.005 C 
HETATM   16  C3  UNL     1      28.088   5.954  48.174  1.00  0.00    -0.094 C 
BRANCH  16  17
HETATM   17  C4  UNL     1      29.045   6.884  47.553  1.00  0.00     0.132 C 
BRANCH  17  18
HETATM   18  C5  UNL     1      30.477   6.529  47.964  1.00  0.00     0.255 C 
HETATM   19  C6  UNL     1      30.731   5.121  47.482  1.00  0.00     0.204 C 
HETATM   20  O2  UNL     1      31.606   4.410  48.292  1.00  0.00    -0.387 OA
HETATM   21  C7  UNL     1      32.585   5.233  48.847  1.00  0.00     0.197 C 
HETATM   22  C8  UNL     1      32.002   6.309  49.716  1.00  0.00     0.296 C 
HETATM   23  N1  UNL     1      30.608   6.541  49.406  1.00  0.00     0.093 N 
HETATM   24  H10 UNL     1      30.039   5.762  49.790  1.00  0.00     0.316 HD
ENDBRANCH  17  18
ENDBRANCH  16  17
ENDBRANCH  12  15
ENDBRANCH   1  11
BRANCH   8  25
HETATM   25  N5  UNL     1      25.750   1.501  53.772  1.00  0.00    -0.340 N 
HETATM   26  H15 UNL     1      25.786   2.337  54.384  1.00  0.00     0.167 HD
BRANCH  25  27
HETATM   27  C15 UNL     1      27.027   0.904  53.756  1.00  0.00     0.035 A 
HETATM   28  C16 UNL     1      28.231   1.547  54.054  1.00  0.00     0.032 A 
HETATM   29  C17 UNL     1      29.453   0.920  54.026  1.00  0.00     0.046 A 
HETATM   30  C18 UNL     1      29.561  -0.397  53.694  1.00  0.00     0.138 A 
HETATM   31  F1  UNL     1      30.795  -0.936  53.689  1.00  0.00    -0.204 F 
HETATM   32  C19 UNL     1      28.394  -1.078  53.390  1.00  0.00     0.074 A 
HETATM   33 CL1  UNL     1      28.595  -2.766  52.973  1.00  0.00    -0.081 Cl
HETATM   34  C20 UNL     1      27.185  -0.423  53.428  1.00  0.00     0.056 A 
ENDBRANCH  25  27
ENDBRANCH   8  25
TORSDOF 6
ENDMDL
MODEL 2
REMARK VINA RESULT:      -9.7      1.485      1.893
REMARK  6 active torsions:
REMARK  status: ('A' for Active; 'I' for Inactive)
REMARK    1  A    between atoms: C1_2  and  C2_3 
REMARK       I    between atoms: C1_2  and  N2_12 
REMARK    2  A    between atoms: C3_4  and  C4_5 
REMARK    3  A    between atoms: C4_5  and  C5_6 
REMARK    4  A    between atoms: N2_12  and  C9_13 
REMARK    5  A    between atoms: C14_20  and  N5_21 
REMARK    6  A    between atoms: N5_21  and  C15_22 
ROOT
HETATM    1  C9  UNL     1      24.525   3.547  50.262  1.00  0.00     0.036 A 
HETATM    2  C10 UNL     1      23.397   3.244  49.511  1.00  0.00     0.032 A 
HETATM    3  C11 UNL     1      22.586   2.220  49.955  1.00  0.00     0.035 A 
HETATM    4  C12 UNL     1      22.901   1.537  51.104  1.00  0.00     0.072 A 
HETATM    5  N3  UNL     1      22.059   0.554  51.466  1.00  0.00    -0.241 NA
HETATM    6  C13 UNL     1      22.277  -0.174  52.574  1.00  0.00     0.236 A 
HETATM    7  N4  UNL     1      23.353   0.133  53.270  1.00  0.00    -0.224 NA
HETATM    8  C14 UNL     1      24.259   1.080  53.014  1.00  0.00     0.142 A 
HETATM    9  C21 UNL     1      24.011   1.810  51.874  1.00  0.00     0.041 A 
HETATM   10  C22 UNL     1      24.781   2.828  51.398  1.00  0.00     0.047 A 
ENDROOT
BRANCH   1  11
HETATM   11  N2  UNL     1      25.380   4.610  49.815  1.00  0.00    -0.316 N 
HETATM   12  C1  UNL     1      26.580   4.070  49.271  1.00  0.00     0.300 C 
HETATM   13  O1  UNL     1      26.657   2.796  49.286  1.00  0.00    -0.258 OA
HETATM   14  H11 UNL     1      25.290   5.652  49.816  1.00  0.00     0.170 HD
BRANCH  12  15
HETATM   15  C2  UNL     1      27.642   4.878  48.738  1.00  0.00    -0.005 C 
HETATM   16  C3  UNL     1      28.530   5.566  48.295  1.00  0.00    -0.094 C 
BRANCH  16  17
HETATM   17  C4  UNL     1      29.626   6.399  47.774  1.00  0.00     0.132 C 
BRANCH  17  18
HETATM   18  C5  UNL     1      29.353   7.879  48.059  1.00  0.00     0.255 C 
HETATM   19  C6  UNL     1      30.695   8.572  48.075  1.00  0.00     0.204 C 
HETATM   20  O2  UNL     1      30.745   9.656  48.941  1.00  0.00    -0.387 OA
HETATM   21  C7  UNL     1      29.523  10.322  49.010  1.00  0.00     0.197 C 
HETATM   22  C8  UNL     1      28.419   9.441  49.519  1.00  0.00     0.296 C 
HETATM   23  N1  UNL     1      28.749   8.041  49.365  1.00  0.00     0.093 N 
HETATM   24  H10 UNL     1      29.449   7.774  50.083  1.00  0.00     0.316 HD
ENDBRANCH  17  18
ENDBRANCH  16  17
ENDBRANCH  12  15
ENDBRANCH   1  11
BRANCH   8  25
HETATM   25  N5  UNL     1      25.405   1.387  53.780  1.00  0.00    -0.340 N 
HETATM   26  H15 UNL     1      25.385   2.099  54.533  1.00  0.00     0.167 HD
BRANCH  25  27
HETATM   27  C15 UNL     1      26.707   0.853  53.705  1.00  0.00     0.035 A 
HETATM   28  C16 UNL     1      27.893   1.563  53.917  1.00  0.00     0.032 A 
HETATM   29  C17 UNL     1      29.141   0.996  53.834  1.00  0.00     0.046 A 
HETATM   30  C18 UNL     1      29.297  -0.323  53.530  1.00  0.00     0.138 A 
HETATM   31  F1  UNL     1      30.555  -0.801  53.468  1.00  0.00    -0.204 F 
HETATM   32  C19 UNL     1      28.150  -1.069  53.312  1.00  0.00     0.074 A 
HETATM   33 CL1  UNL     1      28.413  -2.756  52.927  1.00  0.00    -0.081 Cl
HETATM   34  C20 UNL     1      26.914  -0.473  53.403  1.00  0.00     0.056 A 
ENDBRANCH  25  27
ENDBRANCH   8  25
TORSDOF 6
ENDMDL
MODEL 3
REMARK VINA RESULT:      -9.2      1.731      2.214
REMARK  6 active torsions:
REMARK  status: ('A' for Active; 'I' for Inactive)
REMARK    1  A    between atoms: C1_2  and  C2_3 
REMARK       I    between atoms: C1_2  and  N2_12 
REMARK    2  A    between atoms: C3_4  and  C4_5 
REMARK    3  A    between atoms: C4_5  and  C5_6 
REMARK    4  A    between atoms: N2_12  and  C9_13 
REMARK    5  A    between atoms: C14_20  and  N5_21 
REMARK    6  A    between atoms: N5_21  and  C15_22 
ROOT
HETATM    1  C9  UNL     1      25.361   4.994  49.654  1.00  0.00     0.036 A 
HETATM    2  C10 UNL     1      24.219   5.027  48.866  1.00  0.00     0.032 A 
HETATM    3  C11 UNL     1      23.119   4.317  49.300  1.00  0.00     0.035 A 
HETATM    4  C12 UNL     1      23.172   3.608  50.475  1.00  0.00     0.072 A 
HETATM    5  N3  UNL     1      22.058   2.944  50.826  1.00  0.00    -0.241 NA
HETATM    6  C13 UNL     1      22.006   2.222  51.957  1.00  0.00     0.236 A 
HETATM    7  N4  UNL     1      23.103   2.207  52.688  1.00  0.00    -0.224 NA
HETATM    8  C14 UNL     1      24.263   2.821  52.447  1.00  0.00     0.142 A 
HETATM    9  C21 UNL     1      24.288   3.554  51.283  1.00  0.00     0.041 A 
HETATM   10  C22 UNL     1      25.348   4.269  50.815  1.00  0.00     0.047 A 
ENDROOT
BRANCH   1  11
HETATM   11  N2  UNL     1      26.516   5.727  49.218  1.00  0.00    -0.316 N 
HETATM   12  C1  UNL     1      27.548   4.825  48.837  1.00  0.00     0.300 C 
HETATM   13  O1  UNL     1      27.256   3.588  48.953  1.00  0.00    -0.258 OA
HETATM   14  H11 UNL     1      26.728   6.748  49.134  1.00  0.00     0.170 HD
BRANCH  12  15
HETATM   15  C2  UNL     1      28.833   5.248  48.355  1.00  0.00    -0.005 C 
HETATM   16  C3  UNL     1      29.909   5.614  47.947  1.00  0.00    -0.094 C 
BRANCH  16  17
HETATM   17  C4  UNL     1      31.227   6.067  47.472  1.00  0.00     0.132 C 
BRANCH  17  18
HETATM   18  C5  UNL     1      32.278   4.976  47.693  1.00  0.00     0.255 C 
HETATM   19  C6  UNL     1      33.521   5.667  48.203  1.00  0.00     0.204 C 
HETATM   20  O2  UNL     1      34.697   5.040  47.819  1.00  0.00    -0.387 OA
HETATM   21  C7  UNL     1      34.549   3.656  47.748  1.00  0.00     0.197 C 
HETATM   22  C8  UNL     1      33.516   3.242  46.741  1.00  0.00     0.296 C 
HETATM   23  N1  UNL     1      32.607   4.328  46.441  1.00  0.00     0.093 N 
HETATM   24  H10 UNL     1      33.089   5.018  45.834  1.00  0.00     0.316 HD
ENDBRANCH  17  18
ENDBRANCH  16  17
ENDBRANCH  12  15
ENDBRANCH   1  11
BRANCH   8  25
HETATM   25  N5  UNL     1      25.424   2.787  53.251  1.00  0.00    -0.340 N 
HETATM   26  H15 UNL     1      25.612   3.508  53.971  1.00  0.00     0.167 HD
BRANCH  25  27
HETATM   27  C15 UNL     1      26.487   1.861  53.259  1.00  0.00     0.035 A 
HETATM   28  C16 UNL     1      27.820   2.153  53.561  1.00  0.00     0.032 A 
HETATM   29  C17 UNL     1      28.822   1.214  53.556  1.00  0.00     0.046 A 
HETATM   30  C18 UNL     1      28.565  -0.088  53.246  1.00  0.00     0.138 A 
HETATM   31  F1  UNL     1      29.604  -0.946  53.263  1.00  0.00    -0.204 F 
HETATM   32  C19 UNL     1      27.258  -0.427  52.939  1.00  0.00     0.074 A 
HETATM   33 CL1  UNL     1      26.990  -2.112  52.550  1.00  0.00    -0.081 Cl
HETATM   34  C20 UNL     1      26.276   0.536  52.953  1.00  0.00     0.056 A 
ENDBRANCH  25  27
ENDBRANCH   8  25
TORSDOF 6
ENDMDL
MODEL 4
REMARK VINA RESULT:      -9.1      2.082      2.552
REMARK  6 active torsions:
REMARK  status: ('A' for Active; 'I' for Inactive)
REMARK    1  A    between atoms: C1_2  and  C2_3 
REMARK       I    between atoms: C1_2  and  N2_12 
REMARK    2  A    between atoms: C3_4  and  C4_5 
REMARK    3  A    between atoms: C4_5  and  C5_6 
REMARK    4  A    between atoms: N2_12  and  C9_13 
REMARK    5  A    between atoms: C14_20  and  N5_21 
REMARK    6  A    between atoms: N5_21  and  C15_22 
ROOT
HETATM    1  C9  UNL     1      24.231   5.587  50.981  1.00  0.00     0.036 A 
HETATM    2  C10 UNL     1      23.076   6.327  51.190  1.00  0.00     0.032 A 
HETATM    3  C11 UNL     1      21.948   5.653  51.612  1.00  0.00     0.035 A 
HETATM    4  C12 UNL     1      21.989   4.295  51.813  1.00  0.00     0.072 A 
HETATM    5  N3  UNL     1      20.848   3.716  52.223  1.00  0.00    -0.241 NA
HETATM    6  C13 UNL     1      20.782   2.394  52.449  1.00  0.00     0.236 A 
HETATM    7  N4  UNL     1      21.893   1.712  52.244  1.00  0.00    -0.224 NA
HETATM    8  C14 UNL     1      23.079   2.171  51.839  1.00  0.00     0.142 A 
HETATM    9  C21 UNL     1      23.117   3.528  51.616  1.00  0.00     0.041 A 
HETATM   10  C22 UNL     1      24.205   4.236  51.200  1.00  0.00     0.047 A 
ENDROOT
BRANCH   1  11
HETATM   11  N2  UNL     1      25.414   6.271  50.542  1.00  0.00    -0.316 N 
HETATM   12  C1  UNL     1      25.653   5.994  49.167  1.00  0.00     0.300 C 
HETATM   13  O1  UNL     1      24.801   5.221  48.614  1.00  0.00    -0.258 OA
HETATM   14  H11 UNL     1      26.097   6.902  51.021  1.00  0.00     0.170 HD
BRANCH  12  15
HETATM   15  C2  UNL     1      26.763   6.532  48.431  1.00  0.00    -0.005 C 
HETATM   16  C3  UNL     1      27.699   6.991  47.821  1.00  0.00    -0.094 C 
BRANCH  16  17
HETATM   17  C4  UNL     1      28.853   7.534  47.086  1.00  0.00     0.132 C 
BRANCH  17  18
HETATM   18  C5  UNL     1      30.160   7.153  47.789  1.00  0.00     0.255 C 
HETATM   19  C6  UNL     1      30.103   5.664  48.034  1.00  0.00     0.204 C 
HETATM   20  O2  UNL     1      30.777   5.268  49.180  1.00  0.00    -0.387 OA
HETATM   21  C7  UNL     1      31.903   6.054  49.419  1.00  0.00     0.197 C 
HETATM   22  C8  UNL     1      31.557   7.501  49.624  1.00  0.00     0.296 C 
HETATM   23  N1  UNL     1      30.258   7.816  49.072  1.00  0.00     0.093 N 
HETATM   24  H10 UNL     1      29.521   7.432  49.693  1.00  0.00     0.316 HD
ENDBRANCH  17  18
ENDBRANCH  16  17
ENDBRANCH  12  15
ENDBRANCH   1  11
BRANCH   8  25
HETATM   25  N5  UNL     1      24.253   1.415  51.629  1.00  0.00    -0.340 N 
HETATM   26  H15 UNL     1      24.508   1.049  50.694  1.00  0.00     0.167 HD
BRANCH  25  27
HETATM   27  C15 UNL     1      25.248   1.024  52.548  1.00  0.00     0.035 A 
HETATM   28  C16 UNL     1      25.195  -0.101  53.376  1.00  0.00     0.032 A 
HETATM   29  C17 UNL     1      26.192  -0.442  54.256  1.00  0.00     0.046 A 
HETATM   30  C18 UNL     1      27.318   0.317  54.374  1.00  0.00     0.138 A 
HETATM   31  F1  UNL     1      28.248  -0.087  55.261  1.00  0.00    -0.204 F 
HETATM   32  C19 UNL     1      27.417   1.443  53.574  1.00  0.00     0.074 A 
HETATM   33 CL1  UNL     1      28.883   2.378  53.770  1.00  0.00    -0.081 Cl
HETATM   34  C20 UNL     1      26.401   1.759  52.702  1.00  0.00     0.056 A 
ENDBRANCH  25  27
ENDBRANCH   8  25
TORSDOF 6
ENDMDL
MODEL 5
REMARK VINA RESULT:      -9.0      4.902     10.124
REMARK  6 active torsions:
REMARK  status: ('A' for Active; 'I' for Inactive)
REMARK    1  A    between atoms: C1_2  and  C2_3 
REMARK       I    between atoms: C1_2  and  N2_12 
REMARK    2  A    between atoms: C3_4  and  C4_5 
REMARK    3  A    between atoms: C4_5  and  C5_6 
REMARK    4  A    between atoms: N2_12  and  C9_13 
REMARK    5  A    between atoms: C14_20  and  N5_21 
REMARK    6  A    between atoms: N5_21  and  C15_22 
ROOT
HETATM    1  C9  UNL     1      24.175  -0.191  53.298  1.00  0.00     0.036 A 
HETATM    2  C10 UNL     1      24.766  -0.606  54.483  1.00  0.00     0.032 A 
HETATM    3  C11 UNL     1      26.017  -0.109  54.786  1.00  0.00     0.035 A 
HETATM    4  C12 UNL     1      26.639   0.767  53.930  1.00  0.00     0.072 A 
HETATM    5  N3  UNL     1      27.855   1.203  54.299  1.00  0.00    -0.241 NA
HETATM    6  C13 UNL     1      28.547   2.062  53.533  1.00  0.00     0.236 A 
HETATM    7  N4  UNL     1      27.965   2.442  52.412  1.00  0.00    -0.224 NA
HETATM    8  C14 UNL     1      26.770   2.080  51.941  1.00  0.00     0.142 A 
HETATM    9  C21 UNL     1      26.083   1.201  52.746  1.00  0.00     0.041 A 
HETATM   10  C22 UNL     1      24.849   0.684  52.489  1.00  0.00     0.047 A 
ENDROOT
BRANCH   1  11
HETATM   11  N2  UNL     1      22.873  -0.698  52.967  1.00  0.00    -0.316 N 
HETATM   12  C1  UNL     1      21.912   0.348  53.047  1.00  0.00     0.300 C 
HETATM   13  O1  UNL     1      22.376   1.487  53.384  1.00  0.00    -0.258 OA
HETATM   14  H11 UNL     1      22.520  -1.643  52.693  1.00  0.00     0.170 HD
BRANCH  12  15
HETATM   15  C2  UNL     1      20.513   0.161  52.773  1.00  0.00    -0.005 C 
HETATM   16  C3  UNL     1      19.336   0.012  52.552  1.00  0.00    -0.094 C 
BRANCH  16  17
HETATM   17  C4  UNL     1      17.901  -0.153  52.266  1.00  0.00     0.132 C 
BRANCH  17  18
HETATM   18  C5  UNL     1      17.492  -1.621  52.416  1.00  0.00     0.255 C 
HETATM   19  C6  UNL     1      16.022  -1.699  52.080  1.00  0.00     0.204 C 
HETATM   20  O2  UNL     1      15.348  -2.691  52.779  1.00  0.00    -0.387 OA
HETATM   21  C7  UNL     1      16.155  -3.804  53.007  1.00  0.00     0.197 C 
HETATM   22  C8  UNL     1      17.366  -3.474  53.830  1.00  0.00     0.296 C 
HETATM   23  N1  UNL     1      17.663  -2.058  53.786  1.00  0.00     0.093 N 
HETATM   24  H10 UNL     1      16.980  -1.548  54.378  1.00  0.00     0.316 HD
ENDBRANCH  17  18
ENDBRANCH  16  17
ENDBRANCH  12  15
ENDBRANCH   1  11
BRANCH   8  25
HETATM   25  N5  UNL     1      26.170   2.505  50.735  1.00  0.00    -0.340 N 
HETATM   26  H15 UNL     1      25.571   1.876  50.170  1.00  0.00     0.167 HD
BRANCH  25  27
HETATM   27  C15 UNL     1      26.242   3.755  50.085  1.00  0.00     0.035 A 
HETATM   28  C16 UNL     1      27.214   4.136  49.156  1.00  0.00     0.032 A 
HETATM   29  C17 UNL     1      27.240   5.367  48.548  1.00  0.00     0.046 A 
HETATM   30  C18 UNL     1      26.297   6.310  48.826  1.00  0.00     0.138 A 
HETATM   31  F1  UNL     1      26.394   7.492  48.188  1.00  0.00    -0.204 F 
HETATM   32  C19 UNL     1      25.312   5.979  49.742  1.00  0.00     0.074 A 
HETATM   33 CL1  UNL     1      24.129   7.230  50.058  1.00  0.00    -0.081 Cl
HETATM   34  C20 UNL     1      25.311   4.738  50.334  1.00  0.00     0.056 A 
ENDBRANCH  25  27
ENDBRANCH   8  25
TORSDOF 6
ENDMDL
MODEL 6
REMARK VINA RESULT:      -8.9      3.184      8.336
REMARK  6 active torsions:
REMARK  status: ('A' for Active; 'I' for Inactive)
REMARK    1  A    between atoms: C1_2  and  C2_3 
REMARK       I    between atoms: C1_2  and  N2_12 
REMARK    2  A    between atoms: C3_4  and  C4_5 
REMARK    3  A    between atoms: C4_5  and  C5_6 
REMARK    4  A    between atoms: N2_12  and  C9_13 
REMARK    5  A    between atoms: C14_20  and  N5_21 
REMARK    6  A    between atoms: N5_21  and  C15_22 
ROOT
HETATM    1  C9  UNL     1      26.931   6.578  48.650  1.00  0.00     0.036 A 
HETATM    2  C10 UNL     1      26.060   7.196  47.762  1.00  0.00     0.032 A 
HETATM    3  C11 UNL     1      26.602   8.035  46.811  1.00  0.00     0.035 A 
HETATM    4  C12 UNL     1      27.959   8.240  46.760  1.00  0.00     0.072 A 
HETATM    5  N3  UNL     1      28.404   9.073  45.804  1.00  0.00    -0.241 NA
HETATM    6  C13 UNL     1      29.713   9.340  45.670  1.00  0.00     0.236 A 
HETATM    7  N4  UNL     1      30.520   8.741  46.524  1.00  0.00    -0.224 NA
HETATM    8  C14 UNL     1      30.200   7.900  47.509  1.00  0.00     0.142 A 
HETATM    9  C21 UNL     1      28.853   7.644  47.624  1.00  0.00     0.041 A 
HETATM   10  C22 UNL     1      28.274   6.824  48.545  1.00  0.00     0.047 A 
ENDROOT
BRANCH   1  11
HETATM   11  N2  UNL     1      26.386   5.700  49.646  1.00  0.00    -0.316 N 
HETATM   12  C1  UNL     1      26.925   4.393  49.488  1.00  0.00     0.300 C 
HETATM   13  O1  UNL     1      27.757   4.262  48.528  1.00  0.00    -0.258 OA
HETATM   14  H11 UNL     1      25.701   5.837  50.425  1.00  0.00     0.170 HD
BRANCH  12  15
HETATM   15  C2  UNL     1      26.577   3.284  50.332  1.00  0.00    -0.005 C 
HETATM   16  C3  UNL     1      26.295   2.352  51.046  1.00  0.00    -0.094 C 
BRANCH  16  17
HETATM   17  C4  UNL     1      25.942   1.231  51.933  1.00  0.00     0.132 C 
BRANCH  17  18
HETATM   18  C5  UNL     1      27.172   0.761  52.715  1.00  0.00     0.255 C 
HETATM   19  C6  UNL     1      26.684  -0.249  53.726  1.00  0.00     0.204 C 
HETATM   20  O2  UNL     1      27.428  -0.261  54.897  1.00  0.00    -0.387 OA
HETATM   21  C7  UNL     1      28.773   0.016  54.660  1.00  0.00     0.197 C 
HETATM   22  C8  UNL     1      28.979   1.376  54.056  1.00  0.00     0.296 C 
HETATM   23  N1  UNL     1      27.767   1.866  53.436  1.00  0.00     0.093 N 
HETATM   24  H10 UNL     1      27.103   2.168  54.175  1.00  0.00     0.316 HD
ENDBRANCH  17  18
ENDBRANCH  16  17
ENDBRANCH  12  15
ENDBRANCH   1  11
BRANCH   8  25
HETATM   25  N5  UNL     1      31.088   7.272  48.410  1.00  0.00    -0.340 N 
HETATM   26  H15 UNL     1      31.139   7.544  49.408  1.00  0.00     0.167 HD
BRANCH  25  27
HETATM   27  C15 UNL     1      32.018   6.236  48.183  1.00  0.00     0.035 A 
HETATM   28  C16 UNL     1      33.372   6.266  48.531  1.00  0.00     0.032 A 
HETATM   29  C17 UNL     1      34.239   5.229  48.289  1.00  0.00     0.046 A 
HETATM   30  C18 UNL     1      33.817   4.085  47.679  1.00  0.00     0.138 A 
HETATM   31  F1  UNL     1      34.731   3.117  47.478  1.00  0.00    -0.204 F 
HETATM   32  C19 UNL     1      32.483   4.009  47.315  1.00  0.00     0.074 A 
HETATM   33 CL1  UNL     1      32.001   2.517  46.537  1.00  0.00    -0.081 Cl
HETATM   34  C20 UNL     1      31.639   5.064  47.571  1.00  0.00     0.056 A 
ENDBRANCH  25  27
ENDBRANCH   8  25
TORSDOF 6
ENDMDL
MODEL 7
REMARK VINA RESULT:      -8.9      3.404      7.971
REMARK  6 active torsions:
REMARK  status: ('A' for Active; 'I' for Inactive)
REMARK    1  A    between atoms: C1_2  and  C2_3 
REMARK       I    between atoms: C1_2  and  N2_12 
REMARK    2  A    between atoms: C3_4  and  C4_5 
REMARK    3  A    between atoms: C4_5  and  C5_6 
REMARK    4  A    between atoms: N2_12  and  C9_13 
REMARK    5  A    between atoms: C14_20  and  N5_21 
REMARK    6  A    between atoms: N5_21  and  C15_22 
ROOT
HETATM    1  C9  UNL     1      25.231   5.430  49.760  1.00  0.00     0.036 A 
HETATM    2  C10 UNL     1      24.100   5.732  49.013  1.00  0.00     0.032 A 
HETATM    3  C11 UNL     1      24.227   6.666  48.006  1.00  0.00     0.035 A 
HETATM    4  C12 UNL     1      25.439   7.265  47.765  1.00  0.00     0.072 A 
HETATM    5  N3  UNL     1      25.475   8.163  46.766  1.00  0.00    -0.241 NA
HETATM    6  C13 UNL     1      26.612   8.804  46.450  1.00  0.00     0.236 A 
HETATM    7  N4  UNL     1      27.673   8.499  47.172  1.00  0.00    -0.224 NA
HETATM    8  C14 UNL     1      27.761   7.632  48.182  1.00  0.00     0.142 A 
HETATM    9  C21 UNL     1      26.582   6.989  48.484  1.00  0.00     0.041 A 
HETATM   10  C22 UNL     1      26.410   6.062  49.467  1.00  0.00     0.047 A 
ENDROOT
BRANCH   1  11
HETATM   11  N2  UNL     1      25.119   4.460  50.812  1.00  0.00    -0.316 N 
HETATM   12  C1  UNL     1      25.799   3.266  50.445  1.00  0.00     0.300 C 
HETATM   13  O1  UNL     1      26.355   3.290  49.296  1.00  0.00    -0.258 OA
HETATM   14  H11 UNL     1      24.653   4.469  51.748  1.00  0.00     0.170 HD
BRANCH  12  15
HETATM   15  C2  UNL     1      25.871   2.103  51.286  1.00  0.00    -0.005 C 
HETATM   16  C3  UNL     1      25.919   1.127  51.995  1.00  0.00    -0.094 C 
BRANCH  16  17
HETATM   17  C4  UNL     1      25.977  -0.078  52.839  1.00  0.00     0.132 C 
BRANCH  17  18
HETATM   18  C5  UNL     1      27.393  -0.663  52.838  1.00  0.00     0.255 C 
HETATM   19  C6  UNL     1      27.248  -2.151  52.630  1.00  0.00     0.204 C 
HETATM   20  O2  UNL     1      28.238  -2.895  53.255  1.00  0.00    -0.387 OA
HETATM   21  C7  UNL     1      29.461  -2.226  53.267  1.00  0.00     0.197 C 
HETATM   22  C8  UNL     1      29.393  -0.924  54.011  1.00  0.00     0.296 C 
HETATM   23  N1  UNL     1      28.030  -0.449  54.121  1.00  0.00     0.093 N 
HETATM   24  H10 UNL     1      27.528  -1.014  54.831  1.00  0.00     0.316 HD
ENDBRANCH  17  18
ENDBRANCH  16  17
ENDBRANCH  12  15
ENDBRANCH   1  11
BRANCH   8  25
HETATM   25  N5  UNL     1      28.913   7.325  48.939  1.00  0.00    -0.340 N 
HETATM   26  H15 UNL     1      28.931   7.419  49.971  1.00  0.00     0.167 HD
BRANCH  25  27
HETATM   27  C15 UNL     1      30.176   6.869  48.510  1.00  0.00     0.035 A 
HETATM   28  C16 UNL     1      31.373   7.586  48.593  1.00  0.00     0.032 A 
HETATM   29  C17 UNL     1      32.582   7.097  48.162  1.00  0.00     0.046 A 
HETATM   30  C18 UNL     1      32.683   5.853  47.614  1.00  0.00     0.138 A 
HETATM   31  F1  UNL     1      33.905   5.449  47.216  1.00  0.00    -0.204 F 
HETATM   32  C19 UNL     1      31.524   5.103  47.510  1.00  0.00     0.074 A 
HETATM   33 CL1  UNL     1      31.716   3.516  46.799  1.00  0.00    -0.081 Cl
HETATM   34  C20 UNL     1      30.328   5.620  47.951  1.00  0.00     0.056 A 
ENDBRANCH  25  27
ENDBRANCH   8  25
TORSDOF 6
ENDMDL
MODEL 8
REMARK VINA RESULT:      -8.7      4.439      9.249
REMARK  6 active torsions:
REMARK  status: ('A' for Active; 'I' for Inactive)
REMARK    1  A    between atoms: C1_2  and  C2_3 
REMARK       I    between atoms: C1_2  and  N2_12 
REMARK    2  A    between atoms: C3_4  and  C4_5 
REMARK    3  A    between atoms: C4_5  and  C5_6 
REMARK    4  A    between atoms: N2_12  and  C9_13 
REMARK    5  A    between atoms: C14_20  and  N5_21 
REMARK    6  A    between atoms: N5_21  and  C15_22 
ROOT
HETATM    1  C9  UNL     1      24.356  -0.305  53.421  1.00  0.00     0.036 A 
HETATM    2  C10 UNL     1      24.834  -0.620  54.686  1.00  0.00     0.032 A 
HETATM    3  C11 UNL     1      26.060  -0.106  55.055  1.00  0.00     0.035 A 
HETATM    4  C12 UNL     1      26.767   0.688  54.187  1.00  0.00     0.072 A 
HETATM    5  N3  UNL     1      27.952   1.147  54.625  1.00  0.00    -0.241 NA
HETATM    6  C13 UNL     1      28.721   1.932  53.852  1.00  0.00     0.236 A 
HETATM    7  N4  UNL     1      28.245   2.218  52.656  1.00  0.00    -0.224 NA
HETATM    8  C14 UNL     1      27.091   1.825  52.112  1.00  0.00     0.142 A 
HETATM    9  C21 UNL     1      26.324   1.023  52.925  1.00  0.00     0.041 A 
HETATM   10  C22 UNL     1      25.110   0.493  52.604  1.00  0.00     0.047 A 
ENDROOT
BRANCH   1  11
HETATM   11  N2  UNL     1      23.082  -0.830  53.019  1.00  0.00    -0.316 N 
HETATM   12  C1  UNL     1      22.128   0.222  52.936  1.00  0.00     0.300 C 
HETATM   13  O1  UNL     1      22.575   1.382  53.224  1.00  0.00    -0.258 OA
HETATM   14  H11 UNL     1      22.743  -1.793  52.790  1.00  0.00     0.170 HD
BRANCH  12  15
HETATM   15  C2  UNL     1      20.756   0.021  52.559  1.00  0.00    -0.005 C 
HETATM   16  C3  UNL     1      19.600  -0.145  52.253  1.00  0.00    -0.094 C 
BRANCH  16  17
HETATM   17  C4  UNL     1      18.190  -0.325  51.871  1.00  0.00     0.132 C 
BRANCH  17  18
HETATM   18  C5  UNL     1      17.721   0.840  50.994  1.00  0.00     0.255 C 
HETATM   19  C6  UNL     1      16.332   0.491  50.514  1.00  0.00     0.204 C 
HETATM   20  O2  UNL     1      16.038   1.004  49.259  1.00  0.00    -0.387 OA
HETATM   21  C7  UNL     1      16.648   2.239  49.046  1.00  0.00     0.197 C 
HETATM   22  C8  UNL     1      18.146   2.155  49.114  1.00  0.00     0.296 C 
HETATM   23  N1  UNL     1      18.576   0.976  49.833  1.00  0.00     0.093 N 
HETATM   24  H10 UNL     1      18.442   0.141  49.231  1.00  0.00     0.316 HD
ENDBRANCH  17  18
ENDBRANCH  16  17
ENDBRANCH  12  15
ENDBRANCH   1  11
BRANCH   8  25
HETATM   25  N5  UNL     1      26.607   2.148  50.826  1.00  0.00    -0.340 N 
HETATM   26  H15 UNL     1      26.427   1.421  50.110  1.00  0.00     0.167 HD
BRANCH  25  27
HETATM   27  C15 UNL     1      26.289   3.406  50.273  1.00  0.00     0.035 A 
HETATM   28  C16 UNL     1      27.029   4.075  49.293  1.00  0.00     0.032 A 
HETATM   29  C17 UNL     1      26.677   5.301  48.785  1.00  0.00     0.046 A 
HETATM   30  C18 UNL     1      25.561   5.951  49.219  1.00  0.00     0.138 A 
HETATM   31  F1  UNL     1      25.287   7.150  48.670  1.00  0.00    -0.204 F 
HETATM   32  C19 UNL     1      24.795   5.327  50.190  1.00  0.00     0.074 A 
HETATM   33 CL1  UNL     1      23.374   6.208  50.708  1.00  0.00    -0.081 Cl
HETATM   34  C20 UNL     1      25.173   4.099  50.680  1.00  0.00     0.056 A 
ENDBRANCH  25  27
ENDBRANCH   8  25
TORSDOF 6
ENDMDL
MODEL 9
REMARK VINA RESULT:      -8.5      3.838      8.104
REMARK  6 active torsions:
REMARK  status: ('A' for Active; 'I' for Inactive)
REMARK    1  A    between atoms: C1_2  and  C2_3 
REMARK       I    between atoms: C1_2  and  N2_12 
REMARK    2  A    between atoms: C3_4  and  C4_5 
REMARK    3  A    between atoms: C4_5  and  C5_6 
REMARK    4  A    between atoms: N2_12  and  C9_13 
REMARK    5  A    between atoms: C14_20  and  N5_21 
REMARK    6  A    between atoms: N5_21  and  C15_22 
ROOT
HETATM    1  C9  UNL     1      24.950   4.510  49.127  1.00  0.00     0.036 A 
HETATM    2  C10 UNL     1      23.708   4.866  48.619  1.00  0.00     0.032 A 
HETATM    3  C11 UNL     1      23.558   6.147  48.129  1.00  0.00     0.035 A 
HETATM    4  C12 UNL     1      24.613   7.025  48.151  1.00  0.00     0.072 A 
HETATM    5  N3  UNL     1      24.383   8.252  47.656  1.00  0.00    -0.241 NA
HETATM    6  C13 UNL     1      25.349   9.185  47.632  1.00  0.00     0.236 A 
HETATM    7  N4  UNL     1      26.519   8.823  48.119  1.00  0.00    -0.224 NA
HETATM    8  C14 UNL     1      26.868   7.643  48.636  1.00  0.00     0.142 A 
HETATM    9  C21 UNL     1      25.860   6.707  48.647  1.00  0.00     0.041 A 
HETATM   10  C22 UNL     1      25.961   5.433  49.120  1.00  0.00     0.047 A 
ENDROOT
BRANCH   1  11
HETATM   11  N2  UNL     1      25.125   3.181  49.641  1.00  0.00    -0.316 N 
HETATM   12  C1  UNL     1      24.658   3.115  50.983  1.00  0.00     0.300 C 
HETATM   13  O1  UNL     1      24.192   4.208  51.449  1.00  0.00    -0.258 OA
HETATM   14  H11 UNL     1      25.514   2.300  49.232  1.00  0.00     0.170 HD
BRANCH  12  15
HETATM   15  C2  UNL     1      24.696   1.919  51.777  1.00  0.00    -0.005 C 
HETATM   16  C3  UNL     1      24.737   0.909  52.438  1.00  0.00    -0.094 C 
BRANCH  16  17
HETATM   17  C4  UNL     1      24.802  -0.312  53.258  1.00  0.00     0.132 C 
BRANCH  17  18
HETATM   18  C5  UNL     1      26.217  -0.511  53.808  1.00  0.00     0.255 C 
HETATM   19  C6  UNL     1      26.478   0.632  54.760  1.00  0.00     0.204 C 
HETATM   20  O2  UNL     1      27.811   1.016  54.808  1.00  0.00    -0.387 OA
HETATM   21  C7  UNL     1      28.670  -0.068  54.639  1.00  0.00     0.197 C 
HETATM   22  C8  UNL     1      28.485  -0.743  53.310  1.00  0.00     0.296 C 
HETATM   23  N1  UNL     1      27.191  -0.437  52.739  1.00  0.00     0.093 N 
HETATM   24  H10 UNL     1      27.200   0.535  52.375  1.00  0.00     0.316 HD
ENDBRANCH  17  18
ENDBRANCH  16  17
ENDBRANCH  12  15
ENDBRANCH   1  11
BRANCH   8  25
HETATM   25  N5  UNL     1      28.133   7.283  49.151  1.00  0.00    -0.340 N 
HETATM   26  H15 UNL     1      28.339   7.312  50.166  1.00  0.00     0.167 HD
BRANCH  25  27
HETATM   27  C15 UNL     1      29.290   6.847  48.473  1.00  0.00     0.035 A 
HETATM   28  C16 UNL     1      29.616   5.517  48.190  1.00  0.00     0.032 A 
HETATM   29  C17 UNL     1      30.757   5.143  47.524  1.00  0.00     0.046 A 
HETATM   30  C18 UNL     1      31.658   6.070  47.093  1.00  0.00     0.138 A 
HETATM   31  F1  UNL     1      32.751   5.619  46.448  1.00  0.00    -0.204 F 
HETATM   32  C19 UNL     1      31.379   7.401  47.351  1.00  0.00     0.074 A 
HETATM   33 CL1  UNL     1      32.572   8.545  46.774  1.00  0.00    -0.081 Cl
HETATM   34  C20 UNL     1      30.228   7.746  48.020  1.00  0.00     0.056 A 
ENDBRANCH  25  27
ENDBRANCH   8  25
TORSDOF 6
ENDMDL
