MODEL 1
REMARK VINA RESULT:     -10.1      0.000      0.000
REMARK  4 active torsions:
REMARK  status: ('A' for Active; 'I' for Inactive)
REMARK    1  A    between atoms: C5_6  and  N1_7 
REMARK    2  A    between atoms: C10_12  and  O2_13 
REMARK    3  A    between atoms: O2_13  and  C11_14 
REMARK    4  A    between atoms: C11_14  and  C12_15 
ROOT
HETATM    1  O1  UNL     1      23.732   6.068  50.136  1.00  0.00    -0.145 OA
HETATM    2  C1  UNL     1      22.724   6.718  49.834  1.00  0.00     0.360 A 
HETATM    3  C2  UNL     1      22.155   6.202  51.146  1.00  0.00     0.108 C 
HETATM    4  C3  UNL     1      22.867   4.900  51.394  1.00  0.00    -0.018 C 
HETATM    5  C4  UNL     1      23.080   3.621  51.615  1.00  0.00     0.040 C 
HETATM    6  C5  UNL     1      23.826   2.386  51.848  1.00  0.00     0.109 C 
HETATM    7  N2  UNL     1      24.962   2.929  51.673  1.00  0.00    -0.109 NA
HETATM    8  C18 UNL     1      26.263   2.430  51.713  1.00  0.00     0.232 A 
HETATM    9  N3  UNL     1      25.990   3.046  50.655  1.00  0.00    -0.163 N 
HETATM   10  O3  UNL     1      26.900   3.221  49.611  1.00  0.00    -0.219 OA
HETATM   11  C19 UNL     1      26.872   4.548  49.064  1.00  0.00     0.103 A 
HETATM   12  C20 UNL     1      27.807   5.410  48.543  1.00  0.00     0.039 A 
HETATM   13  C21 UNL     1      27.392   6.650  48.117  1.00  0.00     0.005 A 
HETATM   14  C22 UNL     1      26.103   7.131  48.161  1.00  0.00     0.040 A 
HETATM   15  C23 UNL     1      25.135   6.312  48.670  1.00  0.00     0.173 A 
HETATM   16  C24 UNL     1      25.592   5.087  49.076  1.00  0.00     0.079 A 
HETATM   17  N4  UNL     1      23.787   6.814  48.842  1.00  0.00     0.118 N 
HETATM   18  H23 UNL     1      23.399   7.425  48.089  1.00  0.00     0.329 HD
ENDROOT
BRANCH   6  19
HETATM   19  N1  UNL     1      22.964   1.285  52.091  1.00  0.00    -0.340 N 
HETATM   20  C6  UNL     1      22.343   0.622  50.968  1.00  0.00     0.153 C 
HETATM   21  C7  UNL     1      20.894   0.454  51.299  1.00  0.00    -0.011 C 
HETATM   22  C8  UNL     1      20.332   0.592  52.478  1.00  0.00    -0.025 C 
HETATM   23  C9  UNL     1      21.164   0.956  53.662  1.00  0.00     0.081 C 
HETATM   24  C10 UNL     1      22.634   0.738  53.415  1.00  0.00     0.228 C 
BRANCH  24  25
HETATM   25  O2  UNL     1      23.095  -0.504  53.617  1.00  0.00    -0.362 OA
BRANCH  25  26
HETATM   26  C11 UNL     1      24.014  -0.819  54.538  1.00  0.00     0.209 C 
BRANCH  26  27
HETATM   27  C12 UNL     1      25.414  -0.690  54.061  1.00  0.00    -0.032 A 
HETATM   28  C13 UNL     1      25.887  -1.164  52.857  1.00  0.00     0.009 A 
HETATM   29  C14 UNL     1      27.192  -1.045  52.425  1.00  0.00     0.004 A 
HETATM   30  C15 UNL     1      28.080  -0.404  53.264  1.00  0.00     0.042 A 
HETATM   31  C16 UNL     1      27.691   0.100  54.486  1.00  0.00     0.117 A 
HETATM   32  F1  UNL     1      28.581   0.728  55.300  1.00  0.00    -0.206 F 
HETATM   33  C17 UNL     1      26.366  -0.050  54.866  1.00  0.00     0.051 A 
ENDBRANCH  26  27
ENDBRANCH  25  26
ENDBRANCH  24  25
ENDBRANCH   6  19
TORSDOF 4
ENDMDL
MODEL 2
REMARK VINA RESULT:      -9.7      2.821      7.710
REMARK  4 active torsions:
REMARK  status: ('A' for Active; 'I' for Inactive)
REMARK    1  A    between atoms: C5_6  and  N1_7 
REMARK    2  A    between atoms: C10_12  and  O2_13 
REMARK    3  A    between atoms: O2_13  and  C11_14 
REMARK    4  A    between atoms: C11_14  and  C12_15 
ROOT
HETATM    1  O1  UNL     1      25.225   0.567  53.385  1.00  0.00    -0.145 OA
HETATM    2  C1  UNL     1      26.195  -0.196  53.312  1.00  0.00     0.360 A 
HETATM    3  C2  UNL     1      27.009   1.069  53.091  1.00  0.00     0.108 C 
HETATM    4  C3  UNL     1      26.046   2.051  52.481  1.00  0.00    -0.018 C 
HETATM    5  C4  UNL     1      25.508   2.907  51.640  1.00  0.00     0.040 C 
HETATM    6  C5  UNL     1      24.534   3.849  51.093  1.00  0.00     0.109 C 
HETATM    7  N2  UNL     1      23.680   3.643  52.013  1.00  0.00    -0.109 NA
HETATM    8  C18 UNL     1      22.410   4.163  52.255  1.00  0.00     0.232 A 
HETATM    9  N3  UNL     1      22.449   2.909  52.239  1.00  0.00    -0.163 N 
HETATM   10  O3  UNL     1      21.328   2.103  52.445  1.00  0.00    -0.219 OA
HETATM   11  C19 UNL     1      21.599   0.980  53.299  1.00  0.00     0.103 A 
HETATM   12  C20 UNL     1      20.895   0.287  54.254  1.00  0.00     0.039 A 
HETATM   13  C21 UNL     1      21.513  -0.760  54.894  1.00  0.00     0.005 A 
HETATM   14  C22 UNL     1      22.800  -1.197  54.674  1.00  0.00     0.040 A 
HETATM   15  C23 UNL     1      23.543  -0.541  53.733  1.00  0.00     0.173 A 
HETATM   16  C24 UNL     1      22.885   0.490  53.118  1.00  0.00     0.079 A 
HETATM   17  N4  UNL     1      24.937  -0.891  53.547  1.00  0.00     0.118 N 
HETATM   18  H23 UNL     1      25.189  -1.904  53.581  1.00  0.00     0.329 HD
ENDROOT
BRANCH   6  19
HETATM   19  N1  UNL     1      24.986   4.436  49.883  1.00  0.00    -0.340 N 
HETATM   20  C6  UNL     1      26.131   3.865  49.214  1.00  0.00     0.153 C 
HETATM   21  C7  UNL     1      27.043   4.995  48.852  1.00  0.00    -0.011 C 
HETATM   22  C8  UNL     1      26.751   6.276  48.854  1.00  0.00    -0.025 C 
HETATM   23  C9  UNL     1      25.385   6.729  49.248  1.00  0.00     0.081 C 
HETATM   24  C10 UNL     1      24.382   5.605  49.226  1.00  0.00     0.228 C 
BRANCH  24  25
HETATM   25  O2  UNL     1      23.823   5.329  48.041  1.00  0.00    -0.362 OA
BRANCH  25  26
HETATM   26  C11 UNL     1      22.502   5.229  47.843  1.00  0.00     0.209 C 
BRANCH  26  27
HETATM   27  C12 UNL     1      21.933   3.913  48.229  1.00  0.00    -0.032 A 
HETATM   28  C13 UNL     1      22.498   2.691  47.938  1.00  0.00     0.009 A 
HETATM   29  C14 UNL     1      21.958   1.472  48.294  1.00  0.00     0.004 A 
HETATM   30  C15 UNL     1      20.768   1.488  48.993  1.00  0.00     0.042 A 
HETATM   31  C16 UNL     1      20.135   2.666  49.326  1.00  0.00     0.117 A 
HETATM   32  F1  UNL     1      18.962   2.661  50.013  1.00  0.00    -0.206 F 
HETATM   33  C17 UNL     1      20.727   3.859  48.939  1.00  0.00     0.051 A 
ENDBRANCH  26  27
ENDBRANCH  25  26
ENDBRANCH  24  25
ENDBRANCH   6  19
TORSDOF 4
ENDMDL
MODEL 3
REMARK VINA RESULT:      -9.6      2.766      6.588
REMARK  4 active torsions:
REMARK  status: ('A' for Active; 'I' for Inactive)
REMARK    1  A    between atoms: C5_6  and  N1_7 
REMARK    2  A    between atoms: C10_12  and  O2_13 
REMARK    3  A    between atoms: O2_13  and  C11_14 
REMARK    4  A    between atoms: C11_14  and  C12_15 
ROOT
HETATM    1  O1  UNL     1      25.222  -0.230  53.747  1.00  0.00    -0.145 OA
HETATM    2  C1  UNL     1      24.500  -0.777  54.588  1.00  0.00     0.360 A 
HETATM    3  C2  UNL     1      23.470  -0.844  53.472  1.00  0.00     0.108 C 
HETATM    4  C3  UNL     1      23.807   0.305  52.561  1.00  0.00    -0.018 C 
HETATM    5  C4  UNL     1      23.692   1.410  51.858  1.00  0.00     0.040 C 
HETATM    6  C5  UNL     1      24.078   2.505  50.971  1.00  0.00     0.109 C 
HETATM    7  N2  UNL     1      25.296   2.147  50.905  1.00  0.00    -0.109 NA
HETATM    8  C18 UNL     1      26.400   2.674  50.239  1.00  0.00     0.232 A 
HETATM    9  N3  UNL     1      26.587   2.498  51.467  1.00  0.00    -0.163 N 
HETATM   10  O3  UNL     1      27.787   2.799  52.113  1.00  0.00    -0.219 OA
HETATM   11  C19 UNL     1      28.184   1.786  53.051  1.00  0.00     0.103 A 
HETATM   12  C20 UNL     1      29.381   1.254  53.466  1.00  0.00     0.039 A 
HETATM   13  C21 UNL     1      29.364   0.250  54.405  1.00  0.00     0.005 A 
HETATM   14  C22 UNL     1      28.240  -0.293  54.987  1.00  0.00     0.040 A 
HETATM   15  C23 UNL     1      27.024   0.202  54.609  1.00  0.00     0.173 A 
HETATM   16  C24 UNL     1      27.091   1.202  53.677  1.00  0.00     0.079 A 
HETATM   17  N4  UNL     1      25.812  -0.414  55.108  1.00  0.00     0.118 N 
HETATM   18  H23 UNL     1      25.798  -0.711  56.110  1.00  0.00     0.329 HD
ENDROOT
BRANCH   6  19
HETATM   19  N1  UNL     1      22.987   3.369  50.691  1.00  0.00    -0.340 N 
HETATM   20  C6  UNL     1      23.139   4.378  49.668  1.00  0.00     0.153 C 
HETATM   21  C7  UNL     1      22.623   5.663  50.233  1.00  0.00    -0.011 C 
HETATM   22  C8  UNL     1      21.897   5.814  51.317  1.00  0.00    -0.025 C 
HETATM   23  C9  UNL     1      21.506   4.621  52.124  1.00  0.00     0.081 C 
HETATM   24  C10 UNL     1      21.679   3.334  51.361  1.00  0.00     0.228 C 
BRANCH  24  25
HETATM   25  O2  UNL     1      20.669   2.977  50.556  1.00  0.00    -0.362 OA
BRANCH  25  26
HETATM   26  C11 UNL     1      20.513   1.745  50.055  1.00  0.00     0.209 C 
BRANCH  26  27
HETATM   27  C12 UNL     1      19.647   0.865  50.878  1.00  0.00    -0.032 A 
HETATM   28  C13 UNL     1      18.339   0.546  50.588  1.00  0.00     0.009 A 
HETATM   29  C14 UNL     1      17.539  -0.268  51.364  1.00  0.00     0.004 A 
HETATM   30  C15 UNL     1      18.097  -0.797  52.509  1.00  0.00     0.042 A 
HETATM   31  C16 UNL     1      19.400  -0.531  52.874  1.00  0.00     0.117 A 
HETATM   32  F1  UNL     1      19.933  -1.061  54.007  1.00  0.00    -0.206 F 
HETATM   33  C17 UNL     1      20.154   0.296  52.054  1.00  0.00     0.051 A 
ENDBRANCH  26  27
ENDBRANCH  25  26
ENDBRANCH  24  25
ENDBRANCH   6  19
TORSDOF 4
ENDMDL
MODEL 4
REMARK VINA RESULT:      -9.5      2.277      4.280
REMARK  4 active torsions:
REMARK  status: ('A' for Active; 'I' for Inactive)
REMARK    1  A    between atoms: C5_6  and  N1_7 
REMARK    2  A    between atoms: C10_12  and  O2_13 
REMARK    3  A    between atoms: O2_13  and  C11_14 
REMARK    4  A    between atoms: C11_14  and  C12_15 
ROOT
HETATM    1  O1  UNL     1      28.278   6.755  48.505  1.00  0.00    -0.145 OA
HETATM    2  C1  UNL     1      29.465   6.434  48.632  1.00  0.00     0.360 A 
HETATM    3  C2  UNL     1      29.006   5.054  48.191  1.00  0.00     0.108 C 
HETATM    4  C3  UNL     1      27.560   4.975  48.601  1.00  0.00    -0.018 C 
HETATM    5  C4  UNL     1      26.450   4.561  49.172  1.00  0.00     0.040 C 
HETATM    6  C5  UNL     1      25.036   4.539  49.542  1.00  0.00     0.109 C 
HETATM    7  N2  UNL     1      24.774   5.645  48.975  1.00  0.00    -0.109 NA
HETATM    8  C18 UNL     1      23.601   6.388  48.851  1.00  0.00     0.232 A 
HETATM    9  N3  UNL     1      24.567   7.042  49.311  1.00  0.00    -0.163 N 
HETATM   10  O3  UNL     1      24.483   8.389  49.667  1.00  0.00    -0.219 OA
HETATM   11  C19 UNL     1      25.624   9.150  49.241  1.00  0.00     0.103 A 
HETATM   12  C20 UNL     1      25.829  10.430  48.786  1.00  0.00     0.039 A 
HETATM   13  C21 UNL     1      27.107  10.810  48.448  1.00  0.00     0.005 A 
HETATM   14  C22 UNL     1      28.231  10.019  48.520  1.00  0.00     0.040 A 
HETATM   15  C23 UNL     1      28.081   8.737  48.967  1.00  0.00     0.173 A 
HETATM   16  C24 UNL     1      26.794   8.405  49.296  1.00  0.00     0.079 A 
HETATM   17  N4  UNL     1      29.213   7.833  48.951  1.00  0.00     0.118 N 
HETATM   18  H23 UNL     1      30.142   8.218  49.232  1.00  0.00     0.329 HD
ENDROOT
BRANCH   6  19
HETATM   19  N1  UNL     1      24.712   3.399  50.323  1.00  0.00    -0.340 N 
HETATM   20  C6  UNL     1      23.549   2.617  49.970  1.00  0.00     0.153 C 
HETATM   21  C7  UNL     1      22.782   2.370  51.230  1.00  0.00    -0.011 C 
HETATM   22  C8  UNL     1      23.205   2.550  52.461  1.00  0.00    -0.025 C 
HETATM   23  C9  UNL     1      24.589   3.052  52.707  1.00  0.00     0.081 C 
HETATM   24  C10 UNL     1      25.469   2.923  51.491  1.00  0.00     0.228 C 
BRANCH  24  25
HETATM   25  O2  UNL     1      26.057   1.734  51.304  1.00  0.00    -0.362 OA
BRANCH  25  26
HETATM   26  C11 UNL     1      25.978   0.717  52.172  1.00  0.00     0.209 C 
BRANCH  26  27
HETATM   27  C12 UNL     1      27.287   0.303  52.736  1.00  0.00    -0.032 A 
HETATM   28  C13 UNL     1      28.236   1.161  53.247  1.00  0.00     0.009 A 
HETATM   29  C14 UNL     1      29.454   0.766  53.762  1.00  0.00     0.004 A 
HETATM   30  C15 UNL     1      29.732  -0.585  53.764  1.00  0.00     0.042 A 
HETATM   31  C16 UNL     1      28.839  -1.512  53.272  1.00  0.00     0.117 A 
HETATM   32  F1  UNL     1      29.131  -2.840  53.281  1.00  0.00    -0.206 F 
HETATM   33  C17 UNL     1      27.631  -1.055  52.766  1.00  0.00     0.051 A 
ENDBRANCH  26  27
ENDBRANCH  25  26
ENDBRANCH  24  25
ENDBRANCH   6  19
TORSDOF 4
ENDMDL
MODEL 5
REMARK VINA RESULT:      -9.5      3.153      5.623
REMARK  4 active torsions:
REMARK  status: ('A' for Active; 'I' for Inactive)
REMARK    1  A    between atoms: C5_6  and  N1_7 
REMARK    2  A    between atoms: C10_12  and  O2_13 
REMARK    3  A    between atoms: O2_13  and  C11_14 
REMARK    4  A    between atoms: C11_14  and  C12_15 
ROOT
HETATM    1  O1  UNL     1      29.566   7.358  48.576  1.00  0.00    -0.145 OA
HETATM    2  C1  UNL     1      30.506   6.608  48.866  1.00  0.00     0.360 A 
HETATM    3  C2  UNL     1      29.699   5.533  48.156  1.00  0.00     0.108 C 
HETATM    4  C3  UNL     1      28.266   5.973  48.284  1.00  0.00    -0.018 C 
HETATM    5  C4  UNL     1      26.985   5.966  48.581  1.00  0.00     0.040 C 
HETATM    6  C5  UNL     1      25.609   6.449  48.684  1.00  0.00     0.109 C 
HETATM    7  N2  UNL     1      25.884   7.609  48.244  1.00  0.00    -0.109 NA
HETATM    8  C18 UNL     1      25.106   8.743  48.019  1.00  0.00     0.232 A 
HETATM    9  N3  UNL     1      26.113   8.956  48.735  1.00  0.00    -0.163 N 
HETATM   10  O3  UNL     1      26.432  10.209  49.260  1.00  0.00    -0.219 OA
HETATM   11  C19 UNL     1      27.832  10.515  49.161  1.00  0.00     0.103 A 
HETATM   12  C20 UNL     1      28.569  11.654  48.939  1.00  0.00     0.039 A 
HETATM   13  C21 UNL     1      29.939  11.550  48.894  1.00  0.00     0.005 A 
HETATM   14  C22 UNL     1      30.668  10.393  49.052  1.00  0.00     0.040 A 
HETATM   15  C23 UNL     1      29.982   9.233  49.275  1.00  0.00     0.173 A 
HETATM   16  C24 UNL     1      28.622   9.385  49.317  1.00  0.00     0.079 A 
HETATM   17  N4  UNL     1      30.698   7.975  49.333  1.00  0.00     0.118 N 
HETATM   18  H23 UNL     1      31.617   7.965  49.829  1.00  0.00     0.329 HD
ENDROOT
BRANCH   6  19
HETATM   19  N1  UNL     1      24.741   5.463  49.221  1.00  0.00    -0.340 N 
HETATM   20  C6  UNL     1      23.551   5.103  48.486  1.00  0.00     0.153 C 
HETATM   21  C7  UNL     1      22.414   5.098  49.458  1.00  0.00    -0.011 C 
HETATM   22  C8  UNL     1      22.496   5.113  50.770  1.00  0.00    -0.025 C 
HETATM   23  C9  UNL     1      23.833   5.138  51.432  1.00  0.00     0.081 C 
HETATM   24  C10 UNL     1      24.944   4.751  50.492  1.00  0.00     0.228 C 
BRANCH  24  25
HETATM   25  O2  UNL     1      25.171   3.438  50.345  1.00  0.00    -0.362 OA
BRANCH  25  26
HETATM   26  C11 UNL     1      26.221   2.798  50.872  1.00  0.00     0.209 C 
BRANCH  26  27
HETATM   27  C12 UNL     1      25.856   1.624  51.704  1.00  0.00    -0.032 A 
HETATM   28  C13 UNL     1      26.666   0.533  51.933  1.00  0.00     0.009 A 
HETATM   29  C14 UNL     1      26.315  -0.557  52.702  1.00  0.00     0.004 A 
HETATM   30  C15 UNL     1      25.063  -0.545  53.282  1.00  0.00     0.042 A 
HETATM   31  C16 UNL     1      24.190   0.507  53.106  1.00  0.00     0.117 A 
HETATM   32  F1  UNL     1      22.959   0.500  53.684  1.00  0.00    -0.206 F 
HETATM   33  C17 UNL     1      24.599   1.574  52.320  1.00  0.00     0.051 A 
ENDBRANCH  26  27
ENDBRANCH  25  26
ENDBRANCH  24  25
ENDBRANCH   6  19
TORSDOF 4
ENDMDL
MODEL 6
REMARK VINA RESULT:      -9.3      2.527      7.847
REMARK  4 active torsions:
REMARK  status: ('A' for Active; 'I' for Inactive)
REMARK    1  A    between atoms: C5_6  and  N1_7 
REMARK    2  A    between atoms: C10_12  and  O2_13 
REMARK    3  A    between atoms: O2_13  and  C11_14 
REMARK    4  A    between atoms: C11_14  and  C12_15 
ROOT
HETATM    1  O1  UNL     1      24.214   0.831  53.686  1.00  0.00    -0.145 OA
HETATM    2  C1  UNL     1      25.334   0.312  53.752  1.00  0.00     0.360 A 
HETATM    3  C2  UNL     1      25.842   1.734  53.926  1.00  0.00     0.108 C 
HETATM    4  C3  UNL     1      24.820   2.600  53.239  1.00  0.00    -0.018 C 
HETATM    5  C4  UNL     1      24.281   3.475  52.419  1.00  0.00     0.040 C 
HETATM    6  C5  UNL     1      23.244   4.287  51.785  1.00  0.00     0.109 C 
HETATM    7  N2  UNL     1      22.292   3.736  52.421  1.00  0.00    -0.109 NA
HETATM    8  C18 UNL     1      20.912   3.927  52.407  1.00  0.00     0.232 A 
HETATM    9  N3  UNL     1      21.258   2.736  52.223  1.00  0.00    -0.163 N 
HETATM   10  O3  UNL     1      20.352   1.694  52.024  1.00  0.00    -0.219 OA
HETATM   11  C19 UNL     1      20.701   0.505  52.750  1.00  0.00     0.103 A 
HETATM   12  C20 UNL     1      20.002  -0.491  53.388  1.00  0.00     0.039 A 
HETATM   13  C21 UNL     1      20.707  -1.495  54.008  1.00  0.00     0.005 A 
HETATM   14  C22 UNL     1      22.078  -1.608  54.058  1.00  0.00     0.040 A 
HETATM   15  C23 UNL     1      22.820  -0.643  53.438  1.00  0.00     0.173 A 
HETATM   16  C24 UNL     1      22.076   0.332  52.831  1.00  0.00     0.079 A 
HETATM   17  N4  UNL     1      24.264  -0.658  53.561  1.00  0.00     0.118 N 
HETATM   18  H23 UNL     1      24.743  -1.584  53.513  1.00  0.00     0.329 HD
ENDROOT
BRANCH   6  19
HETATM   19  N1  UNL     1      23.786   5.180  50.824  1.00  0.00    -0.340 N 
HETATM   20  C6  UNL     1      23.525   6.595  50.959  1.00  0.00     0.153 C 
HETATM   21  C7  UNL     1      23.105   7.099  49.614  1.00  0.00    -0.011 C 
HETATM   22  C8  UNL     1      23.231   6.477  48.464  1.00  0.00    -0.025 C 
HETATM   23  C9  UNL     1      23.849   5.120  48.414  1.00  0.00     0.081 C 
HETATM   24  C10 UNL     1      24.611   4.792  49.671  1.00  0.00     0.228 C 
BRANCH  24  25
HETATM   25  O2  UNL     1      25.873   5.238  49.736  1.00  0.00    -0.362 OA
BRANCH  25  26
HETATM   26  C11 UNL     1      26.891   4.703  49.050  1.00  0.00     0.209 C 
BRANCH  26  27
HETATM   27  C12 UNL     1      27.754   5.704  48.374  1.00  0.00    -0.032 A 
HETATM   28  C13 UNL     1      27.317   6.899  47.847  1.00  0.00     0.009 A 
HETATM   29  C14 UNL     1      28.126   7.821  47.214  1.00  0.00     0.004 A 
HETATM   30  C15 UNL     1      29.467   7.516  47.107  1.00  0.00     0.042 A 
HETATM   31  C16 UNL     1      29.989   6.343  47.608  1.00  0.00     0.117 A 
HETATM   32  F1  UNL     1      31.314   6.060  47.492  1.00  0.00    -0.206 F 
HETATM   33  C17 UNL     1      29.125   5.456  48.233  1.00  0.00     0.051 A 
ENDBRANCH  26  27
ENDBRANCH  25  26
ENDBRANCH  24  25
ENDBRANCH   6  19
TORSDOF 4
ENDMDL
MODEL 7
REMARK VINA RESULT:      -9.1      2.904      7.460
REMARK  4 active torsions:
REMARK  status: ('A' for Active; 'I' for Inactive)
REMARK    1  A    between atoms: C5_6  and  N1_7 
REMARK    2  A    between atoms: C10_12  and  O2_13 
REMARK    3  A    between atoms: O2_13  and  C11_14 
REMARK    4  A    between atoms: C11_14  and  C12_15 
ROOT
HETATM    1  O1  UNL     1      23.686   1.480  52.935  1.00  0.00    -0.145 OA
HETATM    2  C1  UNL     1      24.914   1.367  52.851  1.00  0.00     0.360 A 
HETATM    3  C2  UNL     1      24.904   2.861  52.567  1.00  0.00     0.108 C 
HETATM    4  C3  UNL     1      23.553   3.132  51.962  1.00  0.00    -0.018 C 
HETATM    5  C4  UNL     1      22.624   3.519  51.115  1.00  0.00     0.040 C 
HETATM    6  C5  UNL     1      21.287   3.754  50.575  1.00  0.00     0.109 C 
HETATM    7  N2  UNL     1      20.696   3.157  51.529  1.00  0.00    -0.109 NA
HETATM    8  C18 UNL     1      19.351   2.910  51.799  1.00  0.00     0.232 A 
HETATM    9  N3  UNL     1      20.067   1.881  51.818  1.00  0.00    -0.163 N 
HETATM   10  O3  UNL     1      19.571   0.604  52.085  1.00  0.00    -0.219 OA
HETATM   11  C19 UNL     1      20.422  -0.152  52.962  1.00  0.00     0.103 A 
HETATM   12  C20 UNL     1      20.222  -1.076  53.960  1.00  0.00     0.039 A 
HETATM   13  C21 UNL     1      21.320  -1.589  54.609  1.00  0.00     0.005 A 
HETATM   14  C22 UNL     1      22.634  -1.263  54.357  1.00  0.00     0.040 A 
HETATM   15  C23 UNL     1      22.886  -0.349  53.373  1.00  0.00     0.173 A 
HETATM   16  C24 UNL     1      21.765   0.130  52.751  1.00  0.00     0.079 A 
HETATM   17  N4  UNL     1      24.242   0.110  53.150  1.00  0.00     0.118 N 
HETATM   18  H23 UNL     1      25.007  -0.600  53.204  1.00  0.00     0.329 HD
ENDROOT
BRANCH   6  19
HETATM   19  N1  UNL     1      21.330   4.441  49.334  1.00  0.00    -0.340 N 
HETATM   20  C6  UNL     1      20.160   5.167  48.895  1.00  0.00     0.153 C 
HETATM   21  C7  UNL     1      19.922   4.801  47.464  1.00  0.00    -0.011 C 
HETATM   22  C8  UNL     1      20.757   4.189  46.656  1.00  0.00    -0.025 C 
HETATM   23  C9  UNL     1      22.107   3.783  47.147  1.00  0.00     0.081 C 
HETATM   24  C10 UNL     1      22.485   4.486  48.425  1.00  0.00     0.228 C 
BRANCH  24  25
HETATM   25  O2  UNL     1      23.024   5.706  48.298  1.00  0.00    -0.362 OA
BRANCH  25  26
HETATM   26  C11 UNL     1      23.888   6.235  49.173  1.00  0.00     0.209 C 
BRANCH  26  27
HETATM   27  C12 UNL     1      25.294   5.804  48.969  1.00  0.00    -0.032 A 
HETATM   28  C13 UNL     1      25.804   4.575  49.327  1.00  0.00     0.009 A 
HETATM   29  C14 UNL     1      27.115   4.186  49.139  1.00  0.00     0.004 A 
HETATM   30  C15 UNL     1      27.967   5.096  48.549  1.00  0.00     0.042 A 
HETATM   31  C16 UNL     1      27.538   6.347  48.160  1.00  0.00     0.117 A 
HETATM   32  F1  UNL     1      28.394   7.232  47.581  1.00  0.00    -0.206 F 
HETATM   33  C17 UNL     1      26.210   6.681  48.375  1.00  0.00     0.051 A 
ENDBRANCH  26  27
ENDBRANCH  25  26
ENDBRANCH  24  25
ENDBRANCH   6  19
TORSDOF 4
ENDMDL
MODEL 8
REMARK VINA RESULT:      -9.1      2.680      3.733
REMARK  4 active torsions:
REMARK  status: ('A' for Active; 'I' for Inactive)
REMARK    1  A    between atoms: C5_6  and  N1_7 
REMARK    2  A    between atoms: C10_12  and  O2_13 
REMARK    3  A    between atoms: O2_13  and  C11_14 
REMARK    4  A    between atoms: C11_14  and  C12_15 
ROOT
HETATM    1  O1  UNL     1      25.339   7.440  49.748  1.00  0.00    -0.145 OA
HETATM    2  C1  UNL     1      24.612   8.414  49.523  1.00  0.00     0.360 A 
HETATM    3  C2  UNL     1      23.823   7.943  50.734  1.00  0.00     0.108 C 
HETATM    4  C3  UNL     1      24.068   6.460  50.805  1.00  0.00    -0.018 C 
HETATM    5  C4  UNL     1      23.850   5.164  50.843  1.00  0.00     0.040 C 
HETATM    6  C5  UNL     1      24.149   3.735  50.909  1.00  0.00     0.109 C 
HETATM    7  N2  UNL     1      25.407   3.899  50.837  1.00  0.00    -0.109 NA
HETATM    8  C18 UNL     1      26.477   3.007  50.831  1.00  0.00     0.232 A 
HETATM    9  N3  UNL     1      26.484   3.810  49.868  1.00  0.00    -0.163 N 
HETATM   10  O3  UNL     1      27.468   3.816  48.879  1.00  0.00    -0.219 OA
HETATM   11  C19 UNL     1      27.898   5.141  48.529  1.00  0.00     0.103 A 
HETATM   12  C20 UNL     1      29.090   5.715  48.157  1.00  0.00     0.039 A 
HETATM   13  C21 UNL     1      29.119   7.066  47.907  1.00  0.00     0.005 A 
HETATM   14  C22 UNL     1      28.048   7.928  47.995  1.00  0.00     0.040 A 
HETATM   15  C23 UNL     1      26.840   7.407  48.361  1.00  0.00     0.173 A 
HETATM   16  C24 UNL     1      26.858   6.058  48.594  1.00  0.00     0.079 A 
HETATM   17  N4  UNL     1      25.712   8.291  48.577  1.00  0.00     0.118 N 
HETATM   18  H23 UNL     1      25.589   9.087  47.911  1.00  0.00     0.329 HD
ENDROOT
BRANCH   6  19
HETATM   19  N1  UNL     1      22.968   2.949  50.973  1.00  0.00    -0.340 N 
HETATM   20  C6  UNL     1      23.049   1.539  50.671  1.00  0.00     0.153 C 
HETATM   21  C7  UNL     1      21.927   1.221  49.734  1.00  0.00    -0.011 C 
HETATM   22  C8  UNL     1      20.886   1.976  49.464  1.00  0.00    -0.025 C 
HETATM   23  C9  UNL     1      20.740   3.307  50.123  1.00  0.00     0.081 C 
HETATM   24  C10 UNL     1      21.632   3.449  51.329  1.00  0.00     0.228 C 
BRANCH  24  25
HETATM   25  O2  UNL     1      21.160   2.954  52.481  1.00  0.00    -0.362 OA
BRANCH  25  26
HETATM   26  C11 UNL     1      20.035   2.235  52.580  1.00  0.00     0.209 C 
BRANCH  26  27
HETATM   27  C12 UNL     1      20.234   0.881  53.155  1.00  0.00    -0.032 A 
HETATM   28  C13 UNL     1      19.374  -0.183  52.991  1.00  0.00     0.009 A 
HETATM   29  C14 UNL     1      19.564  -1.436  53.536  1.00  0.00     0.004 A 
HETATM   30  C15 UNL     1      20.699  -1.630  54.297  1.00  0.00     0.042 A 
HETATM   31  C16 UNL     1      21.612  -0.619  54.511  1.00  0.00     0.117 A 
HETATM   32  F1  UNL     1      22.724  -0.829  55.265  1.00  0.00    -0.206 F 
HETATM   33  C17 UNL     1      21.366   0.619  53.938  1.00  0.00     0.051 A 
ENDBRANCH  26  27
ENDBRANCH  25  26
ENDBRANCH  24  25
ENDBRANCH   6  19
TORSDOF 4
ENDMDL
MODEL 9
REMARK VINA RESULT:      -9.1      2.744      4.633
REMARK  4 active torsions:
REMARK  status: ('A' for Active; 'I' for Inactive)
REMARK    1  A    between atoms: C5_6  and  N1_7 
REMARK    2  A    between atoms: C10_12  and  O2_13 
REMARK    3  A    between atoms: O2_13  and  C11_14 
REMARK    4  A    between atoms: C11_14  and  C12_15 
ROOT
HETATM    1  O1  UNL     1      23.652   6.354  50.014  1.00  0.00    -0.145 OA
HETATM    2  C1  UNL     1      22.771   7.121  49.608  1.00  0.00     0.360 A 
HETATM    3  C2  UNL     1      22.040   6.753  50.888  1.00  0.00     0.108 C 
HETATM    4  C3  UNL     1      22.540   5.378  51.242  1.00  0.00    -0.018 C 
HETATM    5  C4  UNL     1      22.554   4.095  51.528  1.00  0.00     0.040 C 
HETATM    6  C5  UNL     1      23.099   2.781  51.865  1.00  0.00     0.109 C 
HETATM    7  N2  UNL     1      24.310   3.153  51.760  1.00  0.00    -0.109 NA
HETATM    8  C18 UNL     1      25.520   2.482  51.922  1.00  0.00     0.232 A 
HETATM    9  N3  UNL     1      25.416   3.077  50.824  1.00  0.00    -0.163 N 
HETATM   10  O3  UNL     1      26.415   3.074  49.849  1.00  0.00    -0.219 OA
HETATM   11  C19 UNL     1      26.615   4.364  49.252  1.00  0.00     0.103 A 
HETATM   12  C20 UNL     1      27.699   5.063  48.774  1.00  0.00     0.039 A 
HETATM   13  C21 UNL     1      27.496   6.325  48.271  1.00  0.00     0.005 A 
HETATM   14  C22 UNL     1      26.288   6.981  48.194  1.00  0.00     0.040 A 
HETATM   15  C23 UNL     1      25.179   6.330  48.655  1.00  0.00     0.173 A 
HETATM   16  C24 UNL     1      25.427   5.075  49.142  1.00  0.00     0.079 A 
HETATM   17  N4  UNL     1      23.907   7.021  48.701  1.00  0.00     0.118 N 
HETATM   18  H23 UNL     1      23.666   7.643  47.896  1.00  0.00     0.329 HD
ENDROOT
BRANCH   6  19
HETATM   19  N1  UNL     1      22.074   1.823  52.080  1.00  0.00    -0.340 N 
HETATM   20  C6  UNL     1      20.962   2.169  52.934  1.00  0.00     0.153 C 
HETATM   21  C7  UNL     1      20.751   1.024  53.874  1.00  0.00    -0.011 C 
HETATM   22  C8  UNL     1      21.257  -0.185  53.771  1.00  0.00    -0.025 C 
HETATM   23  C9  UNL     1      22.144  -0.526  52.622  1.00  0.00     0.081 C 
HETATM   24  C10 UNL     1      22.036   0.473  51.499  1.00  0.00     0.228 C 
BRANCH  24  25
HETATM   25  O2  UNL     1      21.032   0.287  50.631  1.00  0.00    -0.362 OA
BRANCH  25  26
HETATM   26  C11 UNL     1      21.135   0.504  49.314  1.00  0.00     0.209 C 
BRANCH  26  27
HETATM   27  C12 UNL     1      20.913   1.918  48.918  1.00  0.00    -0.032 A 
HETATM   28  C13 UNL     1      19.775   2.646  49.185  1.00  0.00     0.009 A 
HETATM   29  C14 UNL     1      19.575   3.958  48.806  1.00  0.00     0.004 A 
HETATM   30  C15 UNL     1      20.594   4.578  48.113  1.00  0.00     0.042 A 
HETATM   31  C16 UNL     1      21.767   3.923  47.804  1.00  0.00     0.117 A 
HETATM   32  F1  UNL     1      22.760   4.551  47.119  1.00  0.00    -0.206 F 
HETATM   33  C17 UNL     1      21.909   2.605  48.211  1.00  0.00     0.051 A 
ENDBRANCH  26  27
ENDBRANCH  25  26
ENDBRANCH  24  25
ENDBRANCH   6  19
TORSDOF 4
ENDMDL
