MODEL 1
REMARK VINA RESULT:      -7.6      0.000      0.000
REMARK  7 active torsions:
REMARK  status: ('A' for Active; 'I' for Inactive)
REMARK    1  A    between atoms: C2_2  and  C3_3 
REMARK    2  A    between atoms: C3_3  and  C4_4 
REMARK    3  A    between atoms: C3_3  and  N4_18 
REMARK    4  A    between atoms: C4_4  and  C5_5 
REMARK    5  A    between atoms: C8_9  and  N1_10 
REMARK    6  A    between atoms: N1_10  and  C9_11 
REMARK       I    between atoms: N4_18  and  C14_19 
REMARK    7  A    between atoms: C14_19  and  C15_21 
ROOT
HETATM    1  C15 UNL     1      26.780   4.724  49.131  1.00  0.00    -0.006 C 
HETATM    2  C16 UNL     1      27.773   5.163  48.606  1.00  0.00    -0.101 C 
HETATM    3  C17 UNL     1      28.990   5.686  47.983  1.00  0.00     0.112 C 
ENDROOT
BRANCH   1   4
HETATM    4  C14 UNL     1      25.574   4.220  49.773  1.00  0.00     0.301 C 
HETATM    5  N4  UNL     1      25.147   4.835  50.961  1.00  0.00    -0.313 N 
HETATM    6  H14 UNL     1      25.714   5.642  51.348  1.00  0.00     0.170 HD
HETATM    7  O1  UNL     1      24.940   3.256  49.266  1.00  0.00    -0.258 OA
BRANCH   5   8
HETATM    8  C3  UNL     1      24.014   4.436  51.657  1.00  0.00     0.055 C 
BRANCH   8   9
HETATM    9  C2  UNL     1      22.920   5.135  51.388  1.00  0.00    -0.130 C 
HETATM   10  C1  UNL     1      21.699   5.607  51.282  1.00  0.00     0.098 C 
ENDBRANCH   8   9
BRANCH   8  11
HETATM   11  C4  UNL     1      23.880   3.366  52.626  1.00  0.00     0.078 C 
BRANCH  11  12
HETATM   12  C5  UNL     1      23.332   2.072  52.102  1.00  0.00     0.040 A 
HETATM   13  C6  UNL     1      22.129   1.653  52.866  1.00  0.00     0.003 A 
HETATM   14  C7  UNL     1      22.390   0.469  53.446  1.00  0.00     0.034 A 
HETATM   15 BR1  UNL     1      21.433  -0.761  54.578  1.00  0.00    -0.049 Br
HETATM   16  C8  UNL     1      23.753   0.059  53.099  1.00  0.00     0.047 A 
HETATM   17  C13 UNL     1      24.298   0.973  52.329  1.00  0.00     0.013 A 
BRANCH  16  18
HETATM   18  N1  UNL     1      24.580  -1.056  53.395  1.00  0.00    -0.344 N 
HETATM   19  H7  UNL     1      24.205  -2.051  53.399  1.00  0.00     0.167 HD
BRANCH  18  20
HETATM   20  C9  UNL     1      25.953  -0.833  53.696  1.00  0.00     0.107 A 
HETATM   21  N2  UNL     1      26.282  -0.142  54.735  1.00  0.00    -0.229 NA
HETATM   22  C10 UNL     1      27.636   0.104  55.071  1.00  0.00     0.228 A 
HETATM   23  N3  UNL     1      28.509  -0.387  54.304  1.00  0.00    -0.282 NA
HETATM   24  C11 UNL     1      28.362  -1.165  53.126  1.00  0.00     0.157 A 
HETATM   25  C12 UNL     1      26.946  -1.423  52.776  1.00  0.00     0.100 A 
ENDBRANCH  18  20
ENDBRANCH  16  18
ENDBRANCH  11  12
ENDBRANCH   8  11
ENDBRANCH   5   8
ENDBRANCH   1   4
TORSDOF 7
ENDMDL
MODEL 2
REMARK VINA RESULT:      -7.1      3.376      5.839
REMARK  7 active torsions:
REMARK  status: ('A' for Active; 'I' for Inactive)
REMARK    1  A    between atoms: C2_2  and  C3_3 
REMARK    2  A    between atoms: C3_3  and  C4_4 
REMARK    3  A    between atoms: C3_3  and  N4_18 
REMARK    4  A    between atoms: C4_4  and  C5_5 
REMARK    5  A    between atoms: C8_9  and  N1_10 
REMARK    6  A    between atoms: N1_10  and  C9_11 
REMARK       I    between atoms: N4_18  and  C14_19 
REMARK    7  A    between atoms: C14_19  and  C15_21 
ROOT
HETATM    1  C15 UNL     1      18.111   2.467  51.579  1.00  0.00    -0.006 C 
HETATM    2  C16 UNL     1      17.191   3.247  51.557  1.00  0.00    -0.101 C 
HETATM    3  C17 UNL     1      16.063   4.180  51.521  1.00  0.00     0.112 C 
ENDROOT
BRANCH   1   4
HETATM    4  C14 UNL     1      19.235   1.542  51.588  1.00  0.00     0.301 C 
HETATM    5  N4  UNL     1      20.087   1.542  52.704  1.00  0.00    -0.313 N 
HETATM    6  H14 UNL     1      19.883   2.211  53.499  1.00  0.00     0.170 HD
HETATM    7  O1  UNL     1      19.428   0.768  50.612  1.00  0.00    -0.258 OA
BRANCH   5   8
HETATM    8  C3  UNL     1      21.188   0.703  52.819  1.00  0.00     0.055 C 
BRANCH   8   9
HETATM    9  C2  UNL     1      21.016  -0.335  53.624  1.00  0.00    -0.130 C 
HETATM   10  C1  UNL     1      21.125  -1.440  54.325  1.00  0.00     0.098 C 
ENDBRANCH   8   9
BRANCH   8  11
HETATM   11  C4  UNL     1      22.482   0.821  52.176  1.00  0.00     0.078 C 
BRANCH  11  12
HETATM   12  C5  UNL     1      23.097   2.190  52.187  1.00  0.00     0.040 A 
HETATM   13  C6  UNL     1      23.653   2.536  50.853  1.00  0.00     0.003 A 
HETATM   14  C7  UNL     1      24.975   2.733  50.987  1.00  0.00     0.034 A 
HETATM   15 BR1  UNL     1      26.432   3.200  49.817  1.00  0.00    -0.049 Br
HETATM   16  C8  UNL     1      25.347   2.530  52.389  1.00  0.00     0.047 A 
HETATM   17  C13 UNL     1      24.276   2.218  53.081  1.00  0.00     0.013 A 
BRANCH  16  18
HETATM   18  N1  UNL     1      26.554   2.591  53.134  1.00  0.00    -0.344 N 
HETATM   19  H7  UNL     1      26.969   3.514  53.460  1.00  0.00     0.167 HD
BRANCH  18  20
HETATM   20  C9  UNL     1      27.228   1.379  53.453  1.00  0.00     0.107 A 
HETATM   21  N2  UNL     1      27.995   1.321  54.489  1.00  0.00    -0.229 NA
HETATM   22  C10 UNL     1      28.686   0.135  54.843  1.00  0.00     0.228 A 
HETATM   23  N3  UNL     1      28.514  -0.865  54.094  1.00  0.00    -0.282 NA
HETATM   24  C11 UNL     1      27.726  -1.010  52.923  1.00  0.00     0.157 A 
HETATM   25  C12 UNL     1      27.002   0.230  52.555  1.00  0.00     0.100 A 
ENDBRANCH  18  20
ENDBRANCH  16  18
ENDBRANCH  11  12
ENDBRANCH   8  11
ENDBRANCH   5   8
ENDBRANCH   1   4
TORSDOF 7
ENDMDL
MODEL 3
REMARK VINA RESULT:      -7.0      2.718      6.807
REMARK  7 active torsions:
REMARK  status: ('A' for Active; 'I' for Inactive)
REMARK    1  A    between atoms: C2_2  and  C3_3 
REMARK    2  A    between atoms: C3_3  and  C4_4 
REMARK    3  A    between atoms: C3_3  and  N4_18 
REMARK    4  A    between atoms: C4_4  and  C5_5 
REMARK    5  A    between atoms: C8_9  and  N1_10 
REMARK    6  A    between atoms: N1_10  and  C9_11 
REMARK       I    between atoms: N4_18  and  C14_19 
REMARK    7  A    between atoms: C14_19  and  C15_21 
ROOT
HETATM    1  C15 UNL     1      27.738   0.153  53.704  1.00  0.00    -0.006 C 
HETATM    2  C16 UNL     1      28.826  -0.366  53.735  1.00  0.00    -0.101 C 
HETATM    3  C17 UNL     1      30.155  -0.981  53.761  1.00  0.00     0.112 C 
ENDROOT
BRANCH   1   4
HETATM    4  C14 UNL     1      26.414   0.756  53.652  1.00  0.00     0.301 C 
HETATM    5  N4  UNL     1      25.427   0.129  52.876  1.00  0.00    -0.313 N 
HETATM    6  H14 UNL     1      25.678  -0.761  52.357  1.00  0.00     0.170 HD
HETATM    7  O1  UNL     1      26.174   1.816  54.291  1.00  0.00    -0.258 OA
BRANCH   5   8
HETATM    8  C3  UNL     1      24.132   0.616  52.754  1.00  0.00     0.055 C 
BRANCH   8   9
HETATM    9  C2  UNL     1      23.239   0.025  53.534  1.00  0.00    -0.130 C 
HETATM   10  C1  UNL     1      22.156  -0.382  54.156  1.00  0.00     0.098 C 
ENDBRANCH   8   9
BRANCH   8  11
HETATM   11  C4  UNL     1      23.645   1.676  51.893  1.00  0.00     0.078 C 
BRANCH  11  12
HETATM   12  C5  UNL     1      22.931   2.802  52.581  1.00  0.00     0.040 A 
HETATM   13  C6  UNL     1      21.791   3.290  51.761  1.00  0.00     0.003 A 
HETATM   14  C7  UNL     1      22.014   4.580  51.458  1.00  0.00     0.034 A 
HETATM   15 BR1  UNL     1      21.090   5.950  50.468  1.00  0.00    -0.049 Br
HETATM   16  C8  UNL     1      23.287   4.996  52.051  1.00  0.00     0.047 A 
HETATM   17  C13 UNL     1      23.817   3.982  52.695  1.00  0.00     0.013 A 
BRANCH  16  18
HETATM   18  N1  UNL     1      24.043   6.197  52.083  1.00  0.00    -0.344 N 
HETATM   19  H7  UNL     1      24.195   6.744  52.983  1.00  0.00     0.167 HD
BRANCH  18  20
HETATM   20  C9  UNL     1      24.614   6.684  50.874  1.00  0.00     0.107 A 
HETATM   21  N2  UNL     1      25.377   5.921  50.168  1.00  0.00    -0.229 NA
HETATM   22  C10 UNL     1      25.967   6.365  48.959  1.00  0.00     0.228 A 
HETATM   23  N3  UNL     1      25.709   7.548  48.604  1.00  0.00    -0.282 NA
HETATM   24  C11 UNL     1      24.906   8.538  49.227  1.00  0.00     0.157 A 
HETATM   25  C12 UNL     1      24.289   8.072  50.491  1.00  0.00     0.100 A 
ENDBRANCH  18  20
ENDBRANCH  16  18
ENDBRANCH  11  12
ENDBRANCH   8  11
ENDBRANCH   5   8
ENDBRANCH   1   4
TORSDOF 7
ENDMDL
MODEL 4
REMARK VINA RESULT:      -6.8      2.247      2.794
REMARK  7 active torsions:
REMARK  status: ('A' for Active; 'I' for Inactive)
REMARK    1  A    between atoms: C2_2  and  C3_3 
REMARK    2  A    between atoms: C3_3  and  C4_4 
REMARK    3  A    between atoms: C3_3  and  N4_18 
REMARK    4  A    between atoms: C4_4  and  C5_5 
REMARK    5  A    between atoms: C8_9  and  N1_10 
REMARK    6  A    between atoms: N1_10  and  C9_11 
REMARK       I    between atoms: N4_18  and  C14_19 
REMARK    7  A    between atoms: C14_19  and  C15_21 
ROOT
HETATM    1  C15 UNL     1      28.594   6.399  48.138  1.00  0.00    -0.006 C 
HETATM    2  C16 UNL     1      29.781   6.385  47.922  1.00  0.00    -0.101 C 
HETATM    3  C17 UNL     1      31.223   6.353  47.672  1.00  0.00     0.112 C 
ENDROOT
BRANCH   1   4
HETATM    4  C14 UNL     1      27.165   6.439  48.412  1.00  0.00     0.301 C 
HETATM    5  N4  UNL     1      26.681   5.726  49.520  1.00  0.00    -0.313 N 
HETATM    6  H14 UNL     1      27.369   5.185  50.117  1.00  0.00     0.170 HD
HETATM    7  O1  UNL     1      26.393   7.100  47.666  1.00  0.00    -0.258 OA
BRANCH   5   8
HETATM    8  C3  UNL     1      25.338   5.693  49.874  1.00  0.00     0.055 C 
BRANCH   8   9
HETATM    9  C2  UNL     1      24.901   6.776  50.500  1.00  0.00    -0.130 C 
HETATM   10  C1  UNL     1      24.273   7.863  50.886  1.00  0.00     0.098 C 
ENDBRANCH   8   9
BRANCH   8  11
HETATM   11  C4  UNL     1      24.371   4.637  49.646  1.00  0.00     0.078 C 
BRANCH  11  12
HETATM   12  C5  UNL     1      24.810   3.253  50.024  1.00  0.00     0.040 A 
HETATM   13  C6  UNL     1      23.644   2.398  50.364  1.00  0.00     0.003 A 
HETATM   14  C7  UNL     1      23.770   2.003  51.643  1.00  0.00     0.034 A 
HETATM   15 BR1  UNL     1      22.754   0.915  52.864  1.00  0.00    -0.049 Br
HETATM   16  C8  UNL     1      25.002   2.570  52.196  1.00  0.00     0.047 A 
HETATM   17  C13 UNL     1      25.602   3.288  51.274  1.00  0.00     0.013 A 
BRANCH  16  18
HETATM   18  N1  UNL     1      25.663   2.521  53.452  1.00  0.00    -0.344 N 
HETATM   19  H7  UNL     1      25.287   3.028  54.308  1.00  0.00     0.167 HD
BRANCH  18  20
HETATM   20  C9  UNL     1      26.867   1.770  53.566  1.00  0.00     0.107 A 
HETATM   21  N2  UNL     1      27.932   2.327  54.037  1.00  0.00    -0.229 NA
HETATM   22  C10 UNL     1      29.151   1.617  54.167  1.00  0.00     0.228 A 
HETATM   23  N3  UNL     1      29.146   0.410  53.801  1.00  0.00    -0.282 NA
HETATM   24  C11 UNL     1      28.098  -0.381  53.263  1.00  0.00     0.157 A 
HETATM   25  C12 UNL     1      26.823   0.361  53.129  1.00  0.00     0.100 A 
ENDBRANCH  18  20
ENDBRANCH  16  18
ENDBRANCH  11  12
ENDBRANCH   8  11
ENDBRANCH   5   8
ENDBRANCH   1   4
TORSDOF 7
ENDMDL
MODEL 5
REMARK VINA RESULT:      -6.7      2.653      5.079
REMARK  7 active torsions:
REMARK  status: ('A' for Active; 'I' for Inactive)
REMARK    1  A    between atoms: C2_2  and  C3_3 
REMARK    2  A    between atoms: C3_3  and  C4_4 
REMARK    3  A    between atoms: C3_3  and  N4_18 
REMARK    4  A    between atoms: C4_4  and  C5_5 
REMARK    5  A    between atoms: C8_9  and  N1_10 
REMARK    6  A    between atoms: N1_10  and  C9_11 
REMARK       I    between atoms: N4_18  and  C14_19 
REMARK    7  A    between atoms: C14_19  and  C15_21 
ROOT
HETATM    1  C15 UNL     1      26.346   4.833  49.258  1.00  0.00    -0.006 C 
HETATM    2  C16 UNL     1      26.152   5.894  48.717  1.00  0.00    -0.101 C 
HETATM    3  C17 UNL     1      25.924   7.173  48.042  1.00  0.00     0.112 C 
ENDROOT
BRANCH   1   4
HETATM    4  C14 UNL     1      26.600   3.565  49.925  1.00  0.00     0.301 C 
HETATM    5  N4  UNL     1      26.324   3.470  51.299  1.00  0.00    -0.313 N 
HETATM    6  H14 UNL     1      25.941   4.321  51.801  1.00  0.00     0.170 HD
HETATM    7  O1  UNL     1      27.056   2.586  49.277  1.00  0.00    -0.258 OA
BRANCH   5   8
HETATM    8  C3  UNL     1      26.528   2.311  52.037  1.00  0.00     0.055 C 
BRANCH   8   9
HETATM    9  C2  UNL     1      27.689   2.254  52.674  1.00  0.00    -0.130 C 
HETATM   10  C1  UNL     1      28.662   2.201  53.554  1.00  0.00     0.098 C 
ENDBRANCH   8   9
BRANCH   8  11
HETATM   11  C4  UNL     1      25.642   1.175  52.195  1.00  0.00     0.078 C 
BRANCH  11  12
HETATM   12  C5  UNL     1      24.652   1.268  53.319  1.00  0.00     0.040 A 
HETATM   13  C6  UNL     1      24.277  -0.082  53.813  1.00  0.00     0.003 A 
HETATM   14  C7  UNL     1      22.956  -0.246  53.628  1.00  0.00     0.034 A 
HETATM   15 BR1  UNL     1      21.672  -1.642  53.967  1.00  0.00    -0.049 Br
HETATM   16  C8  UNL     1      22.408   0.964  53.013  1.00  0.00     0.047 A 
HETATM   17  C13 UNL     1      23.374   1.836  52.833  1.00  0.00     0.013 A 
BRANCH  16  18
HETATM   18  N1  UNL     1      21.122   1.389  52.587  1.00  0.00    -0.344 N 
HETATM   19  H7  UNL     1      20.281   1.384  53.239  1.00  0.00     0.167 HD
BRANCH  18  20
HETATM   20  C9  UNL     1      20.953   1.834  51.246  1.00  0.00     0.107 A 
HETATM   21  N2  UNL     1      20.614   3.056  51.010  1.00  0.00    -0.229 NA
HETATM   22  C10 UNL     1      20.434   3.540  49.690  1.00  0.00     0.228 A 
HETATM   23  N3  UNL     1      20.624   2.717  48.754  1.00  0.00    -0.282 NA
HETATM   24  C11 UNL     1      20.995   1.348  48.797  1.00  0.00     0.157 A 
HETATM   25  C12 UNL     1      21.184   0.843  50.177  1.00  0.00     0.100 A 
ENDBRANCH  18  20
ENDBRANCH  16  18
ENDBRANCH  11  12
ENDBRANCH   8  11
ENDBRANCH   5   8
ENDBRANCH   1   4
TORSDOF 7
ENDMDL
MODEL 6
REMARK VINA RESULT:      -6.7      2.589      5.679
REMARK  7 active torsions:
REMARK  status: ('A' for Active; 'I' for Inactive)
REMARK    1  A    between atoms: C2_2  and  C3_3 
REMARK    2  A    between atoms: C3_3  and  C4_4 
REMARK    3  A    between atoms: C3_3  and  N4_18 
REMARK    4  A    between atoms: C4_4  and  C5_5 
REMARK    5  A    between atoms: C8_9  and  N1_10 
REMARK    6  A    between atoms: N1_10  and  C9_11 
REMARK       I    between atoms: N4_18  and  C14_19 
REMARK    7  A    between atoms: C14_19  and  C15_21 
ROOT
HETATM    1  C15 UNL     1      27.028   4.658  49.114  1.00  0.00    -0.006 C 
HETATM    2  C16 UNL     1      27.606   5.543  48.532  1.00  0.00    -0.101 C 
HETATM    3  C17 UNL     1      28.325   6.605  47.827  1.00  0.00     0.112 C 
ENDROOT
BRANCH   1   4
HETATM    4  C14 UNL     1      26.328   3.608  49.838  1.00  0.00     0.301 C 
HETATM    5  N4  UNL     1      26.877   3.154  51.048  1.00  0.00    -0.313 N 
HETATM    6  H14 UNL     1      27.779   3.591  51.392  1.00  0.00     0.170 HD
HETATM    7  O1  UNL     1      25.258   3.125  49.380  1.00  0.00    -0.258 OA
BRANCH   5   8
HETATM    8  C3  UNL     1      26.296   2.158  51.821  1.00  0.00     0.055 C 
BRANCH   8   9
HETATM    9  C2  UNL     1      27.107   1.592  52.703  1.00  0.00    -0.130 C 
HETATM   10  C1  UNL     1      28.002   0.869  53.336  1.00  0.00     0.098 C 
ENDBRANCH   8   9
BRANCH   8  11
HETATM   11  C4  UNL     1      24.931   1.668  51.783  1.00  0.00     0.078 C 
BRANCH  11  12
HETATM   12  C5  UNL     1      23.983   2.294  52.763  1.00  0.00     0.040 A 
HETATM   13  C6  UNL     1      22.578   1.917  52.461  1.00  0.00     0.003 A 
HETATM   14  C7  UNL     1      21.891   3.039  52.187  1.00  0.00     0.034 A 
HETATM   15 BR1  UNL     1      20.076   3.471  51.708  1.00  0.00    -0.049 Br
HETATM   16  C8  UNL     1      22.794   4.187  52.292  1.00  0.00     0.047 A 
HETATM   17  C13 UNL     1      23.994   3.767  52.621  1.00  0.00     0.013 A 
BRANCH  16  18
HETATM   18  N1  UNL     1      22.669   5.592  52.124  1.00  0.00    -0.344 N 
HETATM   19  H7  UNL     1      22.101   6.191  52.795  1.00  0.00     0.167 HD
BRANCH  18  20
HETATM   20  C9  UNL     1      23.322   6.215  51.025  1.00  0.00     0.107 A 
HETATM   21  N2  UNL     1      24.183   7.152  51.233  1.00  0.00    -0.229 NA
HETATM   22  C10 UNL     1      24.856   7.800  50.167  1.00  0.00     0.228 A 
HETATM   23  N3  UNL     1      24.572   7.415  49.000  1.00  0.00    -0.282 NA
HETATM   24  C11 UNL     1      23.666   6.415  48.559  1.00  0.00     0.157 A 
HETATM   25  C12 UNL     1      22.965   5.737  49.674  1.00  0.00     0.100 A 
ENDBRANCH  18  20
ENDBRANCH  16  18
ENDBRANCH  11  12
ENDBRANCH   8  11
ENDBRANCH   5   8
ENDBRANCH   1   4
TORSDOF 7
ENDMDL
MODEL 7
REMARK VINA RESULT:      -6.5      3.607      7.737
REMARK  7 active torsions:
REMARK  status: ('A' for Active; 'I' for Inactive)
REMARK    1  A    between atoms: C2_2  and  C3_3 
REMARK    2  A    between atoms: C3_3  and  C4_4 
REMARK    3  A    between atoms: C3_3  and  N4_18 
REMARK    4  A    between atoms: C4_4  and  C5_5 
REMARK    5  A    between atoms: C8_9  and  N1_10 
REMARK    6  A    between atoms: N1_10  and  C9_11 
REMARK       I    between atoms: N4_18  and  C14_19 
REMARK    7  A    between atoms: C14_19  and  C15_21 
ROOT
HETATM    1  C15 UNL     1      27.892   0.072  53.459  1.00  0.00    -0.006 C 
HETATM    2  C16 UNL     1      28.817  -0.694  53.574  1.00  0.00    -0.101 C 
HETATM    3  C17 UNL     1      29.928  -1.634  53.728  1.00  0.00     0.112 C 
ENDROOT
BRANCH   1   4
HETATM    4  C14 UNL     1      26.792   1.017  53.332  1.00  0.00     0.301 C 
HETATM    5  N4  UNL     1      26.016   0.979  52.162  1.00  0.00    -0.313 N 
HETATM    6  H14 UNL     1      26.256   0.266  51.416  1.00  0.00     0.170 HD
HETATM    7  O1  UNL     1      26.553   1.843  54.253  1.00  0.00    -0.258 OA
BRANCH   5   8
HETATM    8  C3  UNL     1      24.944   1.832  51.933  1.00  0.00     0.055 C 
BRANCH   8   9
HETATM    9  C2  UNL     1      23.757   1.330  52.241  1.00  0.00    -0.130 C 
HETATM   10  C1  UNL     1      22.488   1.120  52.505  1.00  0.00     0.098 C 
ENDBRANCH   8   9
BRANCH   8  11
HETATM   11  C4  UNL     1      24.964   3.184  51.410  1.00  0.00     0.078 C 
BRANCH  11  12
HETATM   12  C5  UNL     1      25.201   3.312  49.934  1.00  0.00     0.040 A 
HETATM   13  C6  UNL     1      26.655   3.362  49.630  1.00  0.00     0.003 A 
HETATM   14  C7  UNL     1      26.921   4.540  49.040  1.00  0.00     0.034 A 
HETATM   15 BR1  UNL     1      28.485   5.415  48.336  1.00  0.00    -0.049 Br
HETATM   16  C8  UNL     1      25.679   5.308  48.930  1.00  0.00     0.047 A 
HETATM   17  C13 UNL     1      24.690   4.610  49.441  1.00  0.00     0.013 A 
BRANCH  16  18
HETATM   18  N1  UNL     1      25.320   6.582  48.417  1.00  0.00    -0.344 N 
HETATM   19  H7  UNL     1      24.474   6.719  47.786  1.00  0.00     0.167 HD
BRANCH  18  20
HETATM   20  C9  UNL     1      26.117   7.711  48.758  1.00  0.00     0.107 A 
HETATM   21  N2  UNL     1      26.336   7.995  49.997  1.00  0.00    -0.229 NA
HETATM   22  C10 UNL     1      27.123   9.109  50.381  1.00  0.00     0.228 A 
HETATM   23  N3  UNL     1      27.601   9.813  49.449  1.00  0.00    -0.282 NA
HETATM   24  C11 UNL     1      27.481   9.676  48.042  1.00  0.00     0.157 A 
HETATM   25  C12 UNL     1      26.660   8.509  47.642  1.00  0.00     0.100 A 
ENDBRANCH  18  20
ENDBRANCH  16  18
ENDBRANCH  11  12
ENDBRANCH   8  11
ENDBRANCH   5   8
ENDBRANCH   1   4
TORSDOF 7
ENDMDL
MODEL 8
REMARK VINA RESULT:      -6.4      2.855      6.904
REMARK  7 active torsions:
REMARK  status: ('A' for Active; 'I' for Inactive)
REMARK    1  A    between atoms: C2_2  and  C3_3 
REMARK    2  A    between atoms: C3_3  and  C4_4 
REMARK    3  A    between atoms: C3_3  and  N4_18 
REMARK    4  A    between atoms: C4_4  and  C5_5 
REMARK    5  A    between atoms: C8_9  and  N1_10 
REMARK    6  A    between atoms: N1_10  and  C9_11 
REMARK       I    between atoms: N4_18  and  C14_19 
REMARK    7  A    between atoms: C14_19  and  C15_21 
ROOT
HETATM    1  C15 UNL     1      27.631  -0.040  53.776  1.00  0.00    -0.006 C 
HETATM    2  C16 UNL     1      28.703  -0.583  53.673  1.00  0.00    -0.101 C 
HETATM    3  C17 UNL     1      30.007  -1.240  53.568  1.00  0.00     0.112 C 
ENDROOT
BRANCH   1   4
HETATM    4  C14 UNL     1      26.347   0.637  53.887  1.00  0.00     0.301 C 
HETATM    5  N4  UNL     1      25.244   0.082  53.220  1.00  0.00    -0.313 N 
HETATM    6  H14 UNL     1      25.382  -0.808  52.661  1.00  0.00     0.170 HD
HETATM    7  O1  UNL     1      26.242   1.693  54.566  1.00  0.00    -0.258 OA
BRANCH   5   8
HETATM    8  C3  UNL     1      23.973   0.642  53.256  1.00  0.00     0.055 C 
BRANCH   8   9
HETATM    9  C2  UNL     1      23.037  -0.133  53.783  1.00  0.00    -0.130 C 
HETATM   10  C1  UNL     1      22.349  -1.057  54.413  1.00  0.00     0.098 C 
ENDBRANCH   8   9
BRANCH   8  11
HETATM   11  C4  UNL     1      23.552   1.951  52.796  1.00  0.00     0.078 C 
BRANCH  11  12
HETATM   12  C5  UNL     1      22.303   1.984  51.967  1.00  0.00     0.040 A 
HETATM   13  C6  UNL     1      22.521   1.335  50.648  1.00  0.00     0.003 A 
HETATM   14  C7  UNL     1      22.314   2.252  49.688  1.00  0.00     0.034 A 
HETATM   15 BR1  UNL     1      22.374   2.282  47.763  1.00  0.00    -0.049 Br
HETATM   16  C8  UNL     1      21.957   3.526  50.316  1.00  0.00     0.047 A 
HETATM   17  C13 UNL     1      21.950   3.379  51.622  1.00  0.00     0.013 A 
BRANCH  16  18
HETATM   18  N1  UNL     1      21.633   4.828  49.851  1.00  0.00    -0.344 N 
HETATM   19  H7  UNL     1      20.641   5.099  49.580  1.00  0.00     0.167 HD
BRANCH  18  20
HETATM   20  C9  UNL     1      22.668   5.798  49.744  1.00  0.00     0.107 A 
HETATM   21  N2  UNL     1      23.593   5.659  48.856  1.00  0.00    -0.229 NA
HETATM   22  C10 UNL     1      24.642   6.601  48.715  1.00  0.00     0.228 A 
HETATM   23  N3  UNL     1      24.628   7.587  49.502  1.00  0.00    -0.282 NA
HETATM   24  C11 UNL     1      23.715   7.923  50.535  1.00  0.00     0.157 A 
HETATM   25  C12 UNL     1      22.618   6.938  50.680  1.00  0.00     0.100 A 
ENDBRANCH  18  20
ENDBRANCH  16  18
ENDBRANCH  11  12
ENDBRANCH   8  11
ENDBRANCH   5   8
ENDBRANCH   1   4
TORSDOF 7
ENDMDL
MODEL 9
REMARK VINA RESULT:      -6.3      3.432      7.241
REMARK  7 active torsions:
REMARK  status: ('A' for Active; 'I' for Inactive)
REMARK    1  A    between atoms: C2_2  and  C3_3 
REMARK    2  A    between atoms: C3_3  and  C4_4 
REMARK    3  A    between atoms: C3_3  and  N4_18 
REMARK    4  A    between atoms: C4_4  and  C5_5 
REMARK    5  A    between atoms: C8_9  and  N1_10 
REMARK    6  A    between atoms: N1_10  and  C9_11 
REMARK       I    between atoms: N4_18  and  C14_19 
REMARK    7  A    between atoms: C14_19  and  C15_21 
ROOT
HETATM    1  C15 UNL     1      27.645  -0.151  53.872  1.00  0.00    -0.006 C 
HETATM    2  C16 UNL     1      28.778  -0.536  53.719  1.00  0.00    -0.101 C 
HETATM    3  C17 UNL     1      30.160  -0.986  53.541  1.00  0.00     0.112 C 
ENDROOT
BRANCH   1   4
HETATM    4  C14 UNL     1      26.276   0.316  54.030  1.00  0.00     0.301 C 
HETATM    5  N4  UNL     1      25.260  -0.353  53.328  1.00  0.00    -0.313 N 
HETATM    6  H14 UNL     1      25.525  -1.172  52.710  1.00  0.00     0.170 HD
HETATM    7  O1  UNL     1      26.021   1.296  54.780  1.00  0.00    -0.258 OA
BRANCH   5   8
HETATM    8  C3  UNL     1      23.921   0.006  53.403  1.00  0.00     0.055 C 
BRANCH   8   9
HETATM    9  C2  UNL     1      23.179  -0.768  54.182  1.00  0.00    -0.130 C 
HETATM   10  C1  UNL     1      22.334  -1.268  55.054  1.00  0.00     0.098 C 
ENDBRANCH   8   9
BRANCH   8  11
HETATM   11  C4  UNL     1      23.245   1.108  52.745  1.00  0.00     0.078 C 
BRANCH  11  12
HETATM   12  C5  UNL     1      24.037   1.830  51.695  1.00  0.00     0.040 A 
HETATM   13  C6  UNL     1      24.406   3.195  52.150  1.00  0.00     0.003 A 
HETATM   14  C7  UNL     1      23.850   4.084  51.309  1.00  0.00     0.034 A 
HETATM   15 BR1  UNL     1      23.810   6.003  51.148  1.00  0.00    -0.049 Br
HETATM   16  C8  UNL     1      23.101   3.360  50.279  1.00  0.00     0.047 A 
HETATM   17  C13 UNL     1      23.204   2.068  50.495  1.00  0.00     0.013 A 
BRANCH  16  18
HETATM   18  N1  UNL     1      22.323   3.725  49.149  1.00  0.00    -0.344 N 
HETATM   19  H7  UNL     1      22.767   3.980  48.217  1.00  0.00     0.167 HD
BRANCH  18  20
HETATM   20  C9  UNL     1      20.905   3.753  49.270  1.00  0.00     0.107 A 
HETATM   21  N2  UNL     1      20.354   4.359  50.266  1.00  0.00    -0.229 NA
HETATM   22  C10 UNL     1      18.947   4.410  50.425  1.00  0.00     0.228 A 
HETATM   23  N3  UNL     1      18.256   3.832  49.542  1.00  0.00    -0.282 NA
HETATM   24  C11 UNL     1      18.659   3.118  48.384  1.00  0.00     0.157 A 
HETATM   25  C12 UNL     1      20.130   3.067  48.217  1.00  0.00     0.100 A 
ENDBRANCH  18  20
ENDBRANCH  16  18
ENDBRANCH  11  12
ENDBRANCH   8  11
ENDBRANCH   5   8
ENDBRANCH   1   4
TORSDOF 7
ENDMDL
