MODEL 1
REMARK VINA RESULT:      -7.4      0.000      0.000
REMARK  3 active torsions:
REMARK  status: ('A' for Active; 'I' for Inactive)
REMARK    1  A    between atoms: N1_2  and  C2_3 
REMARK    2  A    between atoms: C8_10  and  N3_11 
REMARK    3  A    between atoms: N3_11  and  C9_12 
ROOT
HETATM    1  C2  UNL     1      27.040   1.108  53.921  1.00  0.00     0.053 C 
HETATM    2  C3  UNL     1      26.806  -0.184  54.083  1.00  0.00     0.081 C 
HETATM    3  C4  UNL     1      27.408  -1.137  53.010  1.00  0.00     0.087 C 
HETATM    4  C5  UNL     1      26.256  -1.006  51.907  1.00  0.00     0.130 C 
HETATM    5  N2  UNL     1      25.259  -0.127  52.702  1.00  0.00    -0.368 N 
HETATM    6  C6  UNL     1      25.994   1.195  52.789  1.00  0.00     0.182 C 
HETATM    7  C7  UNL     1      24.011  -0.500  53.384  1.00  0.00     0.131 A 
HETATM    8  C8  UNL     1      22.677  -0.606  53.137  1.00  0.00     0.158 A 
HETATM    9  N4  UNL     1      21.934  -1.026  54.143  1.00  0.00    -0.222 NA
HETATM   10  C15 UNL     1      22.451  -1.334  55.346  1.00  0.00     0.238 A 
HETATM   11  N5  UNL     1      23.767  -1.267  55.714  1.00  0.00    -0.215 NA
HETATM   12  C16 UNL     1      24.575  -0.837  54.703  1.00  0.00     0.202 A 
HETATM   13  O2  UNL     1      25.996  -0.789  55.190  1.00  0.00    -0.292 OA
ENDROOT
BRANCH   8  14
HETATM   14  N3  UNL     1      22.538  -0.207  51.827  1.00  0.00    -0.343 N 
HETATM   15  H11 UNL     1      22.642  -0.639  50.894  1.00  0.00     0.164 HD
BRANCH  14  16
HETATM   16  C9  UNL     1      22.157   1.150  51.880  1.00  0.00     0.246 C 
HETATM   17  C10 UNL     1      22.815   1.974  50.803  1.00  0.00     0.027 C 
HETATM   18  C11 UNL     1      22.518   3.250  50.592  1.00  0.00     0.019 C 
HETATM   19  C12 UNL     1      21.565   4.133  51.271  1.00  0.00     0.009 C 
HETATM   20 BR1  UNL     1      21.657   5.995  50.957  1.00  0.00    -0.051 Br
HETATM   21  C13 UNL     1      20.615   3.727  52.115  1.00  0.00     0.018 C 
HETATM   22  C14 UNL     1      20.291   2.355  52.562  1.00  0.00     0.199 C 
HETATM   23  O1  UNL     1      20.795   1.378  51.738  1.00  0.00    -0.360 OA
ENDBRANCH  14  16
ENDBRANCH   8  14
BRANCH   1  24
HETATM   24  N1  UNL     1      27.629   2.395  54.151  1.00  0.00    -0.394 N 
HETATM   25  C1  UNL     1      29.019   2.628  53.716  1.00  0.00     0.146 C 
HETATM   26  H4  UNL     1      27.042   3.122  54.622  1.00  0.00     0.159 HD
ENDBRANCH   1  24
TORSDOF 3
ENDMDL
MODEL 2
REMARK VINA RESULT:      -7.3      3.329      7.051
REMARK  3 active torsions:
REMARK  status: ('A' for Active; 'I' for Inactive)
REMARK    1  A    between atoms: N1_2  and  C2_3 
REMARK    2  A    between atoms: C8_10  and  N3_11 
REMARK    3  A    between atoms: N3_11  and  C9_12 
ROOT
HETATM    1  C2  UNL     1      20.134   2.781  51.165  1.00  0.00     0.053 C 
HETATM    2  C3  UNL     1      20.942   2.093  50.374  1.00  0.00     0.081 C 
HETATM    3  C4  UNL     1      21.069   0.570  50.668  1.00  0.00     0.087 C 
HETATM    4  C5  UNL     1      22.171   0.646  51.827  1.00  0.00     0.130 C 
HETATM    5  N2  UNL     1      22.463   2.166  51.782  1.00  0.00    -0.368 N 
HETATM    6  C6  UNL     1      21.172   2.758  52.308  1.00  0.00     0.182 C 
HETATM    7  C7  UNL     1      23.604   2.889  51.200  1.00  0.00     0.131 A 
HETATM    8  C8  UNL     1      24.838   3.346  51.547  1.00  0.00     0.158 A 
HETATM    9  N4  UNL     1      25.516   3.959  50.595  1.00  0.00    -0.222 NA
HETATM   10  C15 UNL     1      25.029   4.129  49.353  1.00  0.00     0.238 A 
HETATM   11  N5  UNL     1      23.809   3.718  48.888  1.00  0.00    -0.215 NA
HETATM   12  C16 UNL     1      23.071   3.078  49.839  1.00  0.00     0.202 A 
HETATM   13  O2  UNL     1      21.752   2.665  49.250  1.00  0.00    -0.292 OA
ENDROOT
BRANCH   8  14
HETATM   14  N3  UNL     1      24.974   2.995  52.871  1.00  0.00    -0.343 N 
HETATM   15  H11 UNL     1      24.615   3.332  53.779  1.00  0.00     0.164 HD
BRANCH  14  16
HETATM   16  C9  UNL     1      25.843   1.884  52.883  1.00  0.00     0.246 C 
HETATM   17  C10 UNL     1      27.179   2.206  53.500  1.00  0.00     0.027 C 
HETATM   18  C11 UNL     1      28.110   1.287  53.720  1.00  0.00     0.019 C 
HETATM   19  C12 UNL     1      28.109  -0.155  53.455  1.00  0.00     0.009 C 
HETATM   20 BR1  UNL     1      29.740  -1.106  53.552  1.00  0.00    -0.051 Br
HETATM   21  C13 UNL     1      27.030  -0.873  53.141  1.00  0.00     0.018 C 
HETATM   22  C14 UNL     1      25.628  -0.428  52.988  1.00  0.00     0.199 C 
HETATM   23  O1  UNL     1      25.369   0.782  53.584  1.00  0.00    -0.360 OA
ENDBRANCH  14  16
ENDBRANCH   8  14
BRANCH   1  24
HETATM   24  N1  UNL     1      18.961   3.496  51.575  1.00  0.00    -0.394 N 
HETATM   25  C1  UNL     1      17.649   2.831  51.468  1.00  0.00     0.146 C 
HETATM   26  H4  UNL     1      19.087   4.470  51.936  1.00  0.00     0.159 HD
ENDBRANCH   1  24
TORSDOF 3
ENDMDL
MODEL 3
REMARK VINA RESULT:      -7.1      3.381      4.554
REMARK  3 active torsions:
REMARK  status: ('A' for Active; 'I' for Inactive)
REMARK    1  A    between atoms: N1_2  and  C2_3 
REMARK    2  A    between atoms: C8_10  and  N3_11 
REMARK    3  A    between atoms: N3_11  and  C9_12 
ROOT
HETATM    1  C2  UNL     1      26.059   0.959  53.824  1.00  0.00     0.053 C 
HETATM    2  C3  UNL     1      25.439   0.831  52.663  1.00  0.00     0.081 C 
HETATM    3  C4  UNL     1      26.312   1.012  51.387  1.00  0.00     0.087 C 
HETATM    4  C5  UNL     1      26.272   2.610  51.300  1.00  0.00     0.130 C 
HETATM    5  N2  UNL     1      25.287   2.890  52.462  1.00  0.00    -0.368 N 
HETATM    6  C6  UNL     1      26.101   2.495  53.676  1.00  0.00     0.182 C 
HETATM    7  C7  UNL     1      23.862   3.252  52.422  1.00  0.00     0.131 A 
HETATM    8  C8  UNL     1      23.064   4.353  52.375  1.00  0.00     0.158 A 
HETATM    9  N4  UNL     1      21.765   4.125  52.337  1.00  0.00    -0.222 NA
HETATM   10  C15 UNL     1      21.247   2.884  52.344  1.00  0.00     0.238 A 
HETATM   11  N5  UNL     1      21.942   1.706  52.391  1.00  0.00    -0.215 NA
HETATM   12  C16 UNL     1      23.292   1.892  52.431  1.00  0.00     0.202 A 
HETATM   13  O2  UNL     1      23.976   0.555  52.484  1.00  0.00    -0.292 OA
ENDROOT
BRANCH   8  14
HETATM   14  N3  UNL     1      23.943   5.413  52.388  1.00  0.00    -0.343 N 
HETATM   15  H11 UNL     1      24.534   5.890  53.087  1.00  0.00     0.164 HD
BRANCH  14  16
HETATM   16  C9  UNL     1      23.971   5.900  51.065  1.00  0.00     0.246 C 
HETATM   17  C10 UNL     1      23.382   7.283  50.950  1.00  0.00     0.027 C 
HETATM   18  C11 UNL     1      23.407   7.983  49.823  1.00  0.00     0.019 C 
HETATM   19  C12 UNL     1      23.955   7.651  48.505  1.00  0.00     0.009 C 
HETATM   20 BR1  UNL     1      23.494   8.730  47.022  1.00  0.00    -0.051 Br
HETATM   21  C13 UNL     1      24.771   6.627  48.253  1.00  0.00     0.018 C 
HETATM   22  C14 UNL     1      25.309   5.614  49.186  1.00  0.00     0.199 C 
HETATM   23  O1  UNL     1      25.238   5.992  50.505  1.00  0.00    -0.360 OA
ENDBRANCH  14  16
ENDBRANCH   8  14
BRANCH   1  24
HETATM   24  N1  UNL     1      26.669   0.564  55.061  1.00  0.00    -0.394 N 
HETATM   25  C1  UNL     1      28.075   0.122  55.050  1.00  0.00     0.146 C 
HETATM   26  H4  UNL     1      26.083   0.606  55.926  1.00  0.00     0.159 HD
ENDBRANCH   1  24
TORSDOF 3
ENDMDL
MODEL 4
REMARK VINA RESULT:      -7.0      2.727      3.745
REMARK  3 active torsions:
REMARK  status: ('A' for Active; 'I' for Inactive)
REMARK    1  A    between atoms: N1_2  and  C2_3 
REMARK    2  A    between atoms: C8_10  and  N3_11 
REMARK    3  A    between atoms: N3_11  and  C9_12 
ROOT
HETATM    1  C2  UNL     1      27.263   0.275  53.349  1.00  0.00     0.053 C 
HETATM    2  C3  UNL     1      26.371   0.728  54.214  1.00  0.00     0.081 C 
HETATM    3  C4  UNL     1      25.607  -0.341  55.048  1.00  0.00     0.087 C 
HETATM    4  C5  UNL     1      24.473  -0.705  53.979  1.00  0.00     0.130 C 
HETATM    5  N2  UNL     1      24.819   0.343  52.892  1.00  0.00    -0.368 N 
HETATM    6  C6  UNL     1      26.149  -0.161  52.372  1.00  0.00     0.182 C 
HETATM    7  C7  UNL     1      24.158   1.616  52.566  1.00  0.00     0.131 A 
HETATM    8  C8  UNL     1      23.172   2.105  51.766  1.00  0.00     0.158 A 
HETATM    9  N4  UNL     1      22.939   3.400  51.862  1.00  0.00    -0.222 NA
HETATM   10  C15 UNL     1      23.627   4.200  52.697  1.00  0.00     0.238 A 
HETATM   11  N5  UNL     1      24.635   3.828  53.543  1.00  0.00    -0.215 NA
HETATM   12  C16 UNL     1      24.912   2.494  53.478  1.00  0.00     0.202 A 
HETATM   13  O2  UNL     1      26.027   2.171  54.432  1.00  0.00    -0.292 OA
ENDROOT
BRANCH   8  14
HETATM   14  N3  UNL     1      22.718   1.007  51.071  1.00  0.00    -0.343 N 
HETATM   15  H11 UNL     1      23.053   0.421  50.289  1.00  0.00     0.164 HD
BRANCH  14  16
HETATM   16  C9  UNL     1      21.475   0.677  51.650  1.00  0.00     0.246 C 
HETATM   17  C10 UNL     1      20.361   0.643  50.636  1.00  0.00     0.027 C 
HETATM   18  C11 UNL     1      19.130   0.246  50.933  1.00  0.00     0.019 C 
HETATM   19  C12 UNL     1      18.559  -0.226  52.199  1.00  0.00     0.009 C 
HETATM   20 BR1  UNL     1      16.680  -0.363  52.362  1.00  0.00    -0.051 Br
HETATM   21  C13 UNL     1      19.267  -0.574  53.274  1.00  0.00     0.018 C 
HETATM   22  C14 UNL     1      20.734  -0.577  53.461  1.00  0.00     0.199 C 
HETATM   23  O1  UNL     1      21.437  -0.560  52.280  1.00  0.00    -0.360 OA
ENDBRANCH  14  16
ENDBRANCH   8  14
BRANCH   1  24
HETATM   24  N1  UNL     1      28.552  -0.030  52.798  1.00  0.00    -0.394 N 
HETATM   25  C1  UNL     1      29.517  -0.781  53.622  1.00  0.00     0.146 C 
HETATM   26  H4  UNL     1      28.754   0.297  51.825  1.00  0.00     0.159 HD
ENDBRANCH   1  24
TORSDOF 3
ENDMDL
MODEL 5
REMARK VINA RESULT:      -7.0      3.704      6.429
REMARK  3 active torsions:
REMARK  status: ('A' for Active; 'I' for Inactive)
REMARK    1  A    between atoms: N1_2  and  C2_3 
REMARK    2  A    between atoms: C8_10  and  N3_11 
REMARK    3  A    between atoms: N3_11  and  C9_12 
ROOT
HETATM    1  C2  UNL     1      25.175   5.564  48.971  1.00  0.00     0.053 C 
HETATM    2  C3  UNL     1      23.856   5.524  48.884  1.00  0.00     0.081 C 
HETATM    3  C4  UNL     1      23.077   6.640  49.639  1.00  0.00     0.087 C 
HETATM    4  C5  UNL     1      23.060   5.973  51.093  1.00  0.00     0.130 C 
HETATM    5  N2  UNL     1      23.712   4.611  50.741  1.00  0.00    -0.368 N 
HETATM    6  C6  UNL     1      25.135   5.012  50.413  1.00  0.00     0.182 C 
HETATM    7  C7  UNL     1      23.093   3.289  50.565  1.00  0.00     0.131 A 
HETATM    8  C8  UNL     1      22.769   2.183  51.287  1.00  0.00     0.158 A 
HETATM    9  N4  UNL     1      22.176   1.210  50.622  1.00  0.00    -0.222 NA
HETATM   10  C15 UNL     1      21.903   1.294  49.307  1.00  0.00     0.238 A 
HETATM   11  N5  UNL     1      22.180   2.347  48.478  1.00  0.00    -0.215 NA
HETATM   12  C16 UNL     1      22.795   3.378  49.125  1.00  0.00     0.202 A 
HETATM   13  O2  UNL     1      23.064   4.487  48.146  1.00  0.00    -0.292 OA
ENDROOT
BRANCH   8  14
HETATM   14  N3  UNL     1      23.203   2.467  52.563  1.00  0.00    -0.343 N 
HETATM   15  H11 UNL     1      22.927   3.107  53.325  1.00  0.00     0.164 HD
BRANCH  14  16
HETATM   16  C9  UNL     1      24.305   1.617  52.788  1.00  0.00     0.246 C 
HETATM   17  C10 UNL     1      25.471   2.341  53.409  1.00  0.00     0.027 C 
HETATM   18  C11 UNL     1      26.572   1.719  53.813  1.00  0.00     0.019 C 
HETATM   19  C12 UNL     1      26.933   0.299  53.776  1.00  0.00     0.009 C 
HETATM   20 BR1  UNL     1      28.729  -0.198  54.097  1.00  0.00    -0.051 Br
HETATM   21  C13 UNL     1      26.084  -0.699  53.529  1.00  0.00     0.018 C 
HETATM   22  C14 UNL     1      24.634  -0.638  53.243  1.00  0.00     0.199 C 
HETATM   23  O1  UNL     1      24.048   0.543  53.630  1.00  0.00    -0.360 OA
ENDBRANCH  14  16
ENDBRANCH   8  14
BRANCH   1  24
HETATM   24  N1  UNL     1      26.533   5.785  48.564  1.00  0.00    -0.394 N 
HETATM   25  C1  UNL     1      27.518   4.706  48.762  1.00  0.00     0.146 C 
HETATM   26  H4  UNL     1      26.768   6.712  48.140  1.00  0.00     0.159 HD
ENDBRANCH   1  24
TORSDOF 3
ENDMDL
MODEL 6
REMARK VINA RESULT:      -7.0      3.056      6.696
REMARK  3 active torsions:
REMARK  status: ('A' for Active; 'I' for Inactive)
REMARK    1  A    between atoms: N1_2  and  C2_3 
REMARK    2  A    between atoms: C8_10  and  N3_11 
REMARK    3  A    between atoms: N3_11  and  C9_12 
ROOT
HETATM    1  C2  UNL     1      19.585   1.428  50.823  1.00  0.00     0.053 C 
HETATM    2  C3  UNL     1      19.784   1.849  52.061  1.00  0.00     0.081 C 
HETATM    3  C4  UNL     1      20.063   3.370  52.240  1.00  0.00     0.087 C 
HETATM    4  C5  UNL     1      21.633   3.359  51.929  1.00  0.00     0.130 C 
HETATM    5  N2  UNL     1      21.840   1.829  51.791  1.00  0.00    -0.368 N 
HETATM    6  C6  UNL     1      21.095   1.518  50.509  1.00  0.00     0.182 C 
HETATM    7  C7  UNL     1      22.427   0.869  52.737  1.00  0.00     0.131 A 
HETATM    8  C8  UNL     1      23.630   0.323  53.060  1.00  0.00     0.158 A 
HETATM    9  N4  UNL     1      23.626  -0.535  54.063  1.00  0.00    -0.222 NA
HETATM   10  C15 UNL     1      22.506  -0.859  54.733  1.00  0.00     0.238 A 
HETATM   11  N5  UNL     1      21.245  -0.381  54.503  1.00  0.00    -0.215 NA
HETATM   12  C16 UNL     1      21.201   0.511  53.472  1.00  0.00     0.202 A 
HETATM   13  O2  UNL     1      19.786   0.983  53.285  1.00  0.00    -0.292 OA
ENDROOT
BRANCH   8  14
HETATM   14  N3  UNL     1      24.513   0.886  52.166  1.00  0.00    -0.343 N 
HETATM   15  H11 UNL     1      24.454   1.377  51.260  1.00  0.00     0.164 HD
BRANCH  14  16
HETATM   16  C9  UNL     1      25.795   0.688  52.720  1.00  0.00     0.246 C 
HETATM   17  C10 UNL     1      26.383  -0.647  52.342  1.00  0.00     0.027 C 
HETATM   18  C11 UNL     1      27.623  -1.001  52.655  1.00  0.00     0.019 C 
HETATM   19  C12 UNL     1      28.669  -0.273  53.381  1.00  0.00     0.009 C 
HETATM   20 BR1  UNL     1      30.199  -1.214  53.971  1.00  0.00    -0.051 Br
HETATM   21  C13 UNL     1      28.633   1.028  53.671  1.00  0.00     0.018 C 
HETATM   22  C14 UNL     1      27.588   2.024  53.352  1.00  0.00     0.199 C 
HETATM   23  O1  UNL     1      26.744   1.629  52.342  1.00  0.00    -0.360 OA
ENDBRANCH  14  16
ENDBRANCH   8  14
BRANCH   1  24
HETATM   24  N1  UNL     1      18.868   0.959  49.673  1.00  0.00    -0.394 N 
HETATM   25  C1  UNL     1      17.477   0.501  49.842  1.00  0.00     0.146 C 
HETATM   26  H4  UNL     1      19.368   0.962  48.754  1.00  0.00     0.159 HD
ENDBRANCH   1  24
TORSDOF 3
ENDMDL
MODEL 7
REMARK VINA RESULT:      -7.0      1.910      2.180
REMARK  3 active torsions:
REMARK  status: ('A' for Active; 'I' for Inactive)
REMARK    1  A    between atoms: N1_2  and  C2_3 
REMARK    2  A    between atoms: C8_10  and  N3_11 
REMARK    3  A    between atoms: N3_11  and  C9_12 
ROOT
HETATM    1  C2  UNL     1      27.480   0.442  54.318  1.00  0.00     0.053 C 
HETATM    2  C3  UNL     1      26.765  -0.475  53.688  1.00  0.00     0.081 C 
HETATM    3  C4  UNL     1      27.175  -0.785  52.218  1.00  0.00     0.087 C 
HETATM    4  C5  UNL     1      26.387   0.409  51.499  1.00  0.00     0.130 C 
HETATM    5  N2  UNL     1      25.645   0.985  52.731  1.00  0.00    -0.368 N 
HETATM    6  C6  UNL     1      26.779   1.577  53.542  1.00  0.00     0.182 C 
HETATM    7  C7  UNL     1      24.239   0.837  53.137  1.00  0.00     0.131 A 
HETATM    8  C8  UNL     1      23.034   1.445  52.971  1.00  0.00     0.158 A 
HETATM    9  N4  UNL     1      22.008   0.872  53.572  1.00  0.00    -0.222 NA
HETATM   10  C15 UNL     1      22.134  -0.246  54.309  1.00  0.00     0.238 A 
HETATM   11  N5  UNL     1      23.285  -0.944  54.550  1.00  0.00    -0.215 NA
HETATM   12  C16 UNL     1      24.374  -0.388  53.946  1.00  0.00     0.202 A 
HETATM   13  O2  UNL     1      25.592  -1.211  54.263  1.00  0.00    -0.292 OA
ENDROOT
BRANCH   8  14
HETATM   14  N3  UNL     1      23.308   2.536  52.176  1.00  0.00    -0.343 N 
HETATM   15  H11 UNL     1      23.977   3.322  52.184  1.00  0.00     0.164 HD
BRANCH  14  16
HETATM   16  C9  UNL     1      22.386   2.473  51.111  1.00  0.00     0.246 C 
HETATM   17  C10 UNL     1      22.340   3.751  50.315  1.00  0.00     0.027 C 
HETATM   18  C11 UNL     1      21.629   3.880  49.202  1.00  0.00     0.019 C 
HETATM   19  C12 UNL     1      20.775   2.918  48.499  1.00  0.00     0.009 C 
HETATM   20 BR1  UNL     1      19.617   3.543  47.140  1.00  0.00    -0.051 Br
HETATM   21  C13 UNL     1      20.740   1.607  48.741  1.00  0.00     0.018 C 
HETATM   22  C14 UNL     1      21.513   0.822  49.727  1.00  0.00     0.199 C 
HETATM   23  O1  UNL     1      22.636   1.470  50.184  1.00  0.00    -0.360 OA
ENDBRANCH  14  16
ENDBRANCH   8  14
BRANCH   1  24
HETATM   24  N1  UNL     1      28.441   0.987  55.232  1.00  0.00    -0.394 N 
HETATM   25  C1  UNL     1      29.466   1.913  54.716  1.00  0.00     0.146 C 
HETATM   26  H4  UNL     1      28.374   0.701  56.236  1.00  0.00     0.159 HD
ENDBRANCH   1  24
TORSDOF 3
ENDMDL
MODEL 8
REMARK VINA RESULT:      -6.8      4.658      5.821
REMARK  3 active torsions:
REMARK  status: ('A' for Active; 'I' for Inactive)
REMARK    1  A    between atoms: N1_2  and  C2_3 
REMARK    2  A    between atoms: C8_10  and  N3_11 
REMARK    3  A    between atoms: N3_11  and  C9_12 
ROOT
HETATM    1  C2  UNL     1      27.103   2.115  53.618  1.00  0.00     0.053 C 
HETATM    2  C3  UNL     1      25.825   1.821  53.441  1.00  0.00     0.081 C 
HETATM    3  C4  UNL     1      25.515   0.462  52.749  1.00  0.00     0.087 C 
HETATM    4  C5  UNL     1      25.679   0.932  51.227  1.00  0.00     0.130 C 
HETATM    5  N2  UNL     1      25.903   2.446  51.465  1.00  0.00    -0.368 N 
HETATM    6  C6  UNL     1      27.267   2.470  52.124  1.00  0.00     0.182 C 
HETATM    7  C7  UNL     1      24.975   3.574  51.294  1.00  0.00     0.131 A 
HETATM    8  C8  UNL     1      24.580   4.468  50.348  1.00  0.00     0.158 A 
HETATM    9  N4  UNL     1      23.644   5.323  50.714  1.00  0.00    -0.222 NA
HETATM   10  C15 UNL     1      23.105   5.322  51.947  1.00  0.00     0.238 A 
HETATM   11  N5  UNL     1      23.419   4.480  52.978  1.00  0.00    -0.215 NA
HETATM   12  C16 UNL     1      24.384   3.576  52.644  1.00  0.00     0.202 A 
HETATM   13  O2  UNL     1      24.670   2.695  53.828  1.00  0.00    -0.292 OA
ENDROOT
BRANCH   8  14
HETATM   14  N3  UNL     1      25.347   4.162  49.246  1.00  0.00    -0.343 N 
HETATM   15  H11 UNL     1      25.378   3.412  48.537  1.00  0.00     0.164 HD
BRANCH  14  16
HETATM   16  C9  UNL     1      26.301   5.195  49.147  1.00  0.00     0.246 C 
HETATM   17  C10 UNL     1      27.625   4.706  48.619  1.00  0.00     0.027 C 
HETATM   18  C11 UNL     1      28.632   5.522  48.337  1.00  0.00     0.019 C 
HETATM   19  C12 UNL     1      28.738   6.980  48.445  1.00  0.00     0.009 C 
HETATM   20 BR1  UNL     1      30.442   7.788  48.307  1.00  0.00    -0.051 Br
HETATM   21  C13 UNL     1      27.711   7.808  48.638  1.00  0.00     0.018 C 
HETATM   22  C14 UNL     1      26.274   7.491  48.785  1.00  0.00     0.199 C 
HETATM   23  O1  UNL     1      25.938   6.245  48.314  1.00  0.00    -0.360 OA
ENDBRANCH  14  16
ENDBRANCH   8  14
BRANCH   1  24
HETATM   24  N1  UNL     1      28.345   2.302  54.310  1.00  0.00    -0.394 N 
HETATM   25  C1  UNL     1      29.257   1.153  54.454  1.00  0.00     0.146 C 
HETATM   26  H4  UNL     1      28.552   3.256  54.688  1.00  0.00     0.159 HD
ENDBRANCH   1  24
TORSDOF 3
ENDMDL
MODEL 9
REMARK VINA RESULT:      -6.7      8.368     10.667
REMARK  3 active torsions:
REMARK  status: ('A' for Active; 'I' for Inactive)
REMARK    1  A    between atoms: N1_2  and  C2_3 
REMARK    2  A    between atoms: C8_10  and  N3_11 
REMARK    3  A    between atoms: N3_11  and  C9_12 
ROOT
HETATM    1  C2  UNL     1      34.444   4.705  45.597  1.00  0.00     0.053 C 
HETATM    2  C3  UNL     1      34.619   4.697  46.908  1.00  0.00     0.081 C 
HETATM    3  C4  UNL     1      34.643   3.302  47.597  1.00  0.00     0.087 C 
HETATM    4  C5  UNL     1      33.064   3.086  47.746  1.00  0.00     0.130 C 
HETATM    5  N2  UNL     1      32.583   4.465  47.228  1.00  0.00    -0.368 N 
HETATM    6  C6  UNL     1      32.940   4.397  45.757  1.00  0.00     0.182 C 
HETATM    7  C7  UNL     1      32.091   5.632  47.975  1.00  0.00     0.131 A 
HETATM    8  C8  UNL     1      30.927   6.157  48.445  1.00  0.00     0.158 A 
HETATM    9  N4  UNL     1      31.030   7.293  49.108  1.00  0.00    -0.222 NA
HETATM   10  C15 UNL     1      32.210   7.906  49.313  1.00  0.00     0.238 A 
HETATM   11  N5  UNL     1      33.440   7.480  48.891  1.00  0.00    -0.215 NA
HETATM   12  C16 UNL     1      33.382   6.306  48.200  1.00  0.00     0.202 A 
HETATM   13  O2  UNL     1      34.768   5.913  47.773  1.00  0.00    -0.292 OA
ENDROOT
BRANCH   8  14
HETATM   14  N3  UNL     1      29.960   5.265  48.038  1.00  0.00    -0.343 N 
HETATM   15  H11 UNL     1      29.936   4.322  47.616  1.00  0.00     0.164 HD
BRANCH  14  16
HETATM   16  C9  UNL     1      28.726   5.891  48.309  1.00  0.00     0.246 C 
HETATM   17  C10 UNL     1      28.423   7.005  47.340  1.00  0.00     0.027 C 
HETATM   18  C11 UNL     1      27.268   7.658  47.334  1.00  0.00     0.019 C 
HETATM   19  C12 UNL     1      26.078   7.501  48.175  1.00  0.00     0.009 C 
HETATM   20 BR1  UNL     1      24.745   8.841  48.138  1.00  0.00    -0.051 Br
HETATM   21  C13 UNL     1      25.848   6.468  48.988  1.00  0.00     0.018 C 
HETATM   22  C14 UNL     1      26.686   5.276  49.238  1.00  0.00     0.199 C 
HETATM   23  O1  UNL     1      27.623   5.049  48.258  1.00  0.00    -0.360 OA
ENDBRANCH  14  16
ENDBRANCH   8  14
BRANCH   1  24
HETATM   24  N1  UNL     1      34.779   4.826  44.208  1.00  0.00    -0.394 N 
HETATM   25  C1  UNL     1      33.690   4.857  43.215  1.00  0.00     0.146 C 
HETATM   26  H4  UNL     1      35.793   4.889  43.956  1.00  0.00     0.159 HD
ENDBRANCH   1  24
TORSDOF 3
ENDMDL
