MODEL 1
REMARK VINA RESULT:      -8.1      0.000      0.000
REMARK  8 active torsions:
REMARK  status: ('A' for Active; 'I' for Inactive)
REMARK    1  A    between atoms: N2_5  and  C4_6 
REMARK    2  A    between atoms: C4_6  and  C5_7 
REMARK    3  A    between atoms: C8_11  and  N4_12 
REMARK    4  A    between atoms: N4_12  and  C9_13 
REMARK    5  A    between atoms: C9_13  and  C10_14 
REMARK    6  A    between atoms: C9_13  and  C11_16 
REMARK    7  A    between atoms: C10_14  and  O1_15 
REMARK    8  A    between atoms: C18_23  and  N5_24 
ROOT
HETATM    1  C5  UNL     1      22.650   2.216  50.968  1.00  0.00     0.089 A 
HETATM    2  C6  UNL     1      24.340   2.604  50.796  1.00  0.00     0.078 A 
HETATM    3  C7  UNL     1      23.584   2.347  50.777  1.00  0.00     0.141 A 
HETATM    4  N3  UNL     1      24.514   1.433  51.694  1.00  0.00    -0.247 NA
HETATM    5  C8  UNL     1      25.754   1.915  51.687  1.00  0.00     0.111 A 
HETATM    6  C17 UNL     1      25.640   2.931  50.913  1.00  0.00     0.081 A 
HETATM    7  C18 UNL     1      25.212   3.964  50.029  1.00  0.00     0.107 A 
HETATM    8  N5  UNL     1      24.015   3.755  49.848  1.00  0.00    -0.263 NA
ENDROOT
BRANCH   5   9
HETATM    9  N4  UNL     1      27.183   1.921  52.078  1.00  0.00    -0.367 N 
HETATM   10  H11 UNL     1      27.983   2.251  51.456  1.00  0.00     0.161 HD
BRANCH   9  11
HETATM   11  C9  UNL     1      27.507   1.425  53.409  1.00  0.00     0.139 C 
BRANCH  11  12
HETATM   12  C10 UNL     1      28.749   2.192  53.871  1.00  0.00     0.194 C 
BRANCH  12  13
HETATM   13  O1  UNL     1      29.106   3.143  52.926  1.00  0.00    -0.399 OA
HETATM   14  H15 UNL     1      29.848   2.852  52.343  1.00  0.00     0.209 HD
ENDBRANCH  12  13
ENDBRANCH  11  12
BRANCH  11  15
HETATM   15  C11 UNL     1      27.910   0.010  53.276  1.00  0.00    -0.034 A 
HETATM   16  C12 UNL     1      29.214  -0.328  53.568  1.00  0.00     0.009 A 
HETATM   17  C13 UNL     1      29.681  -1.620  53.476  1.00  0.00     0.001 A 
HETATM   18  C14 UNL     1      28.771  -2.579  53.070  1.00  0.00     0.000 A 
HETATM   19  C15 UNL     1      27.465  -2.274  52.771  1.00  0.00     0.001 A 
HETATM   20  C16 UNL     1      27.015  -0.956  52.873  1.00  0.00     0.009 A 
ENDBRANCH  11  15
ENDBRANCH   9  11
ENDBRANCH   5   9
BRANCH   1  21
HETATM   21  C4  UNL     1      21.843   1.205  50.092  1.00  0.00     0.283 C 
BRANCH  21  22
HETATM   22  N2  UNL     1      20.871   0.591  50.864  1.00  0.00     0.092 N 
HETATM   23  C3  UNL     1      19.672   1.392  50.924  1.00  0.00     0.302 C 
HETATM   24  C2  UNL     1      18.481   0.536  51.353  1.00  0.00     0.302 C 
HETATM   25  N1  UNL     1      18.939  -0.537  52.229  1.00  0.00     0.087 N 
HETATM   26  C1  UNL     1      17.921  -1.056  53.092  1.00  0.00     0.310 C 
HETATM   27  C20 UNL     1      20.048  -0.086  53.053  1.00  0.00     0.302 C 
HETATM   28  C19 UNL     1      21.255   0.061  52.134  1.00  0.00     0.302 C 
ENDBRANCH  21  22
ENDBRANCH   1  21
TORSDOF 8
ENDMDL
MODEL 2
REMARK VINA RESULT:      -7.9      4.662      9.041
REMARK  8 active torsions:
REMARK  status: ('A' for Active; 'I' for Inactive)
REMARK    1  A    between atoms: N2_5  and  C4_6 
REMARK    2  A    between atoms: C4_6  and  C5_7 
REMARK    3  A    between atoms: C8_11  and  N4_12 
REMARK    4  A    between atoms: N4_12  and  C9_13 
REMARK    5  A    between atoms: C9_13  and  C10_14 
REMARK    6  A    between atoms: C9_13  and  C11_16 
REMARK    7  A    between atoms: C10_14  and  O1_15 
REMARK    8  A    between atoms: C18_23  and  N5_24 
ROOT
HETATM    1  C5  UNL     1      28.912   6.007  47.951  1.00  0.00     0.089 A 
HETATM    2  C6  UNL     1      27.304   5.746  48.570  1.00  0.00     0.078 A 
HETATM    3  C7  UNL     1      28.068   5.910  48.403  1.00  0.00     0.141 A 
HETATM    4  N3  UNL     1      27.876   4.445  48.999  1.00  0.00    -0.247 NA
HETATM    5  C8  UNL     1      26.587   4.233  49.251  1.00  0.00     0.111 A 
HETATM    6  C17 UNL     1      26.060   5.347  48.893  1.00  0.00     0.081 A 
HETATM    7  C18 UNL     1      25.776   6.666  48.433  1.00  0.00     0.107 A 
HETATM    8  N5  UNL     1      26.865   7.134  48.110  1.00  0.00    -0.263 NA
ENDROOT
BRANCH   5   9
HETATM    9  N4  UNL     1      25.435   3.426  49.717  1.00  0.00    -0.367 N 
HETATM   10  H11 UNL     1      24.611   3.133  49.108  1.00  0.00     0.161 HD
BRANCH   9  11
HETATM   11  C9  UNL     1      25.436   3.019  51.115  1.00  0.00     0.139 C 
BRANCH  11  12
HETATM   12  C10 UNL     1      26.651   2.107  51.305  1.00  0.00     0.194 C 
BRANCH  12  13
HETATM   13  O1  UNL     1      27.683   2.801  51.917  1.00  0.00    -0.399 OA
HETATM   14  H15 UNL     1      28.576   2.442  51.700  1.00  0.00     0.209 HD
ENDBRANCH  12  13
ENDBRANCH  11  12
BRANCH  11  15
HETATM   15  C11 UNL     1      24.240   2.181  51.340  1.00  0.00    -0.034 A 
HETATM   16  C12 UNL     1      24.215   1.362  52.448  1.00  0.00     0.009 A 
HETATM   17  C13 UNL     1      23.144   0.547  52.741  1.00  0.00     0.001 A 
HETATM   18  C14 UNL     1      22.078   0.586  51.861  1.00  0.00     0.000 A 
HETATM   19  C15 UNL     1      22.073   1.391  50.748  1.00  0.00     0.001 A 
HETATM   20  C16 UNL     1      23.171   2.210  50.472  1.00  0.00     0.009 A 
ENDBRANCH  11  15
ENDBRANCH   9  11
ENDBRANCH   5   9
BRANCH   1  21
HETATM   21  C4  UNL     1      30.119   6.602  48.744  1.00  0.00     0.283 C 
BRANCH  21  22
HETATM   22  N2  UNL     1      31.253   5.842  48.507  1.00  0.00     0.092 N 
HETATM   23  C3  UNL     1      32.437   6.668  48.484  1.00  0.00     0.302 C 
HETATM   24  C2  UNL     1      33.685   5.814  48.696  1.00  0.00     0.302 C 
HETATM   25  N1  UNL     1      33.462   4.477  48.158  1.00  0.00     0.087 N 
HETATM   26  C1  UNL     1      34.666   3.780  47.817  1.00  0.00     0.310 C 
HETATM   27  C20 UNL     1      32.621   4.537  46.974  1.00  0.00     0.302 C 
HETATM   28  C19 UNL     1      31.215   4.888  47.445  1.00  0.00     0.302 C 
ENDBRANCH  21  22
ENDBRANCH   1  21
TORSDOF 8
ENDMDL
MODEL 3
REMARK VINA RESULT:      -7.8      2.661      6.872
REMARK  8 active torsions:
REMARK  status: ('A' for Active; 'I' for Inactive)
REMARK    1  A    between atoms: N2_5  and  C4_6 
REMARK    2  A    between atoms: C4_6  and  C5_7 
REMARK    3  A    between atoms: C8_11  and  N4_12 
REMARK    4  A    between atoms: N4_12  and  C9_13 
REMARK    5  A    between atoms: C9_13  and  C10_14 
REMARK    6  A    between atoms: C9_13  and  C11_16 
REMARK    7  A    between atoms: C10_14  and  O1_15 
REMARK    8  A    between atoms: C18_23  and  N5_24 
ROOT
HETATM    1  C5  UNL     1      23.467   0.853  53.114  1.00  0.00     0.089 A 
HETATM    2  C6  UNL     1      23.171   1.374  51.478  1.00  0.00     0.078 A 
HETATM    3  C7  UNL     1      23.366   1.035  52.175  1.00  0.00     0.141 A 
HETATM    4  N3  UNL     1      24.501   2.014  51.634  1.00  0.00    -0.247 NA
HETATM    5  C8  UNL     1      24.114   2.547  50.477  1.00  0.00     0.111 A 
HETATM    6  C17 UNL     1      22.962   2.008  50.310  1.00  0.00     0.081 A 
HETATM    7  C18 UNL     1      21.751   1.261  50.395  1.00  0.00     0.107 A 
HETATM    8  N5  UNL     1      21.839   0.629  51.445  1.00  0.00    -0.263 NA
ENDROOT
BRANCH   5   9
HETATM    9  N4  UNL     1      24.282   3.410  49.286  1.00  0.00    -0.367 N 
HETATM   10  H11 UNL     1      24.330   3.059  48.280  1.00  0.00     0.161 HD
BRANCH   9  11
HETATM   11  C9  UNL     1      24.402   4.843  49.519  1.00  0.00     0.139 C 
BRANCH  11  12
HETATM   12  C10 UNL     1      23.380   5.522  48.602  1.00  0.00     0.194 C 
BRANCH  12  13
HETATM   13  O1  UNL     1      22.744   4.579  47.809  1.00  0.00    -0.399 OA
HETATM   14  H15 UNL     1      21.920   4.919  47.385  1.00  0.00     0.209 HD
ENDBRANCH  12  13
ENDBRANCH  11  12
BRANCH  11  15
HETATM   15  C11 UNL     1      25.736   5.266  49.049  1.00  0.00    -0.034 A 
HETATM   16  C12 UNL     1      25.880   6.544  48.554  1.00  0.00     0.009 A 
HETATM   17  C13 UNL     1      27.085   7.028  48.095  1.00  0.00     0.001 A 
HETATM   18  C14 UNL     1      28.162   6.162  48.153  1.00  0.00     0.000 A 
HETATM   19  C15 UNL     1      28.051   4.882  48.640  1.00  0.00     0.001 A 
HETATM   20  C16 UNL     1      26.818   4.415  49.101  1.00  0.00     0.009 A 
ENDBRANCH  11  15
ENDBRANCH   9  11
ENDBRANCH   5   9
BRANCH   1  21
HETATM   21  C4  UNL     1      24.231  -0.440  53.545  1.00  0.00     0.283 C 
BRANCH  21  22
HETATM   22  N2  UNL     1      25.591  -0.181  53.598  1.00  0.00     0.092 N 
HETATM   23  C3  UNL     1      26.354  -1.299  53.097  1.00  0.00     0.302 C 
HETATM   24  C2  UNL     1      27.765  -0.854  52.719  1.00  0.00     0.302 C 
HETATM   25  N1  UNL     1      28.175   0.254  53.574  1.00  0.00     0.087 N 
HETATM   26  C1  UNL     1      29.595   0.403  53.690  1.00  0.00     0.310 C 
HETATM   27  C20 UNL     1      27.623   0.100  54.909  1.00  0.00     0.302 C 
HETATM   28  C19 UNL     1      26.126   0.364  54.806  1.00  0.00     0.302 C 
ENDBRANCH  21  22
ENDBRANCH   1  21
TORSDOF 8
ENDMDL
MODEL 4
REMARK VINA RESULT:      -7.7      2.239      4.283
REMARK  8 active torsions:
REMARK  status: ('A' for Active; 'I' for Inactive)
REMARK    1  A    between atoms: N2_5  and  C4_6 
REMARK    2  A    between atoms: C4_6  and  C5_7 
REMARK    3  A    between atoms: C8_11  and  N4_12 
REMARK    4  A    between atoms: N4_12  and  C9_13 
REMARK    5  A    between atoms: C9_13  and  C10_14 
REMARK    6  A    between atoms: C9_13  and  C11_16 
REMARK    7  A    between atoms: C10_14  and  O1_15 
REMARK    8  A    between atoms: C18_23  and  N5_24 
ROOT
HETATM    1  C5  UNL     1      20.948   1.090  52.425  1.00  0.00     0.089 A 
HETATM    2  C6  UNL     1      22.182   0.275  53.348  1.00  0.00     0.078 A 
HETATM    3  C7  UNL     1      21.632   0.745  53.008  1.00  0.00     0.141 A 
HETATM    4  N3  UNL     1      23.094   1.002  52.429  1.00  0.00    -0.247 NA
HETATM    5  C8  UNL     1      23.959   0.189  53.030  1.00  0.00     0.111 A 
HETATM    6  C17 UNL     1      23.200  -0.455  53.839  1.00  0.00     0.081 A 
HETATM    7  C18 UNL     1      22.129  -0.984  54.617  1.00  0.00     0.107 A 
HETATM    8  N5  UNL     1      21.131  -0.372  54.246  1.00  0.00    -0.263 NA
ENDROOT
BRANCH   5   9
HETATM    9  N4  UNL     1      25.306  -0.374  53.279  1.00  0.00    -0.367 N 
HETATM   10  H11 UNL     1      25.511  -1.402  53.475  1.00  0.00     0.161 HD
BRANCH   9  11
HETATM   11  C9  UNL     1      26.426   0.558  53.263  1.00  0.00     0.139 C 
BRANCH  11  12
HETATM   12  C10 UNL     1      26.401   1.248  51.897  1.00  0.00     0.194 C 
BRANCH  12  13
HETATM   13  O1  UNL     1      26.803   2.570  52.018  1.00  0.00    -0.399 OA
HETATM   14  H15 UNL     1      26.929   3.019  51.149  1.00  0.00     0.209 HD
ENDBRANCH  12  13
ENDBRANCH  11  12
BRANCH  11  15
HETATM   15  C11 UNL     1      27.671  -0.235  53.313  1.00  0.00    -0.034 A 
HETATM   16  C12 UNL     1      27.612  -1.567  52.968  1.00  0.00     0.009 A 
HETATM   17  C13 UNL     1      28.721  -2.385  52.982  1.00  0.00     0.001 A 
HETATM   18  C14 UNL     1      29.915  -1.801  53.364  1.00  0.00     0.000 A 
HETATM   19  C15 UNL     1      30.007  -0.476  53.714  1.00  0.00     0.001 A 
HETATM   20  C16 UNL     1      28.868   0.333  53.691  1.00  0.00     0.009 A 
ENDBRANCH  11  15
ENDBRANCH   9  11
ENDBRANCH   5   9
BRANCH   1  21
HETATM   21  C4  UNL     1      20.378   2.517  52.709  1.00  0.00     0.283 C 
BRANCH  21  22
HETATM   22  N2  UNL     1      20.758   3.381  51.695  1.00  0.00     0.092 N 
HETATM   23  C3  UNL     1      21.729   4.340  52.164  1.00  0.00     0.302 C 
HETATM   24  C2  UNL     1      22.478   4.959  50.987  1.00  0.00     0.302 C 
HETATM   25  N1  UNL     1      21.606   5.001  49.818  1.00  0.00     0.087 N 
HETATM   26  C1  UNL     1      21.974   5.995  48.854  1.00  0.00     0.310 C 
HETATM   27  C20 UNL     1      20.230   5.242  50.216  1.00  0.00     0.302 C 
HETATM   28  C19 UNL     1      19.733   3.969  50.892  1.00  0.00     0.302 C 
ENDBRANCH  21  22
ENDBRANCH   1  21
TORSDOF 8
ENDMDL
MODEL 5
REMARK VINA RESULT:      -7.7      2.572      4.361
REMARK  8 active torsions:
REMARK  status: ('A' for Active; 'I' for Inactive)
REMARK    1  A    between atoms: N2_5  and  C4_6 
REMARK    2  A    between atoms: C4_6  and  C5_7 
REMARK    3  A    between atoms: C8_11  and  N4_12 
REMARK    4  A    between atoms: N4_12  and  C9_13 
REMARK    5  A    between atoms: C9_13  and  C10_14 
REMARK    6  A    between atoms: C9_13  and  C11_16 
REMARK    7  A    between atoms: C10_14  and  O1_15 
REMARK    8  A    between atoms: C18_23  and  N5_24 
ROOT
HETATM    1  C5  UNL     1      21.840   2.866  51.450  1.00  0.00     0.089 A 
HETATM    2  C6  UNL     1      22.576   1.539  52.307  1.00  0.00     0.078 A 
HETATM    3  C7  UNL     1      22.192   2.182  52.028  1.00  0.00     0.141 A 
HETATM    4  N3  UNL     1      23.669   2.521  52.521  1.00  0.00    -0.247 NA
HETATM    5  C8  UNL     1      24.253   1.412  52.967  1.00  0.00     0.111 A 
HETATM    6  C17 UNL     1      23.329   0.538  52.799  1.00  0.00     0.081 A 
HETATM    7  C18 UNL     1      22.134  -0.183  52.508  1.00  0.00     0.107 A 
HETATM    8  N5  UNL     1      21.361   0.652  52.047  1.00  0.00    -0.263 NA
ENDROOT
BRANCH   5   9
HETATM    9  N4  UNL     1      25.375   0.638  53.549  1.00  0.00    -0.367 N 
HETATM   10  H11 UNL     1      25.266  -0.239  54.146  1.00  0.00     0.161 HD
BRANCH   9  11
HETATM   11  C9  UNL     1      26.722   1.129  53.290  1.00  0.00     0.139 C 
BRANCH  11  12
HETATM   12  C10 UNL     1      26.711   1.709  51.873  1.00  0.00     0.194 C 
BRANCH  12  13
HETATM   13  O1  UNL     1      27.518   2.835  51.808  1.00  0.00    -0.399 OA
HETATM   14  H15 UNL     1      27.551   3.238  50.907  1.00  0.00     0.209 HD
ENDBRANCH  12  13
ENDBRANCH  11  12
BRANCH  11  15
HETATM   15  C11 UNL     1      27.628  -0.036  53.262  1.00  0.00    -0.034 A 
HETATM   16  C12 UNL     1      28.941   0.148  53.636  1.00  0.00     0.009 A 
HETATM   17  C13 UNL     1      29.859  -0.879  53.644  1.00  0.00     0.001 A 
HETATM   18  C14 UNL     1      29.398  -2.123  53.253  1.00  0.00     0.000 A 
HETATM   19  C15 UNL     1      28.096  -2.339  52.874  1.00  0.00     0.001 A 
HETATM   20  C16 UNL     1      27.183  -1.281  52.876  1.00  0.00     0.009 A 
ENDBRANCH  11  15
ENDBRANCH   9  11
ENDBRANCH   5   9
BRANCH   1  21
HETATM   21  C4  UNL     1      20.947   3.985  52.077  1.00  0.00     0.283 C 
BRANCH  21  22
HETATM   22  N2  UNL     1      21.176   5.185  51.424  1.00  0.00     0.092 N 
HETATM   23  C3  UNL     1      20.568   5.190  50.116  1.00  0.00     0.302 C 
HETATM   24  C2  UNL     1      20.411   6.621  49.607  1.00  0.00     0.302 C 
HETATM   25  N1  UNL     1      21.478   7.454  50.149  1.00  0.00     0.087 N 
HETATM   26  C1  UNL     1      21.756   8.623  49.369  1.00  0.00     0.310 C 
HETATM   27  C20 UNL     1      22.708   6.690  50.276  1.00  0.00     0.302 C 
HETATM   28  C19 UNL     1      22.505   5.709  51.426  1.00  0.00     0.302 C 
ENDBRANCH  21  22
ENDBRANCH   1  21
TORSDOF 8
ENDMDL
MODEL 6
REMARK VINA RESULT:      -7.6      5.527      9.583
REMARK  8 active torsions:
REMARK  status: ('A' for Active; 'I' for Inactive)
REMARK    1  A    between atoms: N2_5  and  C4_6 
REMARK    2  A    between atoms: C4_6  and  C5_7 
REMARK    3  A    between atoms: C8_11  and  N4_12 
REMARK    4  A    between atoms: N4_12  and  C9_13 
REMARK    5  A    between atoms: C9_13  and  C10_14 
REMARK    6  A    between atoms: C9_13  and  C11_16 
REMARK    7  A    between atoms: C10_14  and  O1_15 
REMARK    8  A    between atoms: C18_23  and  N5_24 
ROOT
HETATM    1  C5  UNL     1      29.719   5.792  47.754  1.00  0.00     0.089 A 
HETATM    2  C6  UNL     1      28.136   6.154  48.386  1.00  0.00     0.078 A 
HETATM    3  C7  UNL     1      28.903   6.007  48.216  1.00  0.00     0.141 A 
HETATM    4  N3  UNL     1      28.121   4.699  48.684  1.00  0.00    -0.247 NA
HETATM    5  C8  UNL     1      26.855   5.009  48.947  1.00  0.00     0.111 A 
HETATM    6  C17 UNL     1      26.833   6.268  48.702  1.00  0.00     0.081 A 
HETATM    7  C18 UNL     1      27.118   7.624  48.368  1.00  0.00     0.107 A 
HETATM    8  N5  UNL     1      28.307   7.635  48.062  1.00  0.00    -0.263 NA
ENDROOT
BRANCH   5   9
HETATM    9  N4  UNL     1      25.467   4.702  49.366  1.00  0.00    -0.367 N 
HETATM   10  H11 UNL     1      24.724   5.432  49.595  1.00  0.00     0.161 HD
BRANCH   9  11
HETATM   11  C9  UNL     1      25.106   3.296  49.481  1.00  0.00     0.139 C 
BRANCH  11  12
HETATM   12  C10 UNL     1      23.596   3.211  49.243  1.00  0.00     0.194 C 
BRANCH  12  13
HETATM   13  O1  UNL     1      23.190   4.208  48.370  1.00  0.00    -0.399 OA
HETATM   14  H15 UNL     1      22.256   4.103  48.067  1.00  0.00     0.209 HD
ENDBRANCH  12  13
ENDBRANCH  11  12
BRANCH  11  15
HETATM   15  C11 UNL     1      25.337   2.885  50.880  1.00  0.00    -0.034 A 
HETATM   16  C12 UNL     1      24.369   3.178  51.816  1.00  0.00     0.009 A 
HETATM   17  C13 UNL     1      24.494   2.834  53.143  1.00  0.00     0.001 A 
HETATM   18  C14 UNL     1      25.653   2.171  53.503  1.00  0.00     0.000 A 
HETATM   19  C15 UNL     1      26.637   1.863  52.595  1.00  0.00     0.001 A 
HETATM   20  C16 UNL     1      26.486   2.223  51.253  1.00  0.00     0.009 A 
ENDBRANCH  11  15
ENDBRANCH   9  11
ENDBRANCH   5   9
BRANCH   1  21
HETATM   21  C4  UNL     1      31.052   5.769  48.569  1.00  0.00     0.283 C 
BRANCH  21  22
HETATM   22  N2  UNL     1      32.089   5.340  47.755  1.00  0.00     0.092 N 
HETATM   23  C3  UNL     1      31.817   4.030  47.214  1.00  0.00     0.302 C 
HETATM   24  C2  UNL     1      32.691   3.768  45.989  1.00  0.00     0.302 C 
HETATM   25  N1  UNL     1      33.954   4.485  46.126  1.00  0.00     0.087 N 
HETATM   26  C1  UNL     1      35.024   3.927  45.354  1.00  0.00     0.310 C 
HETATM   27  C20 UNL     1      34.370   4.525  47.518  1.00  0.00     0.302 C 
HETATM   28  C19 UNL     1      33.426   5.481  48.237  1.00  0.00     0.302 C 
ENDBRANCH  21  22
ENDBRANCH   1  21
TORSDOF 8
ENDMDL
MODEL 7
REMARK VINA RESULT:      -7.5      2.617      5.205
REMARK  8 active torsions:
REMARK  status: ('A' for Active; 'I' for Inactive)
REMARK    1  A    between atoms: N2_5  and  C4_6 
REMARK    2  A    between atoms: C4_6  and  C5_7 
REMARK    3  A    between atoms: C8_11  and  N4_12 
REMARK    4  A    between atoms: N4_12  and  C9_13 
REMARK    5  A    between atoms: C9_13  and  C10_14 
REMARK    6  A    between atoms: C9_13  and  C11_16 
REMARK    7  A    between atoms: C10_14  and  O1_15 
REMARK    8  A    between atoms: C18_23  and  N5_24 
ROOT
HETATM    1  C5  UNL     1      23.545  -0.332  53.182  1.00  0.00     0.089 A 
HETATM    2  C6  UNL     1      24.758   0.918  53.117  1.00  0.00     0.078 A 
HETATM    3  C7  UNL     1      24.153   0.411  53.244  1.00  0.00     0.141 A 
HETATM    4  N3  UNL     1      23.765   1.584  52.237  1.00  0.00    -0.247 NA
HETATM    5  C8  UNL     1      24.812   2.386  52.065  1.00  0.00     0.111 A 
HETATM    6  C17 UNL     1      25.693   1.838  52.819  1.00  0.00     0.081 A 
HETATM    7  C18 UNL     1      26.437   1.026  53.725  1.00  0.00     0.107 A 
HETATM    8  N5  UNL     1      25.662   0.138  54.069  1.00  0.00    -0.263 NA
ENDROOT
BRANCH   5   9
HETATM    9  N4  UNL     1      25.513   3.557  51.488  1.00  0.00    -0.367 N 
HETATM   10  H11 UNL     1      26.442   3.945  51.839  1.00  0.00     0.161 HD
BRANCH   9  11
HETATM   11  C9  UNL     1      24.870   4.226  50.365  1.00  0.00     0.139 C 
BRANCH  11  12
HETATM   12  C10 UNL     1      24.307   3.124  49.464  1.00  0.00     0.194 C 
BRANCH  12  13
HETATM   13  O1  UNL     1      23.317   3.636  48.638  1.00  0.00    -0.399 OA
HETATM   14  H15 UNL     1      22.432   3.231  48.796  1.00  0.00     0.209 HD
ENDBRANCH  12  13
ENDBRANCH  11  12
BRANCH  11  15
HETATM   15  C11 UNL     1      25.922   4.911  49.587  1.00  0.00    -0.034 A 
HETATM   16  C12 UNL     1      25.719   6.227  49.232  1.00  0.00     0.009 A 
HETATM   17  C13 UNL     1      26.643   6.949  48.509  1.00  0.00     0.001 A 
HETATM   18  C14 UNL     1      27.801   6.285  48.148  1.00  0.00     0.000 A 
HETATM   19  C15 UNL     1      28.033   4.974  48.487  1.00  0.00     0.001 A 
HETATM   20  C16 UNL     1      27.081   4.263  49.222  1.00  0.00     0.009 A 
ENDBRANCH  11  15
ENDBRANCH   9  11
ENDBRANCH   5   9
BRANCH   1  21
HETATM   21  C4  UNL     1      22.350  -0.404  54.185  1.00  0.00     0.283 C 
BRANCH  21  22
HETATM   22  N2  UNL     1      21.154  -0.423  53.484  1.00  0.00     0.092 N 
HETATM   23  C3  UNL     1      20.586   0.900  53.390  1.00  0.00     0.302 C 
HETATM   24  C2  UNL     1      19.564   0.961  52.257  1.00  0.00     0.302 C 
HETATM   25  N1  UNL     1      18.935  -0.345  52.093  1.00  0.00     0.087 N 
HETATM   26  C1  UNL     1      17.646  -0.295  51.471  1.00  0.00     0.310 C 
HETATM   27  C20 UNL     1      18.793  -1.008  53.379  1.00  0.00     0.302 C 
HETATM   28  C19 UNL     1      20.192  -1.423  53.822  1.00  0.00     0.302 C 
ENDBRANCH  21  22
ENDBRANCH   1  21
TORSDOF 8
ENDMDL
MODEL 8
REMARK VINA RESULT:      -7.5      5.412      6.969
REMARK  8 active torsions:
REMARK  status: ('A' for Active; 'I' for Inactive)
REMARK    1  A    between atoms: N2_5  and  C4_6 
REMARK    2  A    between atoms: C4_6  and  C5_7 
REMARK    3  A    between atoms: C8_11  and  N4_12 
REMARK    4  A    between atoms: N4_12  and  C9_13 
REMARK    5  A    between atoms: C9_13  and  C10_14 
REMARK    6  A    between atoms: C9_13  and  C11_16 
REMARK    7  A    between atoms: C10_14  and  O1_15 
REMARK    8  A    between atoms: C18_23  and  N5_24 
ROOT
HETATM    1  C5  UNL     1      26.028   5.000  49.609  1.00  0.00     0.089 A 
HETATM    2  C6  UNL     1      27.154   5.838  48.575  1.00  0.00     0.078 A 
HETATM    3  C7  UNL     1      26.600   5.395  48.942  1.00  0.00     0.141 A 
HETATM    4  N3  UNL     1      28.010   4.657  48.856  1.00  0.00    -0.247 NA
HETATM    5  C8  UNL     1      28.886   5.446  48.239  1.00  0.00     0.111 A 
HETATM    6  C17 UNL     1      28.175   6.481  47.978  1.00  0.00     0.081 A 
HETATM    7  C18 UNL     1      27.151   7.460  47.822  1.00  0.00     0.107 A 
HETATM    8  N5  UNL     1      26.153   6.965  48.340  1.00  0.00    -0.263 NA
ENDROOT
BRANCH   5   9
HETATM    9  N4  UNL     1      30.221   5.783  47.691  1.00  0.00    -0.367 N 
HETATM   10  H11 UNL     1      30.406   6.524  46.948  1.00  0.00     0.161 HD
BRANCH   9  11
HETATM   11  C9  UNL     1      31.357   5.029  48.207  1.00  0.00     0.139 C 
BRANCH  11  12
HETATM   12  C10 UNL     1      31.967   5.872  49.330  1.00  0.00     0.194 C 
BRANCH  12  13
HETATM   13  O1  UNL     1      31.467   5.472  50.559  1.00  0.00    -0.399 OA
HETATM   14  H15 UNL     1      30.482   5.406  50.575  1.00  0.00     0.209 HD
ENDBRANCH  12  13
ENDBRANCH  11  12
BRANCH  11  15
HETATM   15  C11 UNL     1      32.371   4.955  47.136  1.00  0.00    -0.034 A 
HETATM   16  C12 UNL     1      33.236   3.883  47.129  1.00  0.00     0.009 A 
HETATM   17  C13 UNL     1      34.212   3.727  46.169  1.00  0.00     0.001 A 
HETATM   18  C14 UNL     1      34.289   4.710  45.200  1.00  0.00     0.000 A 
HETATM   19  C15 UNL     1      33.442   5.791  45.179  1.00  0.00     0.001 A 
HETATM   20  C16 UNL     1      32.458   5.926  46.163  1.00  0.00     0.009 A 
ENDBRANCH  11  15
ENDBRANCH   9  11
ENDBRANCH   5   9
BRANCH   1  21
HETATM   21  C4  UNL     1      24.990   3.923  49.158  1.00  0.00     0.283 C 
BRANCH  21  22
HETATM   22  N2  UNL     1      24.831   2.981  50.161  1.00  0.00     0.092 N 
HETATM   23  C3  UNL     1      23.557   3.136  50.822  1.00  0.00     0.302 C 
HETATM   24  C2  UNL     1      23.187   1.857  51.570  1.00  0.00     0.302 C 
HETATM   25  N1  UNL     1      24.400   1.180  52.015  1.00  0.00     0.087 N 
HETATM   26  C1  UNL     1      24.200   0.307  53.133  1.00  0.00     0.310 C 
HETATM   27  C20 UNL     1      25.423   2.149  52.371  1.00  0.00     0.302 C 
HETATM   28  C19 UNL     1      25.912   2.777  51.072  1.00  0.00     0.302 C 
ENDBRANCH  21  22
ENDBRANCH   1  21
TORSDOF 8
ENDMDL
MODEL 9
REMARK VINA RESULT:      -7.4      4.119      8.212
REMARK  8 active torsions:
REMARK  status: ('A' for Active; 'I' for Inactive)
REMARK    1  A    between atoms: N2_5  and  C4_6 
REMARK    2  A    between atoms: C4_6  and  C5_7 
REMARK    3  A    between atoms: C8_11  and  N4_12 
REMARK    4  A    between atoms: N4_12  and  C9_13 
REMARK    5  A    between atoms: C9_13  and  C10_14 
REMARK    6  A    between atoms: C9_13  and  C11_16 
REMARK    7  A    between atoms: C10_14  and  O1_15 
REMARK    8  A    between atoms: C18_23  and  N5_24 
ROOT
HETATM    1  C5  UNL     1      26.513   6.592  48.260  1.00  0.00     0.089 A 
HETATM    2  C6  UNL     1      25.210   5.613  48.878  1.00  0.00     0.078 A 
HETATM    3  C7  UNL     1      25.789   6.134  48.698  1.00  0.00     0.141 A 
HETATM    4  N3  UNL     1      26.308   4.940  49.617  1.00  0.00    -0.247 NA
HETATM    5  C8  UNL     1      25.302   4.109  49.875  1.00  0.00     0.111 A 
HETATM    6  C17 UNL     1      24.330   4.666  49.250  1.00  0.00     0.081 A 
HETATM    7  C18 UNL     1      23.468   5.506  48.486  1.00  0.00     0.107 A 
HETATM    8  N5  UNL     1      24.183   6.424  48.093  1.00  0.00    -0.263 NA
ENDROOT
BRANCH   5   9
HETATM    9  N4  UNL     1      24.692   2.904  50.484  1.00  0.00    -0.367 N 
HETATM   10  H11 UNL     1      23.921   2.319  50.037  1.00  0.00     0.161 HD
BRANCH   9  11
HETATM   11  C9  UNL     1      25.182   2.507  51.797  1.00  0.00     0.139 C 
BRANCH  11  12
HETATM   12  C10 UNL     1      26.571   1.901  51.581  1.00  0.00     0.194 C 
BRANCH  12  13
HETATM   13  O1  UNL     1      27.554   2.830  51.886  1.00  0.00    -0.399 OA
HETATM   14  H15 UNL     1      27.524   3.631  51.311  1.00  0.00     0.209 HD
ENDBRANCH  12  13
ENDBRANCH  11  12
BRANCH  11  15
HETATM   15  C11 UNL     1      24.317   1.415  52.289  1.00  0.00    -0.034 A 
HETATM   16  C12 UNL     1      24.832   0.545  53.225  1.00  0.00     0.009 A 
HETATM   17  C13 UNL     1      24.101  -0.501  53.743  1.00  0.00     0.001 A 
HETATM   18  C14 UNL     1      22.808  -0.644  53.274  1.00  0.00     0.000 A 
HETATM   19  C15 UNL     1      22.265   0.207  52.342  1.00  0.00     0.001 A 
HETATM   20  C16 UNL     1      23.027   1.261  51.832  1.00  0.00     0.009 A 
ENDBRANCH  11  15
ENDBRANCH   9  11
ENDBRANCH   5   9
BRANCH   1  21
HETATM   21  C4  UNL     1      27.090   7.883  48.926  1.00  0.00     0.283 C 
BRANCH  21  22
HETATM   22  N2  UNL     1      28.475   7.843  48.896  1.00  0.00     0.092 N 
HETATM   23  C3  UNL     1      29.033   9.174  48.881  1.00  0.00     0.302 C 
HETATM   24  C2  UNL     1      30.496   9.142  49.318  1.00  0.00     0.302 C 
HETATM   25  N1  UNL     1      31.095   7.868  48.935  1.00  0.00     0.087 N 
HETATM   26  C1  UNL     1      32.520   7.913  48.802  1.00  0.00     0.310 C 
HETATM   27  C20 UNL     1      30.536   7.398  47.678  1.00  0.00     0.302 C 
HETATM   28  C19 UNL     1      29.104   6.961  47.964  1.00  0.00     0.302 C 
ENDBRANCH  21  22
ENDBRANCH   1  21
TORSDOF 8
ENDMDL
