MODEL 1
REMARK VINA RESULT:      -7.9      0.000      0.000
REMARK  3 active torsions:
REMARK  status: ('A' for Active; 'I' for Inactive)
REMARK    1  A    between atoms: P1_1  and  C1_2 
REMARK    2  A    between atoms: C9_13  and  N3_14 
REMARK    3  A    between atoms: N3_14  and  C10_15 
ROOT
HETATM    1  C1  UNL     1      21.175   2.950  50.619  1.00  0.00     0.007 A 
HETATM    2  C2  UNL     1      21.710   3.818  49.726  1.00  0.00     0.018 A 
HETATM    3  C3  UNL     1      21.835   2.650  48.948  1.00  0.00     0.001 A 
HETATM    4  C4  UNL     1      21.930   1.485  48.237  1.00  0.00     0.031 A 
HETATM    5  C5  UNL     1      21.370   0.756  49.242  1.00  0.00    -0.034 A 
HETATM    6  C6  UNL     1      21.446   2.078  49.600  1.00  0.00     0.005 A 
HETATM    7  O1  UNL     1      20.935   1.458  50.814  1.00  0.00     0.000 OA
HETATM    8  C7  UNL     1      22.120   0.990  51.585  1.00  0.00     0.119 A 
HETATM    9  N1  UNL     1      22.043   0.022  52.495  1.00  0.00    -0.237 NA
HETATM   10  C8  UNL     1      23.141  -0.368  53.156  1.00  0.00     0.236 A 
HETATM   11  N2  UNL     1      24.329   0.192  52.928  1.00  0.00    -0.222 NA
HETATM   12  C9  UNL     1      24.433   1.166  52.021  1.00  0.00     0.158 A 
HETATM   13  C16 UNL     1      23.364   1.629  51.299  1.00  0.00     0.106 A 
HETATM   14  N4  UNL     1      23.710   2.705  50.396  1.00  0.00    -0.384 N 
HETATM   15  C17 UNL     1      23.354   2.920  48.919  1.00  0.00     0.132 C 
HETATM   16  H12 UNL     1      24.282   3.487  50.779  1.00  0.00     0.159 HD
ENDROOT
BRANCH  12  17
HETATM   17  N3  UNL     1      25.745   1.663  51.871  1.00  0.00    -0.339 N 
HETATM   18  H7  UNL     1      25.885   2.397  51.171  1.00  0.00     0.167 HD
BRANCH  17  19
HETATM   19  C10 UNL     1      26.923   1.290  52.547  1.00  0.00     0.035 A 
HETATM   20  C11 UNL     1      27.668   2.246  53.230  1.00  0.00     0.029 A 
HETATM   21  C12 UNL     1      28.830   2.007  53.914  1.00  0.00     0.004 A 
HETATM   22  C13 UNL     1      29.309   0.723  53.935  1.00  0.00     0.019 A 
HETATM   23  C14 UNL     1      28.639  -0.276  53.290  1.00  0.00     0.013 A 
HETATM   24 BR1  UNL     1      29.338  -2.048  53.345  1.00  0.00    -0.051 Br
HETATM   25  C15 UNL     1      27.479   0.036  52.623  1.00  0.00     0.048 A 
ENDBRANCH  17  19
ENDBRANCH  12  17
BRANCH   1  26
HETATM   26  P1  UNL     1      20.757   3.955  52.042  1.00  0.00    -0.129 P 
HETATM   27  H1  UNL     1      19.608   3.460  52.778  1.00  0.00     0.055 HD
HETATM   28  H2  UNL     1      20.642   5.368  51.737  1.00  0.00     0.055 HD
ENDBRANCH   1  26
TORSDOF 3
ENDMDL
MODEL 2
REMARK VINA RESULT:      -7.8      3.742      6.571
REMARK  3 active torsions:
REMARK  status: ('A' for Active; 'I' for Inactive)
REMARK    1  A    between atoms: P1_1  and  C1_2 
REMARK    2  A    between atoms: C9_13  and  N3_14 
REMARK    3  A    between atoms: N3_14  and  C10_15 
ROOT
HETATM    1  C1  UNL     1      27.000  -0.564  53.001  1.00  0.00     0.007 A 
HETATM    2  C2  UNL     1      27.125   0.165  51.865  1.00  0.00     0.018 A 
HETATM    3  C3  UNL     1      26.901   1.237  52.751  1.00  0.00     0.001 A 
HETATM    4  C4  UNL     1      26.682   2.240  53.656  1.00  0.00     0.031 A 
HETATM    5  C5  UNL     1      26.586   1.362  54.694  1.00  0.00    -0.034 A 
HETATM    6  C6  UNL     1      26.829   0.689  53.523  1.00  0.00     0.005 A 
HETATM    7  O1  UNL     1      26.653  -0.399  54.476  1.00  0.00     0.000 OA
HETATM    8  C7  UNL     1      25.191  -0.672  54.545  1.00  0.00     0.119 A 
HETATM    9  N1  UNL     1      24.625  -1.269  55.591  1.00  0.00    -0.237 NA
HETATM   10  C8  UNL     1      23.304  -1.485  55.608  1.00  0.00     0.236 A 
HETATM   11  N2  UNL     1      22.523  -1.116  54.593  1.00  0.00    -0.222 NA
HETATM   12  C9  UNL     1      23.066  -0.516  53.530  1.00  0.00     0.158 A 
HETATM   13  C16 UNL     1      24.408  -0.256  53.427  1.00  0.00     0.106 A 
HETATM   14  N4  UNL     1      24.769   0.375  52.177  1.00  0.00    -0.384 N 
HETATM   15  C17 UNL     1      25.665   1.589  51.896  1.00  0.00     0.132 C 
HETATM   16  H12 UNL     1      24.391  -0.043  51.301  1.00  0.00     0.159 HD
ENDROOT
BRANCH  12  17
HETATM   17  N3  UNL     1      22.128  -0.170  52.535  1.00  0.00    -0.339 N 
HETATM   18  H7  UNL     1      21.905  -0.888  51.840  1.00  0.00     0.167 HD
BRANCH  17  19
HETATM   19  C10 UNL     1      21.442   1.044  52.338  1.00  0.00     0.035 A 
HETATM   20  C11 UNL     1      20.054   1.054  52.243  1.00  0.00     0.029 A 
HETATM   21  C12 UNL     1      19.280   2.166  52.045  1.00  0.00     0.004 A 
HETATM   22  C13 UNL     1      19.914   3.376  51.930  1.00  0.00     0.019 A 
HETATM   23  C14 UNL     1      21.273   3.455  52.012  1.00  0.00     0.013 A 
HETATM   24 BR1  UNL     1      22.115   5.157  51.848  1.00  0.00    -0.051 Br
HETATM   25  C15 UNL     1      21.987   2.299  52.211  1.00  0.00     0.048 A 
ENDBRANCH  17  19
ENDBRANCH  12  17
BRANCH   1  26
HETATM   26  P1  UNL     1      27.204  -2.265  52.479  1.00  0.00    -0.129 P 
HETATM   27  H1  UNL     1      27.432  -3.182  53.583  1.00  0.00     0.055 HD
HETATM   28  H2  UNL     1      28.182  -2.432  51.422  1.00  0.00     0.055 HD
ENDBRANCH   1  26
TORSDOF 3
ENDMDL
MODEL 3
REMARK VINA RESULT:      -7.7      2.204      3.662
REMARK  3 active torsions:
REMARK  status: ('A' for Active; 'I' for Inactive)
REMARK    1  A    between atoms: P1_1  and  C1_2 
REMARK    2  A    between atoms: C9_13  and  N3_14 
REMARK    3  A    between atoms: N3_14  and  C10_15 
ROOT
HETATM    1  C1  UNL     1      22.117   3.627  49.539  1.00  0.00     0.007 A 
HETATM    2  C2  UNL     1      21.297   3.317  50.572  1.00  0.00     0.018 A 
HETATM    3  C3  UNL     1      21.639   4.618  50.990  1.00  0.00     0.001 A 
HETATM    4  C4  UNL     1      22.003   5.887  51.347  1.00  0.00     0.031 A 
HETATM    5  C5  UNL     1      22.789   6.035  50.244  1.00  0.00    -0.034 A 
HETATM    6  C6  UNL     1      22.199   4.797  50.244  1.00  0.00     0.005 A 
HETATM    7  O1  UNL     1      23.064   4.727  49.075  1.00  0.00     0.000 OA
HETATM    8  C7  UNL     1      24.403   4.292  49.562  1.00  0.00     0.119 A 
HETATM    9  N1  UNL     1      25.522   4.534  48.883  1.00  0.00    -0.237 NA
HETATM   10  C8  UNL     1      26.702   4.128  49.368  1.00  0.00     0.236 A 
HETATM   11  N2  UNL     1      26.795   3.478  50.528  1.00  0.00    -0.222 NA
HETATM   12  C9  UNL     1      25.687   3.222  51.228  1.00  0.00     0.158 A 
HETATM   13  C16 UNL     1      24.438   3.599  50.808  1.00  0.00     0.106 A 
HETATM   14  N4  UNL     1      23.387   3.191  51.715  1.00  0.00    -0.384 N 
HETATM   15  C17 UNL     1      22.196   3.978  52.280  1.00  0.00     0.132 C 
HETATM   16  H12 UNL     1      23.398   2.204  52.050  1.00  0.00     0.159 HD
ENDROOT
BRANCH  12  17
HETATM   17  N3  UNL     1      25.927   2.539  52.439  1.00  0.00    -0.339 N 
HETATM   18  H7  UNL     1      25.707   3.040  53.304  1.00  0.00     0.167 HD
BRANCH  17  19
HETATM   19  C10 UNL     1      26.444   1.245  52.647  1.00  0.00     0.035 A 
HETATM   20  C11 UNL     1      25.614   0.135  52.530  1.00  0.00     0.029 A 
HETATM   21  C12 UNL     1      25.999  -1.166  52.716  1.00  0.00     0.004 A 
HETATM   22  C13 UNL     1      27.307  -1.407  53.044  1.00  0.00     0.019 A 
HETATM   23  C14 UNL     1      28.188  -0.374  53.179  1.00  0.00     0.013 A 
HETATM   24 BR1  UNL     1      29.999  -0.753  53.637  1.00  0.00    -0.051 Br
HETATM   25  C15 UNL     1      27.734   0.906  52.979  1.00  0.00     0.048 A 
ENDBRANCH  17  19
ENDBRANCH  12  17
BRANCH   1  26
HETATM   26  P1  UNL     1      22.118   2.168  48.500  1.00  0.00    -0.129 P 
HETATM   27  H1  UNL     1      20.863   1.438  48.532  1.00  0.00     0.055 HD
HETATM   28  H2  UNL     1      23.258   1.301  48.723  1.00  0.00     0.055 HD
ENDBRANCH   1  26
TORSDOF 3
ENDMDL
MODEL 4
REMARK VINA RESULT:      -7.6      3.701      4.553
REMARK  3 active torsions:
REMARK  status: ('A' for Active; 'I' for Inactive)
REMARK    1  A    between atoms: P1_1  and  C1_2 
REMARK    2  A    between atoms: C9_13  and  N3_14 
REMARK    3  A    between atoms: N3_14  and  C10_15 
ROOT
HETATM    1  C1  UNL     1      21.162   3.416  50.167  1.00  0.00     0.007 A 
HETATM    2  C2  UNL     1      21.047   3.594  48.828  1.00  0.00     0.018 A 
HETATM    3  C3  UNL     1      21.258   2.201  48.814  1.00  0.00     0.001 A 
HETATM    4  C4  UNL     1      21.464   0.849  48.860  1.00  0.00     0.031 A 
HETATM    5  C5  UNL     1      21.552   0.849  50.220  1.00  0.00    -0.034 A 
HETATM    6  C6  UNL     1      21.324   2.121  49.759  1.00  0.00     0.005 A 
HETATM    7  O1  UNL     1      21.493   2.336  51.189  1.00  0.00     0.000 OA
HETATM    8  C7  UNL     1      22.955   2.486  51.427  1.00  0.00     0.119 A 
HETATM    9  N1  UNL     1      23.511   2.262  52.615  1.00  0.00    -0.237 NA
HETATM   10  C8  UNL     1      24.833   2.405  52.775  1.00  0.00     0.236 A 
HETATM   11  N2  UNL     1      25.624   2.770  51.766  1.00  0.00    -0.222 NA
HETATM   12  C9  UNL     1      25.090   3.002  50.564  1.00  0.00     0.158 A 
HETATM   13  C16 UNL     1      23.749   2.882  50.309  1.00  0.00     0.106 A 
HETATM   14  N4  UNL     1      23.398   3.210  48.945  1.00  0.00    -0.384 N 
HETATM   15  C17 UNL     1      22.501   2.472  47.941  1.00  0.00     0.132 C 
HETATM   16  H12 UNL     1      23.787   4.091  48.547  1.00  0.00     0.159 HD
ENDROOT
BRANCH  12  17
HETATM   17  N3  UNL     1      26.037   3.371  49.585  1.00  0.00    -0.339 N 
HETATM   18  H7  UNL     1      26.445   2.615  49.029  1.00  0.00     0.167 HD
BRANCH  17  19
HETATM   19  C10 UNL     1      26.527   4.650  49.254  1.00  0.00     0.035 A 
HETATM   20  C11 UNL     1      27.747   4.782  48.600  1.00  0.00     0.029 A 
HETATM   21  C12 UNL     1      28.327   5.967  48.235  1.00  0.00     0.004 A 
HETATM   22  C13 UNL     1      27.660   7.126  48.532  1.00  0.00     0.019 A 
HETATM   23  C14 UNL     1      26.456   7.086  49.173  1.00  0.00     0.013 A 
HETATM   24 BR1  UNL     1      25.561   8.721  49.567  1.00  0.00    -0.051 Br
HETATM   25  C15 UNL     1      25.933   5.862  49.510  1.00  0.00     0.048 A 
ENDBRANCH  17  19
ENDBRANCH  12  17
BRANCH   1  26
HETATM   26  P1  UNL     1      20.969   5.055  50.865  1.00  0.00    -0.129 P 
HETATM   27  H1  UNL     1      21.931   6.015  50.352  1.00  0.00     0.055 HD
HETATM   28  H2  UNL     1      20.910   5.063  52.313  1.00  0.00     0.055 HD
ENDBRANCH   1  26
TORSDOF 3
ENDMDL
MODEL 5
REMARK VINA RESULT:      -7.5      3.577      4.888
REMARK  3 active torsions:
REMARK  status: ('A' for Active; 'I' for Inactive)
REMARK    1  A    between atoms: P1_1  and  C1_2 
REMARK    2  A    between atoms: C9_13  and  N3_14 
REMARK    3  A    between atoms: N3_14  and  C10_15 
ROOT
HETATM    1  C1  UNL     1      23.033   7.511  49.617  1.00  0.00     0.007 A 
HETATM    2  C2  UNL     1      23.857   8.214  50.432  1.00  0.00     0.018 A 
HETATM    3  C3  UNL     1      24.772   7.999  49.383  1.00  0.00     0.001 A 
HETATM    4  C4  UNL     1      25.617   7.763  48.334  1.00  0.00     0.031 A 
HETATM    5  C5  UNL     1      24.663   7.080  47.641  1.00  0.00    -0.034 A 
HETATM    6  C6  UNL     1      24.158   7.519  48.839  1.00  0.00     0.005 A 
HETATM    7  O1  UNL     1      23.052   6.736  48.305  1.00  0.00     0.000 OA
HETATM    8  C7  UNL     1      23.293   5.324  48.713  1.00  0.00     0.119 A 
HETATM    9  N1  UNL     1      22.759   4.293  48.064  1.00  0.00    -0.237 NA
HETATM   10  C8  UNL     1      23.012   3.042  48.466  1.00  0.00     0.236 A 
HETATM   11  N2  UNL     1      23.797   2.791  49.514  1.00  0.00    -0.222 NA
HETATM   12  C9  UNL     1      24.345   3.808  50.184  1.00  0.00     0.158 A 
HETATM   13  C16 UNL     1      24.139   5.120  49.843  1.00  0.00     0.106 A 
HETATM   14  N4  UNL     1      24.811   6.047  50.727  1.00  0.00    -0.384 N 
HETATM   15  C17 UNL     1      25.670   7.280  50.411  1.00  0.00     0.132 C 
HETATM   16  H12 UNL     1      24.706   5.896  51.752  1.00  0.00     0.159 HD
ENDROOT
BRANCH  12  17
HETATM   17  N3  UNL     1      25.159   3.403  51.262  1.00  0.00    -0.339 N 
HETATM   18  H7  UNL     1      25.736   4.125  51.702  1.00  0.00     0.167 HD
BRANCH  17  19
HETATM   19  C10 UNL     1      25.311   2.125  51.836  1.00  0.00     0.035 A 
HETATM   20  C11 UNL     1      26.498   1.420  51.665  1.00  0.00     0.029 A 
HETATM   21  C12 UNL     1      26.758   0.173  52.166  1.00  0.00     0.004 A 
HETATM   22  C13 UNL     1      25.777  -0.443  52.897  1.00  0.00     0.019 A 
HETATM   23  C14 UNL     1      24.581   0.180  53.113  1.00  0.00     0.013 A 
HETATM   24 BR1  UNL     1      23.243  -0.711  54.136  1.00  0.00    -0.051 Br
HETATM   25  C15 UNL     1      24.388   1.431  52.580  1.00  0.00     0.048 A 
ENDBRANCH  17  19
ENDBRANCH  12  17
BRANCH   1  26
HETATM   26  P1  UNL     1      21.482   7.412  50.508  1.00  0.00    -0.129 P 
HETATM   27  H1  UNL     1      20.694   8.629  50.428  1.00  0.00     0.055 HD
HETATM   28  H2  UNL     1      21.629   6.946  51.873  1.00  0.00     0.055 HD
ENDBRANCH   1  26
TORSDOF 3
ENDMDL
MODEL 6
REMARK VINA RESULT:      -7.4      1.981      3.085
REMARK  3 active torsions:
REMARK  status: ('A' for Active; 'I' for Inactive)
REMARK    1  A    between atoms: P1_1  and  C1_2 
REMARK    2  A    between atoms: C9_13  and  N3_14 
REMARK    3  A    between atoms: N3_14  and  C10_15 
ROOT
HETATM    1  C1  UNL     1      20.218   2.647  49.783  1.00  0.00     0.007 A 
HETATM    2  C2  UNL     1      20.223   1.358  49.364  1.00  0.00     0.018 A 
HETATM    3  C3  UNL     1      20.006   1.109  50.734  1.00  0.00     0.001 A 
HETATM    4  C4  UNL     1      19.795   0.925  52.073  1.00  0.00     0.031 A 
HETATM    5  C5  UNL     1      19.817   2.264  52.321  1.00  0.00    -0.034 A 
HETATM    6  C6  UNL     1      20.002   2.026  50.982  1.00  0.00     0.005 A 
HETATM    7  O1  UNL     1      20.163   3.471  51.064  1.00  0.00     0.000 OA
HETATM    8  C7  UNL     1      21.590   3.722  51.405  1.00  0.00     0.119 A 
HETATM    9  N1  UNL     1      21.999   4.851  51.978  1.00  0.00    -0.237 NA
HETATM   10  C8  UNL     1      23.294   5.025  52.272  1.00  0.00     0.236 A 
HETATM   11  N2  UNL     1      24.202   4.088  52.004  1.00  0.00    -0.222 NA
HETATM   12  C9  UNL     1      23.819   2.945  51.429  1.00  0.00     0.158 A 
HETATM   13  C16 UNL     1      22.516   2.682  51.093  1.00  0.00     0.106 A 
HETATM   14  N4  UNL     1      22.343   1.395  50.457  1.00  0.00    -0.384 N 
HETATM   15  C17 UNL     1      21.312   0.286  50.715  1.00  0.00     0.132 C 
HETATM   16  H12 UNL     1      22.996   1.149  49.684  1.00  0.00     0.159 HD
ENDROOT
BRANCH  12  17
HETATM   17  N3  UNL     1      24.876   2.037  51.212  1.00  0.00    -0.339 N 
HETATM   18  H7  UNL     1      25.229   1.959  50.254  1.00  0.00     0.167 HD
BRANCH  17  19
HETATM   19  C10 UNL     1      25.532   1.194  52.130  1.00  0.00     0.035 A 
HETATM   20  C11 UNL     1      24.799   0.300  52.903  1.00  0.00     0.029 A 
HETATM   21  C12 UNL     1      25.322  -0.560  53.831  1.00  0.00     0.004 A 
HETATM   22  C13 UNL     1      26.679  -0.549  54.024  1.00  0.00     0.019 A 
HETATM   23  C14 UNL     1      27.472   0.299  53.307  1.00  0.00     0.013 A 
HETATM   24 BR1  UNL     1      29.354   0.283  53.604  1.00  0.00    -0.051 Br
HETATM   25  C15 UNL     1      26.880   1.135  52.392  1.00  0.00     0.048 A 
ENDBRANCH  17  19
ENDBRANCH  12  17
BRANCH   1  26
HETATM   26  P1  UNL     1      20.495   3.612  48.299  1.00  0.00    -0.129 P 
HETATM   27  H1  UNL     1      21.899   3.737  47.948  1.00  0.00     0.055 HD
HETATM   28  H2  UNL     1      19.820   4.895  48.310  1.00  0.00     0.055 HD
ENDBRANCH   1  26
TORSDOF 3
ENDMDL
MODEL 7
REMARK VINA RESULT:      -7.4      2.923      4.367
REMARK  3 active torsions:
REMARK  status: ('A' for Active; 'I' for Inactive)
REMARK    1  A    between atoms: P1_1  and  C1_2 
REMARK    2  A    between atoms: C9_13  and  N3_14 
REMARK    3  A    between atoms: N3_14  and  C10_15 
ROOT
HETATM    1  C1  UNL     1      22.491   5.416  49.819  1.00  0.00     0.007 A 
HETATM    2  C2  UNL     1      22.806   5.943  51.028  1.00  0.00     0.018 A 
HETATM    3  C3  UNL     1      24.002   5.228  50.818  1.00  0.00     0.001 A 
HETATM    4  C4  UNL     1      25.142   4.517  50.561  1.00  0.00     0.031 A 
HETATM    5  C5  UNL     1      24.669   4.077  49.361  1.00  0.00    -0.034 A 
HETATM    6  C6  UNL     1      23.743   4.888  49.969  1.00  0.00     0.005 A 
HETATM    7  O1  UNL     1      23.030   4.439  48.782  1.00  0.00     0.000 OA
HETATM    8  C7  UNL     1      22.394   3.139  49.132  1.00  0.00     0.119 A 
HETATM    9  N1  UNL     1      22.044   2.245  48.211  1.00  0.00    -0.237 NA
HETATM   10  C8  UNL     1      21.482   1.086  48.579  1.00  0.00     0.236 A 
HETATM   11  N2  UNL     1      21.258   0.795  49.861  1.00  0.00    -0.222 NA
HETATM   12  C9  UNL     1      21.599   1.676  50.805  1.00  0.00     0.158 A 
HETATM   13  C16 UNL     1      22.178   2.885  50.520  1.00  0.00     0.106 A 
HETATM   14  N4  UNL     1      22.434   3.683  51.698  1.00  0.00    -0.384 N 
HETATM   15  C17 UNL     1      23.688   4.463  52.121  1.00  0.00     0.132 C 
HETATM   16  H12 UNL     1      21.661   3.781  52.390  1.00  0.00     0.159 HD
ENDROOT
BRANCH  12  17
HETATM   17  N3  UNL     1      21.317   1.238  52.116  1.00  0.00    -0.339 N 
HETATM   18  H7  UNL     1      20.410   1.507  52.508  1.00  0.00     0.167 HD
BRANCH  17  19
HETATM   19  C10 UNL     1      22.115   0.479  52.995  1.00  0.00     0.035 A 
HETATM   20  C11 UNL     1      21.521  -0.262  54.011  1.00  0.00     0.029 A 
HETATM   21  C12 UNL     1      22.189  -1.029  54.928  1.00  0.00     0.004 A 
HETATM   22  C13 UNL     1      23.556  -1.080  54.847  1.00  0.00     0.019 A 
HETATM   23  C14 UNL     1      24.218  -0.382  53.879  1.00  0.00     0.013 A 
HETATM   24 BR1  UNL     1      26.119  -0.479  53.802  1.00  0.00    -0.051 Br
HETATM   25  C15 UNL     1      23.484   0.368  52.993  1.00  0.00     0.048 A 
ENDBRANCH  17  19
ENDBRANCH  12  17
BRANCH   1  26
HETATM   26  P1  UNL     1      20.843   6.027  49.469  1.00  0.00    -0.129 P 
HETATM   27  H1  UNL     1      19.851   5.590  50.435  1.00  0.00     0.055 HD
HETATM   28  H2  UNL     1      20.416   5.789  48.104  1.00  0.00     0.055 HD
ENDBRANCH   1  26
TORSDOF 3
ENDMDL
MODEL 8
REMARK VINA RESULT:      -7.3      8.617     10.347
REMARK  3 active torsions:
REMARK  status: ('A' for Active; 'I' for Inactive)
REMARK    1  A    between atoms: P1_1  and  C1_2 
REMARK    2  A    between atoms: C9_13  and  N3_14 
REMARK    3  A    between atoms: N3_14  and  C10_15 
ROOT
HETATM    1  C1  UNL     1      31.323   9.829  46.844  1.00  0.00     0.007 A 
HETATM    2  C2  UNL     1      30.228  10.341  46.230  1.00  0.00     0.018 A 
HETATM    3  C3  UNL     1      29.865  10.656  47.554  1.00  0.00     0.001 A 
HETATM    4  C4  UNL     1      29.563  10.940  48.858  1.00  0.00     0.031 A 
HETATM    5  C5  UNL     1      30.721  10.381  49.309  1.00  0.00    -0.034 A 
HETATM    6  C6  UNL     1      30.652  10.292  47.942  1.00  0.00     0.005 A 
HETATM    7  O1  UNL     1      31.876   9.562  48.238  1.00  0.00     0.000 OA
HETATM    8  C7  UNL     1      31.475   8.159  48.534  1.00  0.00     0.119 A 
HETATM    9  N1  UNL     1      32.235   7.335  49.251  1.00  0.00    -0.237 NA
HETATM   10  C8  UNL     1      31.825   6.084  49.495  1.00  0.00     0.236 A 
HETATM   11  N2  UNL     1      30.659   5.629  49.036  1.00  0.00    -0.222 NA
HETATM   12  C9  UNL     1      29.878   6.435  48.313  1.00  0.00     0.158 A 
HETATM   13  C16 UNL     1      30.218   7.729  48.013  1.00  0.00     0.106 A 
HETATM   14  N4  UNL     1      29.231   8.400  47.196  1.00  0.00    -0.384 N 
HETATM   15  C17 UNL     1      28.603   9.794  47.336  1.00  0.00     0.132 C 
HETATM   16  H12 UNL     1      28.875   7.893  46.358  1.00  0.00     0.159 HD
ENDROOT
BRANCH  12  17
HETATM   17  N3  UNL     1      28.671   5.833  47.898  1.00  0.00    -0.339 N 
HETATM   18  H7  UNL     1      28.612   5.543  46.918  1.00  0.00     0.167 HD
BRANCH  17  19
HETATM   19  C10 UNL     1      27.504   5.570  48.641  1.00  0.00     0.035 A 
HETATM   20  C11 UNL     1      27.177   4.264  48.989  1.00  0.00     0.029 A 
HETATM   21  C12 UNL     1      26.069   3.885  49.699  1.00  0.00     0.004 A 
HETATM   22  C13 UNL     1      25.202   4.865  50.106  1.00  0.00     0.019 A 
HETATM   23  C14 UNL     1      25.447   6.174  49.806  1.00  0.00     0.013 A 
HETATM   24 BR1  UNL     1      24.217   7.506  50.390  1.00  0.00    -0.051 Br
HETATM   25  C15 UNL     1      26.578   6.482  49.090  1.00  0.00     0.048 A 
ENDBRANCH  17  19
ENDBRANCH  12  17
BRANCH   1  26
HETATM   26  P1  UNL     1      32.326   9.168  45.514  1.00  0.00    -0.129 P 
HETATM   27  H1  UNL     1      33.727   9.535  45.615  1.00  0.00     0.055 HD
HETATM   28  H2  UNL     1      31.786   9.435  44.195  1.00  0.00     0.055 HD
ENDBRANCH   1  26
TORSDOF 3
ENDMDL
MODEL 9
REMARK VINA RESULT:      -7.2      2.723      4.557
REMARK  3 active torsions:
REMARK  status: ('A' for Active; 'I' for Inactive)
REMARK    1  A    between atoms: P1_1  and  C1_2 
REMARK    2  A    between atoms: C9_13  and  N3_14 
REMARK    3  A    between atoms: N3_14  and  C10_15 
ROOT
HETATM    1  C1  UNL     1      22.578   6.570  49.401  1.00  0.00     0.007 A 
HETATM    2  C2  UNL     1      22.871   7.134  50.598  1.00  0.00     0.018 A 
HETATM    3  C3  UNL     1      24.153   6.624  50.314  1.00  0.00     0.001 A 
HETATM    4  C4  UNL     1      25.377   6.108  49.986  1.00  0.00     0.031 A 
HETATM    5  C5  UNL     1      24.915   5.603  48.808  1.00  0.00    -0.034 A 
HETATM    6  C6  UNL     1      23.906   6.250  49.476  1.00  0.00     0.005 A 
HETATM    7  O1  UNL     1      23.209   5.698  48.323  1.00  0.00     0.000 OA
HETATM    8  C7  UNL     1      22.812   4.310  48.689  1.00  0.00     0.119 A 
HETATM    9  N1  UNL     1      22.560   3.376  47.776  1.00  0.00    -0.237 NA
HETATM   10  C8  UNL     1      22.213   2.140  48.158  1.00  0.00     0.236 A 
HETATM   11  N2  UNL     1      22.110   1.810  49.445  1.00  0.00    -0.222 NA
HETATM   12  C9  UNL     1      22.358   2.729  50.382  1.00  0.00     0.158 A 
HETATM   13  C16 UNL     1      22.717   4.018  50.083  1.00  0.00     0.106 A 
HETATM   14  N4  UNL     1      22.906   4.841  51.256  1.00  0.00    -0.384 N 
HETATM   15  C17 UNL     1      24.039   5.811  51.622  1.00  0.00     0.132 C 
HETATM   16  H12 UNL     1      22.167   4.810  51.990  1.00  0.00     0.159 HD
ENDROOT
BRANCH  12  17
HETATM   17  N3  UNL     1      22.223   2.246  51.700  1.00  0.00    -0.339 N 
HETATM   18  H7  UNL     1      21.460   2.636  52.260  1.00  0.00     0.167 HD
BRANCH  17  19
HETATM   19  C10 UNL     1      23.001   1.292  52.385  1.00  0.00     0.035 A 
HETATM   20  C11 UNL     1      22.407   0.443  53.312  1.00  0.00     0.029 A 
HETATM   21  C12 UNL     1      23.058  -0.514  54.043  1.00  0.00     0.004 A 
HETATM   22  C13 UNL     1      24.408  -0.657  53.854  1.00  0.00     0.019 A 
HETATM   23  C14 UNL     1      25.070   0.137  52.963  1.00  0.00     0.013 A 
HETATM   24 BR1  UNL     1      26.947  -0.095  52.730  1.00  0.00    -0.051 Br
HETATM   25  C15 UNL     1      24.353   1.077  52.264  1.00  0.00     0.048 A 
ENDBRANCH  17  19
ENDBRANCH  12  17
BRANCH   1  26
HETATM   26  P1  UNL     1      20.837   6.908  49.149  1.00  0.00    -0.129 P 
HETATM   27  H1  UNL     1      19.983   6.311  50.162  1.00  0.00     0.055 HD
HETATM   28  H2  UNL     1      20.379   6.611  47.806  1.00  0.00     0.055 HD
ENDBRANCH   1  26
TORSDOF 3
ENDMDL
