MODEL 1
REMARK VINA RESULT:      -7.9      0.000      0.000
REMARK  2 active torsions:
REMARK  status: ('A' for Active; 'I' for Inactive)
REMARK    1  A    between atoms: C5_7  and  N2_8 
REMARK    2  A    between atoms: N2_8  and  C6_9 
ROOT
HETATM    1  O1  UNL     1      25.332   0.196  54.131  1.00  0.00     0.000 OA
HETATM    2  C1  UNL     1      26.562   0.297  54.335  1.00  0.00     0.202 A 
HETATM    3  C2  UNL     1      27.609   1.290  54.116  1.00  0.00     0.045 C 
HETATM    4  C3  UNL     1      27.438   2.010  53.031  1.00  0.00     0.084 A 
HETATM    5  C4  UNL     1      27.225   1.424  51.916  1.00  0.00     0.116 A 
HETATM    6  N1  UNL     1      26.056   1.965  52.430  1.00  0.00    -0.247 NA
HETATM    7  C5  UNL     1      25.084   2.436  51.744  1.00  0.00     0.064 C 
HETATM    8  C12 UNL     1      23.954   2.883  52.662  1.00  0.00     0.097 C 
HETATM    9  C13 UNL     1      23.129   1.720  52.989  1.00  0.00    -0.020 C 
HETATM   10  C14 UNL     1      22.292   0.737  53.235  1.00  0.00    -0.006 C 
HETATM   11  C15 UNL     1      22.957  -0.423  53.894  1.00  0.00     0.011 C 
HETATM   12  C16 UNL     1      24.143  -0.823  54.323  1.00  0.00     0.287 A 
HETATM   13  N3  UNL     1      25.543  -0.711  54.567  1.00  0.00     0.132 N 
HETATM   14  H14 UNL     1      26.105  -1.514  55.036  1.00  0.00     0.324 HD
ENDROOT
BRANCH   7  15
HETATM   15  N2  UNL     1      25.082   2.466  50.329  1.00  0.00    -0.350 N 
HETATM   16  H3  UNL     1      24.802   1.544  49.864  1.00  0.00     0.167 HD
BRANCH  15  17
HETATM   17  C6  UNL     1      25.453   3.707  49.762  1.00  0.00     0.034 A 
HETATM   18  C7  UNL     1      24.489   4.724  49.567  1.00  0.00     0.029 A 
HETATM   19  C8  UNL     1      24.783   5.928  49.024  1.00  0.00     0.004 A 
HETATM   20  C9  UNL     1      26.051   6.236  48.627  1.00  0.00     0.019 A 
HETATM   21  C10 UNL     1      27.045   5.306  48.782  1.00  0.00     0.013 A 
HETATM   22 BR1  UNL     1      28.889   5.552  48.270  1.00  0.00    -0.051 Br
HETATM   23  C11 UNL     1      26.709   4.094  49.336  1.00  0.00     0.048 A 
ENDBRANCH  15  17
ENDBRANCH   7  15
TORSDOF 2
ENDMDL
MODEL 2
REMARK VINA RESULT:      -7.8      3.665      6.632
REMARK  2 active torsions:
REMARK  status: ('A' for Active; 'I' for Inactive)
REMARK    1  A    between atoms: C5_7  and  N2_8 
REMARK    2  A    between atoms: N2_8  and  C6_9 
ROOT
HETATM    1  O1  UNL     1      25.919   3.071  50.566  1.00  0.00     0.000 OA
HETATM    2  C1  UNL     1      26.709   2.363  51.226  1.00  0.00     0.202 A 
HETATM    3  C2  UNL     1      26.689   1.064  51.892  1.00  0.00     0.045 C 
HETATM    4  C3  UNL     1      25.524   0.753  52.412  1.00  0.00     0.084 A 
HETATM    5  C4  UNL     1      24.937   1.588  53.181  1.00  0.00     0.116 A 
HETATM    6  N1  UNL     1      24.354   1.567  51.922  1.00  0.00    -0.247 NA
HETATM    7  C5  UNL     1      23.115   1.763  51.667  1.00  0.00     0.064 C 
HETATM    8  C12 UNL     1      22.869   1.721  50.165  1.00  0.00     0.097 C 
HETATM    9  C13 UNL     1      23.170   3.038  49.604  1.00  0.00    -0.020 C 
HETATM   10  C14 UNL     1      23.323   4.224  49.058  1.00  0.00    -0.006 C 
HETATM   11  C15 UNL     1      24.696   4.768  49.261  1.00  0.00     0.011 C 
HETATM   12  C16 UNL     1      25.851   4.464  49.829  1.00  0.00     0.287 A 
HETATM   13  N3  UNL     1      26.761   3.658  50.574  1.00  0.00     0.132 N 
HETATM   14  H14 UNL     1      27.778   3.985  50.773  1.00  0.00     0.324 HD
ENDROOT
BRANCH   7  15
HETATM   15  N2  UNL     1      22.155   2.033  52.671  1.00  0.00    -0.350 N 
HETATM   16  H3  UNL     1      22.156   3.040  53.030  1.00  0.00     0.167 HD
BRANCH  15  17
HETATM   17  C6  UNL     1      21.352   0.927  53.036  1.00  0.00     0.034 A 
HETATM   18  C7  UNL     1      21.832  -0.036  53.954  1.00  0.00     0.029 A 
HETATM   19  C8  UNL     1      21.113  -1.117  54.336  1.00  0.00     0.004 A 
HETATM   20  C9  UNL     1      19.859  -1.342  53.849  1.00  0.00     0.019 A 
HETATM   21  C10 UNL     1      19.319  -0.455  52.955  1.00  0.00     0.013 A 
HETATM   22 BR1  UNL     1      17.573  -0.610  52.150  1.00  0.00    -0.051 Br
HETATM   23  C11 UNL     1      20.079   0.630  52.590  1.00  0.00     0.048 A 
ENDBRANCH  15  17
ENDBRANCH   7  15
TORSDOF 2
ENDMDL
MODEL 3
REMARK VINA RESULT:      -7.8      1.387      3.160
REMARK  2 active torsions:
REMARK  status: ('A' for Active; 'I' for Inactive)
REMARK    1  A    between atoms: C5_7  and  N2_8 
REMARK    2  A    between atoms: N2_8  and  C6_9 
ROOT
HETATM    1  O1  UNL     1      25.689  -0.020  54.029  1.00  0.00     0.000 OA
HETATM    2  C1  UNL     1      24.542  -0.517  54.007  1.00  0.00     0.202 A 
HETATM    3  C2  UNL     1      23.391  -0.524  53.110  1.00  0.00     0.045 C 
HETATM    4  C3  UNL     1      23.230   0.598  52.447  1.00  0.00     0.084 A 
HETATM    5  C4  UNL     1      23.214   1.706  53.082  1.00  0.00     0.116 A 
HETATM    6  N1  UNL     1      24.422   1.519  52.425  1.00  0.00    -0.247 NA
HETATM    7  C5  UNL     1      25.153   2.444  51.925  1.00  0.00     0.064 C 
HETATM    8  C12 UNL     1      26.429   1.853  51.340  1.00  0.00     0.097 C 
HETATM    9  C13 UNL     1      27.407   1.693  52.417  1.00  0.00    -0.020 C 
HETATM   10  C14 UNL     1      28.361   1.622  53.318  1.00  0.00    -0.006 C 
HETATM   11  C15 UNL     1      27.980   0.773  54.482  1.00  0.00     0.011 C 
HETATM   12  C16 UNL     1      26.973   0.048  54.942  1.00  0.00     0.287 A 
HETATM   13  N3  UNL     1      25.670  -0.530  54.921  1.00  0.00     0.132 N 
HETATM   14  H14 UNL     1      25.312  -1.155  55.734  1.00  0.00     0.324 HD
ENDROOT
BRANCH   7  15
HETATM   15  N2  UNL     1      24.808   3.815  51.981  1.00  0.00    -0.350 N 
HETATM   16  H3  UNL     1      24.816   4.237  52.964  1.00  0.00     0.167 HD
BRANCH  15  17
HETATM   17  C6  UNL     1      24.507   4.402  50.731  1.00  0.00     0.034 A 
HETATM   18  C7  UNL     1      23.382   3.974  49.988  1.00  0.00     0.029 A 
HETATM   19  C8  UNL     1      23.048   4.494  48.784  1.00  0.00     0.004 A 
HETATM   20  C9  UNL     1      23.792   5.481  48.208  1.00  0.00     0.019 A 
HETATM   21  C10 UNL     1      24.898   5.954  48.863  1.00  0.00     0.013 A 
HETATM   22 BR1  UNL     1      26.078   7.332  48.203  1.00  0.00    -0.051 Br
HETATM   23  C11 UNL     1      25.207   5.402  50.082  1.00  0.00     0.048 A 
ENDBRANCH  15  17
ENDBRANCH   7  15
TORSDOF 2
ENDMDL
MODEL 4
REMARK VINA RESULT:      -7.7      3.371      5.439
REMARK  2 active torsions:
REMARK  status: ('A' for Active; 'I' for Inactive)
REMARK    1  A    between atoms: C5_7  and  N2_8 
REMARK    2  A    between atoms: N2_8  and  C6_9 
ROOT
HETATM    1  O1  UNL     1      21.573   1.113  52.679  1.00  0.00     0.000 OA
HETATM    2  C1  UNL     1      21.596   1.878  51.691  1.00  0.00     0.202 A 
HETATM    3  C2  UNL     1      22.546   2.261  50.651  1.00  0.00     0.045 C 
HETATM    4  C3  UNL     1      23.796   2.275  51.054  1.00  0.00     0.084 A 
HETATM    5  C4  UNL     1      24.107   2.919  52.113  1.00  0.00     0.116 A 
HETATM    6  N1  UNL     1      24.072   1.552  52.347  1.00  0.00    -0.247 NA
HETATM    7  C5  UNL     1      24.813   0.915  53.174  1.00  0.00     0.064 C 
HETATM    8  C12 UNL     1      24.439  -0.562  53.193  1.00  0.00     0.097 C 
HETATM    9  C13 UNL     1      23.306  -0.746  54.101  1.00  0.00    -0.020 C 
HETATM   10  C14 UNL     1      22.361  -0.991  54.980  1.00  0.00    -0.006 C 
HETATM   11  C15 UNL     1      21.112  -0.227  54.697  1.00  0.00     0.011 C 
HETATM   12  C16 UNL     1      20.613   0.651  53.842  1.00  0.00     0.287 A 
HETATM   13  N3  UNL     1      20.629   1.518  52.711  1.00  0.00     0.132 N 
HETATM   14  H14 UNL     1      19.763   2.116  52.440  1.00  0.00     0.324 HD
ENDROOT
BRANCH   7  15
HETATM   15  N2  UNL     1      25.792   1.546  53.977  1.00  0.00    -0.350 N 
HETATM   16  H3  UNL     1      25.424   2.347  54.582  1.00  0.00     0.167 HD
BRANCH  15  17
HETATM   17  C6  UNL     1      27.097   1.017  53.846  1.00  0.00     0.034 A 
HETATM   18  C7  UNL     1      28.228   1.862  53.943  1.00  0.00     0.029 A 
HETATM   19  C8  UNL     1      29.499   1.414  53.820  1.00  0.00     0.004 A 
HETATM   20  C9  UNL     1      29.767   0.096  53.592  1.00  0.00     0.019 A 
HETATM   21  C10 UNL     1      28.727  -0.790  53.488  1.00  0.00     0.013 A 
HETATM   22 BR1  UNL     1      28.907  -2.682  53.156  1.00  0.00    -0.051 Br
HETATM   23  C11 UNL     1      27.451  -0.299  53.616  1.00  0.00     0.048 A 
ENDBRANCH  15  17
ENDBRANCH   7  15
TORSDOF 2
ENDMDL
MODEL 5
REMARK VINA RESULT:      -7.7      3.196      5.576
REMARK  2 active torsions:
REMARK  status: ('A' for Active; 'I' for Inactive)
REMARK    1  A    between atoms: C5_7  and  N2_8 
REMARK    2  A    between atoms: N2_8  and  C6_9 
ROOT
HETATM    1  O1  UNL     1      20.785   2.452  52.634  1.00  0.00     0.000 OA
HETATM    2  C1  UNL     1      20.399   1.397  53.183  1.00  0.00     0.202 A 
HETATM    3  C2  UNL     1      20.970   0.355  54.031  1.00  0.00     0.045 C 
HETATM    4  C3  UNL     1      22.234   0.101  53.778  1.00  0.00     0.084 A 
HETATM    5  C4  UNL     1      22.598  -0.139  52.577  1.00  0.00     0.116 A 
HETATM    6  N1  UNL     1      22.959   1.143  52.966  1.00  0.00    -0.247 NA
HETATM    7  C5  UNL     1      23.999   1.779  52.575  1.00  0.00     0.064 C 
HETATM    8  C12 UNL     1      24.020   3.180  53.173  1.00  0.00     0.097 C 
HETATM    9  C13 UNL     1      23.198   4.057  52.339  1.00  0.00    -0.020 C 
HETATM   10  C14 UNL     1      22.560   4.916  51.575  1.00  0.00    -0.006 C 
HETATM   11  C15 UNL     1      21.130   4.546  51.378  1.00  0.00     0.011 C 
HETATM   12  C16 UNL     1      20.251   3.614  51.710  1.00  0.00     0.287 A 
HETATM   13  N3  UNL     1      19.801   2.417  52.341  1.00  0.00     0.132 N 
HETATM   14  H14 UNL     1      18.775   2.073  52.241  1.00  0.00     0.324 HD
ENDROOT
BRANCH   7  15
HETATM   15  N2  UNL     1      24.941   1.235  51.670  1.00  0.00    -0.350 N 
HETATM   16  H3  UNL     1      24.660   1.304  50.640  1.00  0.00     0.167 HD
BRANCH  15  17
HETATM   17  C6  UNL     1      26.097   0.689  52.274  1.00  0.00     0.034 A 
HETATM   18  C7  UNL     1      26.312  -0.709  52.280  1.00  0.00     0.029 A 
HETATM   19  C8  UNL     1      27.395  -1.289  52.848  1.00  0.00     0.004 A 
HETATM   20  C9  UNL     1      28.361  -0.542  53.457  1.00  0.00     0.019 A 
HETATM   21  C10 UNL     1      28.229   0.821  53.493  1.00  0.00     0.013 A 
HETATM   22 BR1  UNL     1      29.480   2.037  54.317  1.00  0.00    -0.051 Br
HETATM   23  C11 UNL     1      27.116   1.374  52.908  1.00  0.00     0.048 A 
ENDBRANCH  15  17
ENDBRANCH   7  15
TORSDOF 2
ENDMDL
MODEL 6
REMARK VINA RESULT:      -7.3      3.540      6.606
REMARK  2 active torsions:
REMARK  status: ('A' for Active; 'I' for Inactive)
REMARK    1  A    between atoms: C5_7  and  N2_8 
REMARK    2  A    between atoms: N2_8  and  C6_9 
ROOT
HETATM    1  O1  UNL     1      25.850   5.826  49.786  1.00  0.00     0.000 OA
HETATM    2  C1  UNL     1      26.739   5.049  49.378  1.00  0.00     0.202 A 
HETATM    3  C2  UNL     1      26.886   3.618  49.130  1.00  0.00     0.045 C 
HETATM    4  C3  UNL     1      26.207   2.864  49.965  1.00  0.00     0.084 A 
HETATM    5  C4  UNL     1      26.331   3.051  51.223  1.00  0.00     0.116 A 
HETATM    6  N1  UNL     1      25.133   3.568  50.753  1.00  0.00    -0.247 NA
HETATM    7  C5  UNL     1      24.034   3.622  51.407  1.00  0.00     0.064 C 
HETATM    8  C12 UNL     1      22.957   4.313  50.579  1.00  0.00     0.097 C 
HETATM    9  C13 UNL     1      23.099   5.760  50.741  1.00  0.00    -0.020 C 
HETATM   10  C14 UNL     1      23.109   7.061  50.928  1.00  0.00    -0.006 C 
HETATM   11  C15 UNL     1      24.412   7.677  50.552  1.00  0.00     0.011 C 
HETATM   12  C16 UNL     1      25.609   7.355  50.088  1.00  0.00     0.287 A 
HETATM   13  N3  UNL     1      26.626   6.477  49.613  1.00  0.00     0.132 N 
HETATM   14  H14 UNL     1      27.607   6.845  49.326  1.00  0.00     0.324 HD
ENDROOT
BRANCH   7  15
HETATM   15  N2  UNL     1      23.900   3.144  52.732  1.00  0.00    -0.350 N 
HETATM   16  H3  UNL     1      24.247   3.818  53.486  1.00  0.00     0.167 HD
BRANCH  15  17
HETATM   17  C6  UNL     1      23.332   1.854  52.842  1.00  0.00     0.034 A 
HETATM   18  C7  UNL     1      24.142   0.735  53.145  1.00  0.00     0.029 A 
HETATM   19  C8  UNL     1      23.656  -0.523  53.257  1.00  0.00     0.004 A 
HETATM   20  C9  UNL     1      22.330  -0.788  53.081  1.00  0.00     0.019 A 
HETATM   21  C10 UNL     1      21.475   0.241  52.786  1.00  0.00     0.013 A 
HETATM   22 BR1  UNL     1      19.577   0.060  52.490  1.00  0.00    -0.051 Br
HETATM   23  C11 UNL     1      22.005   1.504  52.679  1.00  0.00     0.048 A 
ENDBRANCH  15  17
ENDBRANCH   7  15
TORSDOF 2
ENDMDL
MODEL 7
REMARK VINA RESULT:      -7.3      2.100      3.542
REMARK  2 active torsions:
REMARK  status: ('A' for Active; 'I' for Inactive)
REMARK    1  A    between atoms: C5_7  and  N2_8 
REMARK    2  A    between atoms: N2_8  and  C6_9 
ROOT
HETATM    1  O1  UNL     1      22.442  -0.441  53.160  1.00  0.00     0.000 OA
HETATM    2  C1  UNL     1      21.497  -0.234  52.369  1.00  0.00     0.202 A 
HETATM    3  C2  UNL     1      21.316   0.326  51.033  1.00  0.00     0.045 C 
HETATM    4  C3  UNL     1      22.144   1.306  50.754  1.00  0.00     0.084 A 
HETATM    5  C4  UNL     1      22.257   2.284  51.567  1.00  0.00     0.116 A 
HETATM    6  N1  UNL     1      23.343   1.425  51.659  1.00  0.00    -0.247 NA
HETATM    7  C5  UNL     1      24.545   1.765  51.938  1.00  0.00     0.064 C 
HETATM    8  C12 UNL     1      25.442   0.536  52.006  1.00  0.00     0.097 C 
HETATM    9  C13 UNL     1      25.324  -0.057  53.339  1.00  0.00    -0.020 C 
HETATM   10  C14 UNL     1      25.341  -0.573  54.547  1.00  0.00    -0.006 C 
HETATM   11  C15 UNL     1      23.986  -0.995  55.002  1.00  0.00     0.011 C 
HETATM   12  C16 UNL     1      22.725  -1.021  54.599  1.00  0.00     0.287 A 
HETATM   13  N3  UNL     1      21.643  -0.796  53.699  1.00  0.00     0.132 N 
HETATM   14  H14 UNL     1      20.623  -1.068  53.957  1.00  0.00     0.324 HD
ENDROOT
BRANCH   7  15
HETATM   15  N2  UNL     1      24.928   3.103  52.194  1.00  0.00    -0.350 N 
HETATM   16  H3  UNL     1      24.836   3.405  53.216  1.00  0.00     0.167 HD
BRANCH  15  17
HETATM   17  C6  UNL     1      25.369   3.821  51.059  1.00  0.00     0.034 A 
HETATM   18  C7  UNL     1      26.524   3.411  50.353  1.00  0.00     0.029 A 
HETATM   19  C8  UNL     1      26.997   4.062  49.265  1.00  0.00     0.004 A 
HETATM   20  C9  UNL     1      26.371   5.171  48.775  1.00  0.00     0.019 A 
HETATM   21  C10 UNL     1      25.243   5.633  49.400  1.00  0.00     0.013 A 
HETATM   22 BR1  UNL     1      24.233   7.188  48.864  1.00  0.00    -0.051 Br
HETATM   23  C11 UNL     1      24.794   4.948  50.503  1.00  0.00     0.048 A 
ENDBRANCH  15  17
ENDBRANCH   7  15
TORSDOF 2
ENDMDL
MODEL 8
REMARK VINA RESULT:      -7.1      3.343      6.565
REMARK  2 active torsions:
REMARK  status: ('A' for Active; 'I' for Inactive)
REMARK    1  A    between atoms: C5_7  and  N2_8 
REMARK    2  A    between atoms: N2_8  and  C6_9 
ROOT
HETATM    1  O1  UNL     1      23.589   5.745  48.103  1.00  0.00     0.000 OA
HETATM    2  C1  UNL     1      24.160   6.849  48.238  1.00  0.00     0.202 A 
HETATM    3  C2  UNL     1      25.317   7.381  48.951  1.00  0.00     0.045 C 
HETATM    4  C3  UNL     1      25.539   6.801  50.108  1.00  0.00     0.084 A 
HETATM    5  C4  UNL     1      24.585   6.694  50.951  1.00  0.00     0.116 A 
HETATM    6  N1  UNL     1      24.838   5.484  50.321  1.00  0.00    -0.247 NA
HETATM    7  C5  UNL     1      24.701   4.325  50.846  1.00  0.00     0.064 C 
HETATM    8  C12 UNL     1      25.017   3.239  49.825  1.00  0.00     0.097 C 
HETATM    9  C13 UNL     1      23.819   2.991  49.021  1.00  0.00    -0.020 C 
HETATM   10  C14 UNL     1      22.750   2.650  48.337  1.00  0.00    -0.006 C 
HETATM   11  C15 UNL     1      22.167   3.798  47.588  1.00  0.00     0.011 C 
HETATM   12  C16 UNL     1      22.353   5.091  47.374  1.00  0.00     0.287 A 
HETATM   13  N3  UNL     1      23.003   6.352  47.516  1.00  0.00     0.132 N 
HETATM   14  H14 UNL     1      22.636   7.241  47.010  1.00  0.00     0.324 HD
ENDROOT
BRANCH   7  15
HETATM   15  N2  UNL     1      24.263   4.127  52.178  1.00  0.00    -0.350 N 
HETATM   16  H3  UNL     1      23.917   5.012  52.669  1.00  0.00     0.167 HD
BRANCH  15  17
HETATM   17  C6  UNL     1      24.356   2.795  52.641  1.00  0.00     0.034 A 
HETATM   18  C7  UNL     1      23.253   1.917  52.531  1.00  0.00     0.029 A 
HETATM   19  C8  UNL     1      23.281   0.634  52.962  1.00  0.00     0.004 A 
HETATM   20  C9  UNL     1      24.399   0.104  53.537  1.00  0.00     0.019 A 
HETATM   21  C10 UNL     1      25.513   0.888  53.679  1.00  0.00     0.013 A 
HETATM   22 BR1  UNL     1      27.177   0.322  54.476  1.00  0.00    -0.051 Br
HETATM   23  C11 UNL     1      25.447   2.185  53.232  1.00  0.00     0.048 A 
ENDBRANCH  15  17
ENDBRANCH   7  15
TORSDOF 2
ENDMDL
MODEL 9
REMARK VINA RESULT:      -7.1      2.575      4.084
REMARK  2 active torsions:
REMARK  status: ('A' for Active; 'I' for Inactive)
REMARK    1  A    between atoms: C5_7  and  N2_8 
REMARK    2  A    between atoms: N2_8  and  C6_9 
ROOT
HETATM    1  O1  UNL     1      21.129  -0.502  53.598  1.00  0.00     0.000 OA
HETATM    2  C1  UNL     1      20.054  -0.240  53.015  1.00  0.00     0.202 A 
HETATM    3  C2  UNL     1      19.629   0.481  51.819  1.00  0.00     0.045 C 
HETATM    4  C3  UNL     1      20.368   1.530  51.542  1.00  0.00     0.084 A 
HETATM    5  C4  UNL     1      20.595   2.397  52.452  1.00  0.00     0.116 A 
HETATM    6  N1  UNL     1      21.703   1.589  52.239  1.00  0.00    -0.247 NA
HETATM    7  C5  UNL     1      22.926   1.950  52.356  1.00  0.00     0.064 C 
HETATM    8  C12 UNL     1      23.854   0.769  52.100  1.00  0.00     0.097 C 
HETATM    9  C13 UNL     1      23.986   0.001  53.339  1.00  0.00    -0.020 C 
HETATM   10  C14 UNL     1      24.227  -0.668  54.443  1.00  0.00    -0.006 C 
HETATM   11  C15 UNL     1      22.984  -1.215  55.058  1.00  0.00     0.011 C 
HETATM   12  C16 UNL     1      21.674  -1.251  54.874  1.00  0.00     0.287 A 
HETATM   13  N3  UNL     1      20.445  -0.964  54.210  1.00  0.00     0.132 N 
HETATM   14  H14 UNL     1      19.494  -1.318  54.597  1.00  0.00     0.324 HD
ENDROOT
BRANCH   7  15
HETATM   15  N2  UNL     1      23.312   3.260  52.726  1.00  0.00    -0.350 N 
HETATM   16  H3  UNL     1      23.254   3.462  53.774  1.00  0.00     0.167 HD
BRANCH  15  17
HETATM   17  C6  UNL     1      23.708   4.088  51.650  1.00  0.00     0.034 A 
HETATM   18  C7  UNL     1      22.859   5.120  51.187  1.00  0.00     0.029 A 
HETATM   19  C8  UNL     1      23.182   5.939  50.159  1.00  0.00     0.004 A 
HETATM   20  C9  UNL     1      24.369   5.812  49.498  1.00  0.00     0.019 A 
HETATM   21  C10 UNL     1      25.250   4.837  49.886  1.00  0.00     0.013 A 
HETATM   22 BR1  UNL     1      26.964   4.498  49.067  1.00  0.00    -0.051 Br
HETATM   23  C11 UNL     1      24.887   4.024  50.932  1.00  0.00     0.048 A 
ENDBRANCH  15  17
ENDBRANCH   7  15
TORSDOF 2
ENDMDL
