MODEL 1
REMARK VINA RESULT:      -8.6      0.000      0.000
REMARK  8 active torsions:
REMARK  status: ('A' for Active; 'I' for Inactive)
REMARK    1  A    between atoms: O1_1  and  C1_2 
REMARK    2  A    between atoms: C6_7  and  C7_8 
REMARK    3  A    between atoms: C7_8  and  C8_9 
REMARK    4  A    between atoms: C8_9  and  C9_10 
REMARK    5  A    between atoms: C8_9  and  N1_20 
REMARK    6  A    between atoms: C10_11  and  C11_12 
REMARK    7  A    between atoms: C11_12  and  C12_13 
REMARK    8  A    between atoms: N1_20  and  C18_21 
ROOT
HETATM    1  C8  UNL     1      25.008   2.870  51.193  1.00  0.00     0.167 C 
ENDROOT
BRANCH   1   2
HETATM    2  C7  UNL     1      25.118   2.503  52.663  1.00  0.00     0.079 C 
BRANCH   2   3
HETATM    3  C6  UNL     1      26.109   1.388  52.829  1.00  0.00    -0.022 A 
HETATM    4  C1  UNL     1      27.282   1.666  53.520  1.00  0.00     0.072 A 
HETATM    5  C2  UNL     1      28.252   0.679  53.702  1.00  0.00     0.037 A 
HETATM    6  C3  UNL     1      28.078  -0.582  53.214  1.00  0.00     0.003 A 
HETATM    7  C4  UNL     1      26.908  -0.839  52.532  1.00  0.00     0.001 A 
HETATM    8  C5  UNL     1      25.922   0.132  52.335  1.00  0.00     0.010 A 
BRANCH   4   9
HETATM    9  O1  UNL     1      27.516   2.913  54.036  1.00  0.00    -0.360 OA
HETATM   10  H1  UNL     1      27.708   2.995  55.027  1.00  0.00     0.217 HD
ENDBRANCH   4   9
ENDBRANCH   2   3
ENDBRANCH   1   2
BRANCH   1  11
HETATM   11  C9  UNL     1      23.742   2.227  50.746  1.00  0.00    -0.081 C 
HETATM   12  C10 UNL     1      22.713   1.697  50.396  1.00  0.00    -0.100 C 
BRANCH  12  13
HETATM   13  C11 UNL     1      21.467   1.050  49.983  1.00  0.00     0.132 C 
BRANCH  13  14
HETATM   14  C12 UNL     1      20.732   0.470  51.127  1.00  0.00    -0.046 A 
HETATM   15  C13 UNL     1      19.371   0.317  51.254  1.00  0.00     0.008 A 
HETATM   16  C14 UNL     1      18.756  -0.228  52.348  1.00  0.00     0.002 A 
HETATM   17  C15 UNL     1      19.573  -0.653  53.393  1.00  0.00     0.019 A 
HETATM   18  C16 UNL     1      20.943  -0.518  53.303  1.00  0.00     0.011 A 
HETATM   19 BR1  UNL     1      21.910  -1.146  54.814  1.00  0.00    -0.051 Br
HETATM   20  C17 UNL     1      21.507   0.031  52.195  1.00  0.00     0.027 A 
ENDBRANCH  13  14
ENDBRANCH  12  13
ENDBRANCH   1  11
BRANCH   1  21
HETATM   21  N1  UNL     1      24.974   4.298  51.039  1.00  0.00    -0.360 N 
HETATM   22  H15 UNL     1      24.351   4.961  51.580  1.00  0.00     0.162 HD
BRANCH  21  23
HETATM   23  C18 UNL     1      25.871   4.866  50.062  1.00  0.00     0.119 A 
HETATM   24  N2  UNL     1      25.885   6.098  49.670  1.00  0.00    -0.269 NA
HETATM   25  C19 UNL     1      26.926   6.301  48.678  1.00  0.00     0.178 A 
HETATM   26  C20 UNL     1      27.520   4.956  48.560  1.00  0.00    -0.001 A 
HETATM   27  C21 UNL     1      26.901   4.092  49.378  1.00  0.00     0.047 A 
ENDBRANCH  21  23
ENDBRANCH   1  21
TORSDOF 8
ENDMDL
MODEL 2
REMARK VINA RESULT:      -8.5      3.627      7.133
REMARK  8 active torsions:
REMARK  status: ('A' for Active; 'I' for Inactive)
REMARK    1  A    between atoms: O1_1  and  C1_2 
REMARK    2  A    between atoms: C6_7  and  C7_8 
REMARK    3  A    between atoms: C7_8  and  C8_9 
REMARK    4  A    between atoms: C8_9  and  C9_10 
REMARK    5  A    between atoms: C8_9  and  N1_20 
REMARK    6  A    between atoms: C10_11  and  C11_12 
REMARK    7  A    between atoms: C11_12  and  C12_13 
REMARK    8  A    between atoms: N1_20  and  C18_21 
ROOT
HETATM    1  C8  UNL     1      24.794   1.371  52.236  1.00  0.00     0.167 C 
ENDROOT
BRANCH   1   2
HETATM    2  C7  UNL     1      26.077   0.699  51.775  1.00  0.00     0.079 C 
BRANCH   2   3
HETATM    3  C6  UNL     1      27.182   1.013  52.740  1.00  0.00    -0.022 A 
HETATM    4  C1  UNL     1      27.563   0.016  53.631  1.00  0.00     0.072 A 
HETATM    5  C2  UNL     1      28.577   0.244  54.563  1.00  0.00     0.037 A 
HETATM    6  C3  UNL     1      29.223   1.441  54.626  1.00  0.00     0.003 A 
HETATM    7  C4  UNL     1      28.833   2.418  53.735  1.00  0.00     0.001 A 
HETATM    8  C5  UNL     1      27.820   2.215  52.792  1.00  0.00     0.010 A 
BRANCH   4   9
HETATM    9  O1  UNL     1      26.953  -1.209  53.617  1.00  0.00    -0.360 OA
HETATM   10  H1  UNL     1      25.941  -1.244  53.624  1.00  0.00     0.217 HD
ENDBRANCH   4   9
ENDBRANCH   2   3
ENDBRANCH   1   2
BRANCH   1  11
HETATM   11  C9  UNL     1      24.637   2.532  51.317  1.00  0.00    -0.081 C 
HETATM   12  C10 UNL     1      24.520   3.469  50.563  1.00  0.00    -0.100 C 
BRANCH  12  13
HETATM   13  C11 UNL     1      24.385   4.599  49.642  1.00  0.00     0.132 C 
BRANCH  13  14
HETATM   14  C12 UNL     1      25.694   5.076  49.147  1.00  0.00    -0.046 A 
HETATM   15  C13 UNL     1      26.875   4.373  49.096  1.00  0.00     0.008 A 
HETATM   16  C14 UNL     1      28.054   4.882  48.625  1.00  0.00     0.002 A 
HETATM   17  C15 UNL     1      28.044   6.198  48.169  1.00  0.00     0.019 A 
HETATM   18  C16 UNL     1      26.880   6.936  48.203  1.00  0.00     0.011 A 
HETATM   19 BR1  UNL     1      27.039   8.713  47.547  1.00  0.00    -0.051 Br
HETATM   20  C17 UNL     1      25.733   6.386  48.681  1.00  0.00     0.027 A 
ENDBRANCH  13  14
ENDBRANCH  12  13
ENDBRANCH   1  11
BRANCH   1  21
HETATM   21  N1  UNL     1      23.693   0.454  52.142  1.00  0.00    -0.360 N 
HETATM   22  H15 UNL     1      23.172   0.204  51.255  1.00  0.00     0.162 HD
BRANCH  21  23
HETATM   23  C18 UNL     1      23.269  -0.176  53.369  1.00  0.00     0.119 A 
HETATM   24  N2  UNL     1      24.042  -0.739  54.240  1.00  0.00    -0.269 NA
HETATM   25  C19 UNL     1      23.260  -1.262  55.346  1.00  0.00     0.178 A 
HETATM   26  C20 UNL     1      21.883  -0.901  54.962  1.00  0.00    -0.001 A 
HETATM   27  C21 UNL     1      21.874  -0.254  53.787  1.00  0.00     0.047 A 
ENDBRANCH  21  23
ENDBRANCH   1  21
TORSDOF 8
ENDMDL
MODEL 3
REMARK VINA RESULT:      -8.4      3.194      4.965
REMARK  8 active torsions:
REMARK  status: ('A' for Active; 'I' for Inactive)
REMARK    1  A    between atoms: O1_1  and  C1_2 
REMARK    2  A    between atoms: C6_7  and  C7_8 
REMARK    3  A    between atoms: C7_8  and  C8_9 
REMARK    4  A    between atoms: C8_9  and  C9_10 
REMARK    5  A    between atoms: C8_9  and  N1_20 
REMARK    6  A    between atoms: C10_11  and  C11_12 
REMARK    7  A    between atoms: C11_12  and  C12_13 
REMARK    8  A    between atoms: N1_20  and  C18_21 
ROOT
HETATM    1  C8  UNL     1      24.990   0.097  53.825  1.00  0.00     0.167 C 
ENDROOT
BRANCH   1   2
HETATM    2  C7  UNL     1      25.013   0.481  52.355  1.00  0.00     0.079 C 
BRANCH   2   3
HETATM    3  C6  UNL     1      24.172   1.706  52.144  1.00  0.00    -0.022 A 
HETATM    4  C1  UNL     1      24.518   2.855  52.846  1.00  0.00     0.072 A 
HETATM    5  C2  UNL     1      23.773   4.027  52.705  1.00  0.00     0.037 A 
HETATM    6  C3  UNL     1      22.692   4.082  51.878  1.00  0.00     0.003 A 
HETATM    7  C4  UNL     1      22.364   2.934  51.189  1.00  0.00     0.001 A 
HETATM    8  C5  UNL     1      23.093   1.748  51.313  1.00  0.00     0.010 A 
BRANCH   4   9
HETATM    9  O1  UNL     1      25.594   2.864  53.692  1.00  0.00    -0.360 OA
HETATM   10  H1  UNL     1      26.218   3.661  53.669  1.00  0.00     0.217 HD
ENDBRANCH   4   9
ENDBRANCH   2   3
ENDBRANCH   1   2
BRANCH   1  11
HETATM   11  C9  UNL     1      23.650  -0.519  54.023  1.00  0.00    -0.081 C 
HETATM   12  C10 UNL     1      22.555  -1.009  54.176  1.00  0.00    -0.100 C 
BRANCH  12  13
HETATM   13  C11 UNL     1      21.225  -1.594  54.353  1.00  0.00     0.132 C 
BRANCH  13  14
HETATM   14  C12 UNL     1      20.214  -0.960  53.481  1.00  0.00    -0.046 A 
HETATM   15  C13 UNL     1      20.371   0.157  52.695  1.00  0.00     0.008 A 
HETATM   16  C14 UNL     1      19.386   0.692  51.912  1.00  0.00     0.002 A 
HETATM   17  C15 UNL     1      18.148   0.055  51.920  1.00  0.00     0.019 A 
HETATM   18  C16 UNL     1      17.950  -1.069  52.695  1.00  0.00     0.011 A 
HETATM   19 BR1  UNL     1      16.205  -1.815  52.592  1.00  0.00    -0.051 Br
HETATM   20  C17 UNL     1      18.960  -1.562  53.457  1.00  0.00     0.027 A 
ENDBRANCH  13  14
ENDBRANCH  12  13
ENDBRANCH   1  11
BRANCH   1  21
HETATM   21  N1  UNL     1      26.056  -0.821  54.114  1.00  0.00    -0.360 N 
HETATM   22  H15 UNL     1      25.941  -1.852  54.328  1.00  0.00     0.162 HD
BRANCH  21  23
HETATM   23  C18 UNL     1      27.395  -0.282  54.108  1.00  0.00     0.119 A 
HETATM   24  N2  UNL     1      27.773   0.817  54.676  1.00  0.00    -0.269 NA
HETATM   25  C19 UNL     1      29.192   1.035  54.458  1.00  0.00     0.178 A 
HETATM   26  C20 UNL     1      29.575  -0.141  53.655  1.00  0.00    -0.001 A 
HETATM   27  C21 UNL     1      28.515  -0.933  53.439  1.00  0.00     0.047 A 
ENDBRANCH  21  23
ENDBRANCH   1  21
TORSDOF 8
ENDMDL
MODEL 4
REMARK VINA RESULT:      -8.4      3.485      7.475
REMARK  8 active torsions:
REMARK  status: ('A' for Active; 'I' for Inactive)
REMARK    1  A    between atoms: O1_1  and  C1_2 
REMARK    2  A    between atoms: C6_7  and  C7_8 
REMARK    3  A    between atoms: C7_8  and  C8_9 
REMARK    4  A    between atoms: C8_9  and  C9_10 
REMARK    5  A    between atoms: C8_9  and  N1_20 
REMARK    6  A    between atoms: C10_11  and  C11_12 
REMARK    7  A    between atoms: C11_12  and  C12_13 
REMARK    8  A    between atoms: N1_20  and  C18_21 
ROOT
HETATM    1  C8  UNL     1      26.201   1.794  52.172  1.00  0.00     0.167 C 
ENDROOT
BRANCH   1   2
HETATM    2  C7  UNL     1      25.170   2.100  53.245  1.00  0.00     0.079 C 
BRANCH   2   3
HETATM    3  C6  UNL     1      23.947   1.261  53.019  1.00  0.00    -0.022 A 
HETATM    4  C1  UNL     1      23.946  -0.030  53.536  1.00  0.00     0.072 A 
HETATM    5  C2  UNL     1      22.846  -0.869  53.355  1.00  0.00     0.037 A 
HETATM    6  C3  UNL     1      21.744  -0.451  52.671  1.00  0.00     0.003 A 
HETATM    7  C4  UNL     1      21.762   0.831  52.165  1.00  0.00     0.001 A 
HETATM    8  C5  UNL     1      22.851   1.691  52.333  1.00  0.00     0.010 A 
BRANCH   4   9
HETATM    9  O1  UNL     1      25.023  -0.508  54.234  1.00  0.00    -0.360 OA
HETATM   10  H1  UNL     1      25.705  -1.070  53.741  1.00  0.00     0.217 HD
ENDBRANCH   4   9
ENDBRANCH   2   3
ENDBRANCH   1   2
BRANCH   1  11
HETATM   11  C9  UNL     1      25.960   2.824  51.125  1.00  0.00    -0.081 C 
HETATM   12  C10 UNL     1      25.755   3.652  50.267  1.00  0.00    -0.100 C 
BRANCH  12  13
HETATM   13  C11 UNL     1      25.499   4.647  49.225  1.00  0.00     0.132 C 
BRANCH  13  14
HETATM   14  C12 UNL     1      26.723   5.381  48.839  1.00  0.00    -0.046 A 
HETATM   15  C13 UNL     1      27.960   4.852  48.554  1.00  0.00     0.008 A 
HETATM   16  C14 UNL     1      29.054   5.595  48.205  1.00  0.00     0.002 A 
HETATM   17  C15 UNL     1      28.890   6.976  48.137  1.00  0.00     0.019 A 
HETATM   18  C16 UNL     1      27.665   7.546  48.415  1.00  0.00     0.011 A 
HETATM   19 BR1  UNL     1      27.614   9.441  48.276  1.00  0.00    -0.051 Br
HETATM   20  C17 UNL     1      26.608   6.765  48.758  1.00  0.00     0.027 A 
ENDBRANCH  13  14
ENDBRANCH  12  13
ENDBRANCH   1  11
BRANCH   1  21
HETATM   21  N1  UNL     1      27.527   1.879  52.719  1.00  0.00    -0.360 N 
HETATM   22  H15 UNL     1      28.060   2.774  52.908  1.00  0.00     0.162 HD
BRANCH  21  23
HETATM   23  C18 UNL     1      28.177   0.630  53.037  1.00  0.00     0.119 A 
HETATM   24  N2  UNL     1      27.696  -0.552  52.823  1.00  0.00    -0.269 NA
HETATM   25  C19 UNL     1      28.633  -1.566  53.272  1.00  0.00     0.178 A 
HETATM   26  C20 UNL     1      29.753  -0.758  53.790  1.00  0.00    -0.001 A 
HETATM   27  C21 UNL     1      29.495   0.551  53.656  1.00  0.00     0.047 A 
ENDBRANCH  21  23
ENDBRANCH   1  21
TORSDOF 8
ENDMDL
MODEL 5
REMARK VINA RESULT:      -8.3      1.586      1.953
REMARK  8 active torsions:
REMARK  status: ('A' for Active; 'I' for Inactive)
REMARK    1  A    between atoms: O1_1  and  C1_2 
REMARK    2  A    between atoms: C6_7  and  C7_8 
REMARK    3  A    between atoms: C7_8  and  C8_9 
REMARK    4  A    between atoms: C8_9  and  C9_10 
REMARK    5  A    between atoms: C8_9  and  N1_20 
REMARK    6  A    between atoms: C10_11  and  C11_12 
REMARK    7  A    between atoms: C11_12  and  C12_13 
REMARK    8  A    between atoms: N1_20  and  C18_21 
ROOT
HETATM    1  C8  UNL     1      24.912   1.960  51.638  1.00  0.00     0.167 C 
ENDROOT
BRANCH   1   2
HETATM    2  C7  UNL     1      25.023   1.358  53.029  1.00  0.00     0.079 C 
BRANCH   2   3
HETATM    3  C6  UNL     1      26.337   0.645  53.164  1.00  0.00    -0.022 A 
HETATM    4  C1  UNL     1      27.422   1.377  53.630  1.00  0.00     0.072 A 
HETATM    5  C2  UNL     1      28.676   0.780  53.770  1.00  0.00     0.037 A 
HETATM    6  C3  UNL     1      28.873  -0.532  53.457  1.00  0.00     0.003 A 
HETATM    7  C4  UNL     1      27.786  -1.242  52.997  1.00  0.00     0.001 A 
HETATM    8  C5  UNL     1      26.519  -0.667  52.847  1.00  0.00     0.010 A 
BRANCH   4   9
HETATM    9  O1  UNL     1      27.289   2.699  53.962  1.00  0.00    -0.360 OA
HETATM   10  H1  UNL     1      27.908   3.083  54.665  1.00  0.00     0.217 HD
ENDBRANCH   4   9
ENDBRANCH   2   3
ENDBRANCH   1   2
BRANCH   1  11
HETATM   11  C9  UNL     1      23.530   1.621  51.200  1.00  0.00    -0.081 C 
HETATM   12  C10 UNL     1      22.406   1.360  50.839  1.00  0.00    -0.100 C 
BRANCH  12  13
HETATM   13  C11 UNL     1      21.044   1.054  50.398  1.00  0.00     0.132 C 
BRANCH  13  14
HETATM   14  C12 UNL     1      20.263   0.354  51.440  1.00  0.00    -0.046 A 
HETATM   15  C13 UNL     1      20.712  -0.097  52.660  1.00  0.00     0.008 A 
HETATM   16  C14 UNL     1      19.930  -0.742  53.578  1.00  0.00     0.002 A 
HETATM   17  C15 UNL     1      18.593  -0.949  53.244  1.00  0.00     0.019 A 
HETATM   18  C16 UNL     1      18.105  -0.511  52.031  1.00  0.00     0.011 A 
HETATM   19 BR1  UNL     1      16.263  -0.873  51.732  1.00  0.00    -0.051 Br
HETATM   20  C17 UNL     1      18.922   0.125  51.151  1.00  0.00     0.027 A 
ENDBRANCH  13  14
ENDBRANCH  12  13
ENDBRANCH   1  11
BRANCH   1  21
HETATM   21  N1  UNL     1      25.129   3.379  51.694  1.00  0.00    -0.360 N 
HETATM   22  H15 UNL     1      24.836   4.017  52.486  1.00  0.00     0.162 HD
BRANCH  21  23
HETATM   23  C18 UNL     1      25.808   3.974  50.568  1.00  0.00     0.119 A 
HETATM   24  N2  UNL     1      26.892   3.534  50.016  1.00  0.00    -0.269 NA
HETATM   25  C19 UNL     1      27.278   4.391  48.909  1.00  0.00     0.178 A 
HETATM   26  C20 UNL     1      26.219   5.417  48.915  1.00  0.00    -0.001 A 
HETATM   27  C21 UNL     1      25.337   5.181  49.897  1.00  0.00     0.047 A 
ENDBRANCH  21  23
ENDBRANCH   1  21
TORSDOF 8
ENDMDL
MODEL 6
REMARK VINA RESULT:      -8.3      1.720      2.327
REMARK  8 active torsions:
REMARK  status: ('A' for Active; 'I' for Inactive)
REMARK    1  A    between atoms: O1_1  and  C1_2 
REMARK    2  A    between atoms: C6_7  and  C7_8 
REMARK    3  A    between atoms: C7_8  and  C8_9 
REMARK    4  A    between atoms: C8_9  and  C9_10 
REMARK    5  A    between atoms: C8_9  and  N1_20 
REMARK    6  A    between atoms: C10_11  and  C11_12 
REMARK    7  A    between atoms: C11_12  and  C12_13 
REMARK    8  A    between atoms: N1_20  and  C18_21 
ROOT
HETATM    1  C8  UNL     1      24.970   1.800  52.637  1.00  0.00     0.167 C 
ENDROOT
BRANCH   1   2
HETATM    2  C7  UNL     1      25.811   1.773  53.902  1.00  0.00     0.079 C 
BRANCH   2   3
HETATM    3  C6  UNL     1      27.003   0.884  53.692  1.00  0.00    -0.022 A 
HETATM    4  C1  UNL     1      28.263   1.462  53.791  1.00  0.00     0.072 A 
HETATM    5  C2  UNL     1      29.414   0.697  53.598  1.00  0.00     0.037 A 
HETATM    6  C3  UNL     1      29.338  -0.633  53.310  1.00  0.00     0.003 A 
HETATM    7  C4  UNL     1      28.081  -1.189  53.216  1.00  0.00     0.001 A 
HETATM    8  C5  UNL     1      26.912  -0.444  53.405  1.00  0.00     0.010 A 
BRANCH   4   9
HETATM    9  O1  UNL     1      28.406   2.793  54.079  1.00  0.00    -0.360 OA
HETATM   10  H1  UNL     1      28.611   3.060  55.034  1.00  0.00     0.217 HD
ENDBRANCH   4   9
ENDBRANCH   2   3
ENDBRANCH   1   2
BRANCH   1  11
HETATM   11  C9  UNL     1      23.726   1.070  53.007  1.00  0.00    -0.081 C 
HETATM   12  C10 UNL     1      22.715   0.472  53.294  1.00  0.00    -0.100 C 
BRANCH  12  13
HETATM   13  C11 UNL     1      21.490  -0.256  53.630  1.00  0.00     0.132 C 
BRANCH  13  14
HETATM   14  C12 UNL     1      20.423  -0.049  52.628  1.00  0.00    -0.046 A 
HETATM   15  C13 UNL     1      20.532   0.578  51.409  1.00  0.00     0.008 A 
HETATM   16  C14 UNL     1      19.497   0.736  50.529  1.00  0.00     0.002 A 
HETATM   17  C15 UNL     1      18.257   0.224  50.905  1.00  0.00     0.019 A 
HETATM   18  C16 UNL     1      18.107  -0.412  52.119  1.00  0.00     0.011 A 
HETATM   19 BR1  UNL     1      16.353  -1.050  52.477  1.00  0.00    -0.051 Br
HETATM   20  C17 UNL     1      19.166  -0.544  52.960  1.00  0.00     0.027 A 
ENDBRANCH  13  14
ENDBRANCH  12  13
ENDBRANCH   1  11
BRANCH   1  21
HETATM   21  N1  UNL     1      24.704   3.157  52.246  1.00  0.00    -0.360 N 
HETATM   22  H15 UNL     1      24.069   3.832  52.757  1.00  0.00     0.162 HD
BRANCH  21  23
HETATM   23  C18 UNL     1      25.368   3.628  51.055  1.00  0.00     0.119 A 
HETATM   24  N2  UNL     1      25.098   4.722  50.418  1.00  0.00    -0.269 NA
HETATM   25  C19 UNL     1      25.972   4.865  49.268  1.00  0.00     0.178 A 
HETATM   26  C20 UNL     1      26.805   3.650  49.347  1.00  0.00    -0.001 A 
HETATM   27  C21 UNL     1      26.456   2.905  50.407  1.00  0.00     0.047 A 
ENDBRANCH  21  23
ENDBRANCH   1  21
TORSDOF 8
ENDMDL
MODEL 7
REMARK VINA RESULT:      -8.2      3.255      7.076
REMARK  8 active torsions:
REMARK  status: ('A' for Active; 'I' for Inactive)
REMARK    1  A    between atoms: O1_1  and  C1_2 
REMARK    2  A    between atoms: C6_7  and  C7_8 
REMARK    3  A    between atoms: C7_8  and  C8_9 
REMARK    4  A    between atoms: C8_9  and  C9_10 
REMARK    5  A    between atoms: C8_9  and  N1_20 
REMARK    6  A    between atoms: C10_11  and  C11_12 
REMARK    7  A    between atoms: C11_12  and  C12_13 
REMARK    8  A    between atoms: N1_20  and  C18_21 
ROOT
HETATM    1  C8  UNL     1      26.009   1.893  53.198  1.00  0.00     0.167 C 
ENDROOT
BRANCH   1   2
HETATM    2  C7  UNL     1      25.032   2.918  53.749  1.00  0.00     0.079 C 
BRANCH   2   3
HETATM    3  C6  UNL     1      23.799   2.946  52.894  1.00  0.00    -0.022 A 
HETATM    4  C1  UNL     1      23.296   4.189  52.529  1.00  0.00     0.072 A 
HETATM    5  C2  UNL     1      22.146   4.288  51.744  1.00  0.00     0.037 A 
HETATM    6  C3  UNL     1      21.487   3.177  51.311  1.00  0.00     0.003 A 
HETATM    7  C4  UNL     1      22.001   1.953  51.682  1.00  0.00     0.001 A 
HETATM    8  C5  UNL     1      23.150   1.826  52.468  1.00  0.00     0.010 A 
BRANCH   4   9
HETATM    9  O1  UNL     1      23.913   5.343  52.931  1.00  0.00    -0.360 OA
HETATM   10  H1  UNL     1      23.427   6.221  52.796  1.00  0.00     0.217 HD
ENDBRANCH   4   9
ENDBRANCH   2   3
ENDBRANCH   1   2
BRANCH   1  11
HETATM   11  C9  UNL     1      26.256   2.336  51.798  1.00  0.00    -0.081 C 
HETATM   12  C10 UNL     1      26.458   2.681  50.657  1.00  0.00    -0.100 C 
BRANCH  12  13
HETATM   13  C11 UNL     1      26.703   3.089  49.272  1.00  0.00     0.132 C 
BRANCH  13  14
HETATM   14  C12 UNL     1      26.806   4.557  49.132  1.00  0.00    -0.046 A 
HETATM   15  C13 UNL     1      27.807   5.269  48.514  1.00  0.00     0.008 A 
HETATM   16  C14 UNL     1      27.839   6.633  48.423  1.00  0.00     0.002 A 
HETATM   17  C15 UNL     1      26.782   7.335  48.997  1.00  0.00     0.019 A 
HETATM   18  C16 UNL     1      25.758   6.658  49.626  1.00  0.00     0.011 A 
HETATM   19 BR1  UNL     1      24.396   7.764  50.356  1.00  0.00    -0.051 Br
HETATM   20  C17 UNL     1      25.772   5.301  49.690  1.00  0.00     0.027 A 
ENDBRANCH  13  14
ENDBRANCH  12  13
ENDBRANCH   1  11
BRANCH   1  21
HETATM   21  N1  UNL     1      27.213   1.883  53.982  1.00  0.00    -0.360 N 
HETATM   22  H15 UNL     1      27.487   2.611  54.699  1.00  0.00     0.162 HD
BRANCH  21  23
HETATM   23  C18 UNL     1      28.116   0.779  53.766  1.00  0.00     0.119 A 
HETATM   24  N2  UNL     1      29.404   0.817  53.885  1.00  0.00    -0.269 NA
HETATM   25  C19 UNL     1      29.977  -0.484  53.590  1.00  0.00     0.178 A 
HETATM   26  C20 UNL     1      28.785  -1.294  53.275  1.00  0.00    -0.001 A 
HETATM   27  C21 UNL     1      27.670  -0.554  53.376  1.00  0.00     0.047 A 
ENDBRANCH  21  23
ENDBRANCH   1  21
TORSDOF 8
ENDMDL
MODEL 8
REMARK VINA RESULT:      -8.0      3.504      7.172
REMARK  8 active torsions:
REMARK  status: ('A' for Active; 'I' for Inactive)
REMARK    1  A    between atoms: O1_1  and  C1_2 
REMARK    2  A    between atoms: C6_7  and  C7_8 
REMARK    3  A    between atoms: C7_8  and  C8_9 
REMARK    4  A    between atoms: C8_9  and  C9_10 
REMARK    5  A    between atoms: C8_9  and  N1_20 
REMARK    6  A    between atoms: C10_11  and  C11_12 
REMARK    7  A    between atoms: C11_12  and  C12_13 
REMARK    8  A    between atoms: N1_20  and  C18_21 
ROOT
HETATM    1  C8  UNL     1      25.887   1.304  53.009  1.00  0.00     0.167 C 
ENDROOT
BRANCH   1   2
HETATM    2  C7  UNL     1      24.710   2.106  53.539  1.00  0.00     0.079 C 
BRANCH   2   3
HETATM    3  C6  UNL     1      23.438   1.592  52.931  1.00  0.00    -0.022 A 
HETATM    4  C1  UNL     1      22.622   2.506  52.275  1.00  0.00     0.072 A 
HETATM    5  C2  UNL     1      21.420   2.098  51.694  1.00  0.00     0.037 A 
HETATM    6  C3  UNL     1      21.013   0.799  51.751  1.00  0.00     0.003 A 
HETATM    7  C4  UNL     1      21.834  -0.093  52.405  1.00  0.00     0.001 A 
HETATM    8  C5  UNL     1      23.043   0.290  52.995  1.00  0.00     0.010 A 
BRANCH   4   9
HETATM    9  O1  UNL     1      22.977   3.825  52.182  1.00  0.00    -0.360 OA
HETATM   10  H1  UNL     1      23.396   4.152  51.320  1.00  0.00     0.217 HD
ENDBRANCH   4   9
ENDBRANCH   2   3
ENDBRANCH   1   2
BRANCH   1  11
HETATM   11  C9  UNL     1      26.189   1.924  51.689  1.00  0.00    -0.081 C 
HETATM   12  C10 UNL     1      26.443   2.416  50.614  1.00  0.00    -0.100 C 
BRANCH  12  13
HETATM   13  C11 UNL     1      26.754   3.001  49.309  1.00  0.00     0.132 C 
BRANCH  13  14
HETATM   14  C12 UNL     1      26.598   4.471  49.304  1.00  0.00    -0.046 A 
HETATM   15  C13 UNL     1      25.623   5.211  49.930  1.00  0.00     0.008 A 
HETATM   16  C14 UNL     1      25.539   6.575  49.880  1.00  0.00     0.002 A 
HETATM   17  C15 UNL     1      26.512   7.247  49.144  1.00  0.00     0.019 A 
HETATM   18  C16 UNL     1      27.507   6.541  48.501  1.00  0.00     0.011 A 
HETATM   19 BR1  UNL     1      28.752   7.609  47.540  1.00  0.00    -0.051 Br
HETATM   20  C17 UNL     1      27.547   5.185  48.580  1.00  0.00     0.027 A 
ENDBRANCH  13  14
ENDBRANCH  12  13
ENDBRANCH   1  11
BRANCH   1  21
HETATM   21  N1  UNL     1      26.998   1.394  53.915  1.00  0.00    -0.360 N 
HETATM   22  H15 UNL     1      27.107   2.111  54.687  1.00  0.00     0.162 HD
BRANCH  21  23
HETATM   23  C18 UNL     1      28.046   0.416  53.753  1.00  0.00     0.119 A 
HETATM   24  N2  UNL     1      27.880  -0.857  53.601  1.00  0.00    -0.269 NA
HETATM   25  C19 UNL     1      29.164  -1.522  53.467  1.00  0.00     0.178 A 
HETATM   26  C20 UNL     1      30.116  -0.400  53.569  1.00  0.00    -0.001 A 
HETATM   27  C21 UNL     1      29.464   0.760  53.739  1.00  0.00     0.047 A 
ENDBRANCH  21  23
ENDBRANCH   1  21
TORSDOF 8
ENDMDL
MODEL 9
REMARK VINA RESULT:      -8.0      1.606      4.768
REMARK  8 active torsions:
REMARK  status: ('A' for Active; 'I' for Inactive)
REMARK    1  A    between atoms: O1_1  and  C1_2 
REMARK    2  A    between atoms: C6_7  and  C7_8 
REMARK    3  A    between atoms: C7_8  and  C8_9 
REMARK    4  A    between atoms: C8_9  and  C9_10 
REMARK    5  A    between atoms: C8_9  and  N1_20 
REMARK    6  A    between atoms: C10_11  and  C11_12 
REMARK    7  A    between atoms: C11_12  and  C12_13 
REMARK    8  A    between atoms: N1_20  and  C18_21 
ROOT
HETATM    1  C8  UNL     1      24.567   3.648  50.904  1.00  0.00     0.167 C 
ENDROOT
BRANCH   1   2
HETATM    2  C7  UNL     1      25.569   3.588  49.764  1.00  0.00     0.079 C 
BRANCH   2   3
HETATM    3  C6  UNL     1      25.648   4.929  49.095  1.00  0.00    -0.022 A 
HETATM    4  C1  UNL     1      26.911   5.452  48.845  1.00  0.00     0.072 A 
HETATM    5  C2  UNL     1      27.058   6.699  48.235  1.00  0.00     0.037 A 
HETATM    6  C3  UNL     1      25.974   7.437  47.866  1.00  0.00     0.003 A 
HETATM    7  C4  UNL     1      24.729   6.903  48.121  1.00  0.00     0.001 A 
HETATM    8  C5  UNL     1      24.555   5.657  48.731  1.00  0.00     0.010 A 
BRANCH   4   9
HETATM    9  O1  UNL     1      28.040   4.758  49.191  1.00  0.00    -0.360 OA
HETATM   10  H1  UNL     1      28.073   4.316  50.102  1.00  0.00     0.217 HD
ENDBRANCH   4   9
ENDBRANCH   2   3
ENDBRANCH   1   2
BRANCH   1  11
HETATM   11  C9  UNL     1      23.520   2.659  50.527  1.00  0.00    -0.081 C 
HETATM   12  C10 UNL     1      22.660   1.862  50.229  1.00  0.00    -0.100 C 
BRANCH  12  13
HETATM   13  C11 UNL     1      21.612   0.904  49.874  1.00  0.00     0.132 C 
BRANCH  13  14
HETATM   14  C12 UNL     1      20.880   0.411  51.060  1.00  0.00    -0.046 A 
HETATM   15  C13 UNL     1      19.517   0.342  51.232  1.00  0.00     0.008 A 
HETATM   16  C14 UNL     1      18.906  -0.125  52.362  1.00  0.00     0.002 A 
HETATM   17  C15 UNL     1      19.729  -0.556  53.400  1.00  0.00     0.019 A 
HETATM   18  C16 UNL     1      21.101  -0.503  53.267  1.00  0.00     0.011 A 
HETATM   19 BR1  UNL     1      22.076  -1.127  54.774  1.00  0.00    -0.051 Br
HETATM   20  C17 UNL     1      21.661  -0.030  52.123  1.00  0.00     0.027 A 
ENDBRANCH  13  14
ENDBRANCH  12  13
ENDBRANCH   1  11
BRANCH   1  21
HETATM   21  N1  UNL     1      25.207   3.311  52.145  1.00  0.00    -0.360 N 
HETATM   22  H15 UNL     1      25.393   3.980  52.944  1.00  0.00     0.162 HD
BRANCH  21  23
HETATM   23  C18 UNL     1      25.625   1.940  52.306  1.00  0.00     0.119 A 
HETATM   24  N2  UNL     1      26.725   1.425  51.861  1.00  0.00    -0.269 NA
HETATM   25  C19 UNL     1      26.804   0.019  52.216  1.00  0.00     0.178 A 
HETATM   26  C20 UNL     1      25.543  -0.196  52.951  1.00  0.00    -0.001 A 
HETATM   27  C21 UNL     1      24.832   0.940  53.012  1.00  0.00     0.047 A 
ENDBRANCH  21  23
ENDBRANCH   1  21
TORSDOF 8
ENDMDL
