MODEL 1
REMARK VINA RESULT:      -7.4      0.000      0.000
REMARK  6 active torsions:
REMARK  status: ('A' for Active; 'I' for Inactive)
REMARK       I    between atoms: N1_2  and  C2_3 
REMARK    1  A    between atoms: C2_3  and  C3_5 
REMARK    2  A    between atoms: C8_10  and  S1_11 
REMARK    3  A    between atoms: S1_11  and  C9_12 
REMARK    4  A    between atoms: C9_12  and  C10_13 
REMARK    5  A    between atoms: C11_14  and  N2_15 
REMARK    6  A    between atoms: N2_15  and  N3_16 
ROOT
HETATM    1  C10 UNL     1      21.440  -0.670  54.616  1.00  0.00     0.002 C 
HETATM    2  C11 UNL     1      20.553   0.275  54.358  1.00  0.00     0.106 C 
ENDROOT
BRANCH   1   3
HETATM    3  C9  UNL     1      22.384  -0.985  53.513  1.00  0.00     0.108 C 
BRANCH   3   4
HETATM    4  S1  UNL     1      24.111  -0.630  53.954  1.00  0.00    -0.125 SA
BRANCH   4   5
HETATM    5  C8  UNL     1      24.779   0.572  52.826  1.00  0.00     0.016 A 
HETATM    6  C3  UNL     1      26.007   0.471  52.249  1.00  0.00     0.048 A 
HETATM    7  C4  UNL     1      26.384   1.497  51.399  1.00  0.00     0.018 A 
HETATM    8  C5  UNL     1      25.593   2.605  51.106  1.00  0.00     0.001 A 
HETATM    9  C6  UNL     1      24.340   2.688  51.711  1.00  0.00     0.001 A 
HETATM   10  C7  UNL     1      23.980   1.660  52.553  1.00  0.00     0.019 A 
BRANCH   6  11
HETATM   11  C2  UNL     1      26.917  -0.619  52.519  1.00  0.00     0.252 C 
HETATM   12  N1  UNL     1      28.176  -0.502  53.149  1.00  0.00    -0.361 N 
HETATM   13  C1  UNL     1      29.359  -1.172  53.623  1.00  0.00     0.149 C 
HETATM   14  H4  UNL     1      28.397   0.512  53.401  1.00  0.00     0.162 HD
HETATM   15  O1  UNL     1      26.778  -1.877  52.258  1.00  0.00    -0.268 OA
ENDBRANCH   6  11
ENDBRANCH   4   5
ENDBRANCH   3   4
ENDBRANCH   1   3
BRANCH   2  16
HETATM   16  N2  UNL     1      20.537   0.911  53.099  1.00  0.00    -0.288 N 
HETATM   17  H13 UNL     1      20.649   0.113  52.412  1.00  0.00     0.188 HD
BRANCH  16  18
HETATM   18  N3  UNL     1      20.412   2.283  53.089  1.00  0.00    -0.154 NA
HETATM   19  C12 UNL     1      20.337   2.944  52.007  1.00  0.00     0.167 C 
HETATM   20  C13 UNL     1      20.204   4.276  51.315  1.00  0.00     0.115 C 
HETATM   21  O2  UNL     1      20.385   2.241  50.836  1.00  0.00    -0.306 OA
HETATM   22  C14 UNL     1      21.320   4.541  50.379  1.00  0.00    -0.017 C 
HETATM   23  C15 UNL     1      22.324   4.961  49.640  1.00  0.00     0.015 C 
HETATM   24  C16 UNL     1      22.878   4.033  48.630  1.00  0.00     0.110 C 
HETATM   25  N4  UNL     1      22.889   2.818  48.207  1.00  0.00    -0.298 NA
HETATM   26  C17 UNL     1      22.175   1.863  48.820  1.00  0.00     0.177 C 
HETATM   27  C18 UNL     1      21.401   0.835  49.454  1.00  0.00     0.019 C 
HETATM   28  C19 UNL     1      20.461   0.910  50.493  1.00  0.00     0.142 C 
ENDBRANCH  16  18
ENDBRANCH   2  16
TORSDOF 6
ENDMDL
MODEL 2
REMARK VINA RESULT:      -7.4      3.942      5.592
REMARK  6 active torsions:
REMARK  status: ('A' for Active; 'I' for Inactive)
REMARK       I    between atoms: N1_2  and  C2_3 
REMARK    1  A    between atoms: C2_3  and  C3_5 
REMARK    2  A    between atoms: C8_10  and  S1_11 
REMARK    3  A    between atoms: S1_11  and  C9_12 
REMARK    4  A    between atoms: C9_12  and  C10_13 
REMARK    5  A    between atoms: C11_14  and  N2_15 
REMARK    6  A    between atoms: N2_15  and  N3_16 
ROOT
HETATM    1  C10 UNL     1      23.313   4.089  52.671  1.00  0.00     0.002 C 
HETATM    2  C11 UNL     1      23.464   5.295  52.152  1.00  0.00     0.106 C 
ENDROOT
BRANCH   1   3
HETATM    3  C9  UNL     1      24.428   3.138  52.426  1.00  0.00     0.108 C 
BRANCH   3   4
HETATM    4  S1  UNL     1      23.858   1.573  51.697  1.00  0.00    -0.125 SA
BRANCH   4   5
HETATM    5  C8  UNL     1      23.120   0.561  52.960  1.00  0.00     0.016 A 
HETATM    6  C3  UNL     1      23.823  -0.290  53.757  1.00  0.00     0.048 A 
HETATM    7  C4  UNL     1      23.097  -1.015  54.687  1.00  0.00     0.018 A 
HETATM    8  C5  UNL     1      21.718  -0.925  54.851  1.00  0.00     0.001 A 
HETATM    9  C6  UNL     1      21.020  -0.050  54.021  1.00  0.00     0.001 A 
HETATM   10  C7  UNL     1      21.755   0.664  53.102  1.00  0.00     0.019 A 
BRANCH   6  11
HETATM   11  C2  UNL     1      25.250  -0.483  53.638  1.00  0.00     0.252 C 
HETATM   12  N1  UNL     1      26.233   0.124  54.451  1.00  0.00    -0.361 N 
HETATM   13  C1  UNL     1      27.633   0.272  54.750  1.00  0.00     0.149 C 
HETATM   14  H4  UNL     1      25.795   0.770  55.180  1.00  0.00     0.162 HD
HETATM   15  O1  UNL     1      25.903  -1.221  52.802  1.00  0.00    -0.268 OA
ENDBRANCH   6  11
ENDBRANCH   4   5
ENDBRANCH   3   4
ENDBRANCH   1   3
BRANCH   2  16
HETATM   16  N2  UNL     1      24.625   5.611  51.416  1.00  0.00    -0.288 N 
HETATM   17  H13 UNL     1      25.144   4.689  51.355  1.00  0.00     0.188 HD
BRANCH  16  18
HETATM   18  N3  UNL     1      24.781   6.920  51.018  1.00  0.00    -0.154 NA
HETATM   19  C12 UNL     1      25.369   7.230  49.937  1.00  0.00     0.167 C 
HETATM   20  C13 UNL     1      25.844   8.299  48.986  1.00  0.00     0.115 C 
HETATM   21  O2  UNL     1      25.852   6.208  49.168  1.00  0.00    -0.306 OA
HETATM   22  C14 UNL     1      27.303   8.229  48.739  1.00  0.00    -0.017 C 
HETATM   23  C15 UNL     1      28.598   8.371  48.558  1.00  0.00     0.015 C 
HETATM   24  C16 UNL     1      29.389   7.163  48.240  1.00  0.00     0.110 C 
HETATM   25  N4  UNL     1      29.378   5.877  48.186  1.00  0.00    -0.298 NA
HETATM   26  C17 UNL     1      28.291   5.177  48.540  1.00  0.00     0.177 C 
HETATM   27  C18 UNL     1      27.129   4.416  48.898  1.00  0.00     0.019 C 
HETATM   28  C19 UNL     1      25.834   4.834  49.241  1.00  0.00     0.142 C 
ENDBRANCH  16  18
ENDBRANCH   2  16
TORSDOF 6
ENDMDL
MODEL 3
REMARK VINA RESULT:      -7.3      1.744      4.438
REMARK  6 active torsions:
REMARK  status: ('A' for Active; 'I' for Inactive)
REMARK       I    between atoms: N1_2  and  C2_3 
REMARK    1  A    between atoms: C2_3  and  C3_5 
REMARK    2  A    between atoms: C8_10  and  S1_11 
REMARK    3  A    between atoms: S1_11  and  C9_12 
REMARK    4  A    between atoms: C9_12  and  C10_13 
REMARK    5  A    between atoms: C11_14  and  N2_15 
REMARK    6  A    between atoms: N2_15  and  N3_16 
ROOT
HETATM    1  C10 UNL     1      26.224   3.852  50.027  1.00  0.00     0.002 C 
HETATM    2  C11 UNL     1      25.473   4.386  49.080  1.00  0.00     0.106 C 
ENDROOT
BRANCH   1   3
HETATM    3  C9  UNL     1      25.494   3.096  51.078  1.00  0.00     0.108 C 
BRANCH   3   4
HETATM    4  S1  UNL     1      26.566   1.927  51.965  1.00  0.00    -0.125 SA
BRANCH   4   5
HETATM    5  C8  UNL     1      25.568   0.833  52.951  1.00  0.00     0.016 A 
HETATM    6  C3  UNL     1      26.060   0.050  53.949  1.00  0.00     0.048 A 
HETATM    7  C4  UNL     1      25.152  -0.753  54.617  1.00  0.00     0.018 A 
HETATM    8  C5  UNL     1      23.790  -0.805  54.331  1.00  0.00     0.001 A 
HETATM    9  C6  UNL     1      23.310   0.004  53.304  1.00  0.00     0.001 A 
HETATM   10  C7  UNL     1      24.225   0.798  52.650  1.00  0.00     0.019 A 
BRANCH   6  11
HETATM   11  C2  UNL     1      27.463   0.003  54.293  1.00  0.00     0.252 C 
HETATM   12  N1  UNL     1      28.426  -0.849  53.708  1.00  0.00    -0.361 N 
HETATM   13  C1  UNL     1      29.802  -1.271  53.664  1.00  0.00     0.149 C 
HETATM   14  H4  UNL     1      27.990  -1.483  52.967  1.00  0.00     0.162 HD
HETATM   15  O1  UNL     1      28.108   0.700  55.169  1.00  0.00    -0.268 OA
ENDBRANCH   6  11
ENDBRANCH   4   5
ENDBRANCH   3   4
ENDBRANCH   1   3
BRANCH   2  16
HETATM   16  N2  UNL     1      24.072   4.227  49.109  1.00  0.00    -0.288 N 
HETATM   17  H13 UNL     1      23.725   5.130  49.541  1.00  0.00     0.188 HD
BRANCH  16  18
HETATM   18  N3  UNL     1      23.563   3.041  48.630  1.00  0.00    -0.154 NA
HETATM   19  C12 UNL     1      22.378   2.664  48.887  1.00  0.00     0.167 C 
HETATM   20  C13 UNL     1      21.288   1.635  48.729  1.00  0.00     0.115 C 
HETATM   21  O2  UNL     1      21.612   3.484  49.667  1.00  0.00    -0.306 OA
HETATM   22  C14 UNL     1      20.802   1.121  50.030  1.00  0.00    -0.017 C 
HETATM   23  C15 UNL     1      20.395   0.476  51.102  1.00  0.00     0.015 C 
HETATM   24  C16 UNL     1      20.032   1.273  52.294  1.00  0.00     0.110 C 
HETATM   25  N4  UNL     1      20.071   2.439  52.836  1.00  0.00    -0.298 NA
HETATM   26  C17 UNL     1      20.654   3.474  52.214  1.00  0.00     0.177 C 
HETATM   27  C18 UNL     1      21.256   4.595  51.553  1.00  0.00     0.019 C 
HETATM   28  C19 UNL     1      21.783   4.716  50.258  1.00  0.00     0.142 C 
ENDBRANCH  16  18
ENDBRANCH   2  16
TORSDOF 6
ENDMDL
MODEL 4
REMARK VINA RESULT:      -7.2      3.012      4.950
REMARK  6 active torsions:
REMARK  status: ('A' for Active; 'I' for Inactive)
REMARK       I    between atoms: N1_2  and  C2_3 
REMARK    1  A    between atoms: C2_3  and  C3_5 
REMARK    2  A    between atoms: C8_10  and  S1_11 
REMARK    3  A    between atoms: S1_11  and  C9_12 
REMARK    4  A    between atoms: C9_12  and  C10_13 
REMARK    5  A    between atoms: C11_14  and  N2_15 
REMARK    6  A    between atoms: N2_15  and  N3_16 
ROOT
HETATM    1  C10 UNL     1      21.547   2.113  50.719  1.00  0.00     0.002 C 
HETATM    2  C11 UNL     1      21.838   2.764  49.607  1.00  0.00     0.106 C 
ENDROOT
BRANCH   1   3
HETATM    3  C9  UNL     1      22.414   2.413  51.888  1.00  0.00     0.108 C 
BRANCH   3   4
HETATM    4  S1  UNL     1      23.841   1.292  52.001  1.00  0.00    -0.125 SA
BRANCH   4   5
HETATM    5  C8  UNL     1      23.629   0.197  53.387  1.00  0.00     0.016 A 
HETATM    6  C3  UNL     1      24.655  -0.448  54.007  1.00  0.00     0.048 A 
HETATM    7  C4  UNL     1      24.321  -1.273  55.068  1.00  0.00     0.018 A 
HETATM    8  C5  UNL     1      23.023  -1.478  55.526  1.00  0.00     0.001 A 
HETATM    9  C6  UNL     1      21.990  -0.809  54.874  1.00  0.00     0.001 A 
HETATM   10  C7  UNL     1      22.337   0.009  53.822  1.00  0.00     0.019 A 
BRANCH   6  11
HETATM   11  C2  UNL     1      26.031  -0.332  53.581  1.00  0.00     0.252 C 
HETATM   12  N1  UNL     1      26.935   0.675  53.985  1.00  0.00    -0.361 N 
HETATM   13  C1  UNL     1      28.267   1.215  53.891  1.00  0.00     0.149 C 
HETATM   14  H4  UNL     1      26.475   1.372  54.651  1.00  0.00     0.162 HD
HETATM   15  O1  UNL     1      26.699  -1.093  52.778  1.00  0.00    -0.268 OA
ENDBRANCH   6  11
ENDBRANCH   4   5
ENDBRANCH   3   4
ENDBRANCH   1   3
BRANCH   2  16
HETATM   16  N2  UNL     1      22.917   3.673  49.577  1.00  0.00    -0.288 N 
HETATM   17  H13 UNL     1      22.498   4.573  49.949  1.00  0.00     0.188 HD
BRANCH  16  18
HETATM   18  N3  UNL     1      24.120   3.206  49.098  1.00  0.00    -0.154 NA
HETATM   19  C12 UNL     1      25.228   3.727  49.437  1.00  0.00     0.167 C 
HETATM   20  C13 UNL     1      26.731   3.744  49.333  1.00  0.00     0.115 C 
HETATM   21  O2  UNL     1      25.187   4.782  50.304  1.00  0.00    -0.306 OA
HETATM   22  C14 UNL     1      27.252   5.053  48.877  1.00  0.00    -0.017 C 
HETATM   23  C15 UNL     1      27.826   6.106  48.337  1.00  0.00     0.015 C 
HETATM   24  C16 UNL     1      27.438   7.442  48.838  1.00  0.00     0.110 C 
HETATM   25  N4  UNL     1      26.597   8.095  49.561  1.00  0.00    -0.298 NA
HETATM   26  C17 UNL     1      25.582   7.473  50.176  1.00  0.00     0.177 C 
HETATM   27  C18 UNL     1      24.502   6.818  50.857  1.00  0.00     0.019 C 
HETATM   28  C19 UNL     1      24.198   5.454  50.986  1.00  0.00     0.142 C 
ENDBRANCH  16  18
ENDBRANCH   2  16
TORSDOF 6
ENDMDL
MODEL 5
REMARK VINA RESULT:      -7.0      3.383      6.913
REMARK  6 active torsions:
REMARK  status: ('A' for Active; 'I' for Inactive)
REMARK       I    between atoms: N1_2  and  C2_3 
REMARK    1  A    between atoms: C2_3  and  C3_5 
REMARK    2  A    between atoms: C8_10  and  S1_11 
REMARK    3  A    between atoms: S1_11  and  C9_12 
REMARK    4  A    between atoms: C9_12  and  C10_13 
REMARK    5  A    between atoms: C11_14  and  N2_15 
REMARK    6  A    between atoms: N2_15  and  N3_16 
ROOT
HETATM    1  C10 UNL     1      22.723   5.590  51.570  1.00  0.00     0.002 C 
HETATM    2  C11 UNL     1      23.405   4.964  52.513  1.00  0.00     0.106 C 
ENDROOT
BRANCH   1   3
HETATM    3  C9  UNL     1      21.899   4.725  50.688  1.00  0.00     0.108 C 
BRANCH   3   4
HETATM    4  S1  UNL     1      22.560   4.628  48.997  1.00  0.00    -0.125 SA
BRANCH   4   5
HETATM    5  C8  UNL     1      24.338   4.655  49.049  1.00  0.00     0.016 A 
HETATM    6  C3  UNL     1      25.089   5.751  48.757  1.00  0.00     0.048 A 
HETATM    7  C4  UNL     1      26.464   5.605  48.836  1.00  0.00     0.018 A 
HETATM    8  C5  UNL     1      27.109   4.423  49.192  1.00  0.00     0.001 A 
HETATM    9  C6  UNL     1      26.319   3.314  49.485  1.00  0.00     0.001 A 
HETATM   10  C7  UNL     1      24.954   3.475  49.402  1.00  0.00     0.019 A 
BRANCH   6  11
HETATM   11  C2  UNL     1      24.515   7.010  48.339  1.00  0.00     0.252 C 
HETATM   12  N1  UNL     1      24.474   7.496  47.013  1.00  0.00    -0.361 N 
HETATM   13  C1  UNL     1      24.071   8.554  46.124  1.00  0.00     0.149 C 
HETATM   14  H4  UNL     1      24.938   6.817  46.331  1.00  0.00     0.162 HD
HETATM   15  O1  UNL     1      23.940   7.918  49.056  1.00  0.00    -0.268 OA
ENDBRANCH   6  11
ENDBRANCH   4   5
ENDBRANCH   3   4
ENDBRANCH   1   3
BRANCH   2  16
HETATM   16  N2  UNL     1      23.328   3.560  52.631  1.00  0.00    -0.288 N 
HETATM   17  H13 UNL     1      22.297   3.352  52.507  1.00  0.00     0.188 HD
BRANCH  16  18
HETATM   18  N3  UNL     1      24.503   2.884  52.875  1.00  0.00    -0.154 NA
HETATM   19  C12 UNL     1      24.550   1.617  52.940  1.00  0.00     0.167 C 
HETATM   20  C13 UNL     1      25.363   0.364  53.143  1.00  0.00     0.115 C 
HETATM   21  O2  UNL     1      23.380   0.934  52.759  1.00  0.00    -0.306 OA
HETATM   22  C14 UNL     1      24.852  -0.469  54.256  1.00  0.00    -0.017 C 
HETATM   23  C15 UNL     1      24.595  -1.214  55.308  1.00  0.00     0.015 C 
HETATM   24  C16 UNL     1      23.189  -1.597  55.561  1.00  0.00     0.110 C 
HETATM   25  N4  UNL     1      21.962  -1.385  55.234  1.00  0.00    -0.298 NA
HETATM   26  C17 UNL     1      21.638  -0.466  54.314  1.00  0.00     0.177 C 
HETATM   27  C18 UNL     1      21.278   0.500  53.316  1.00  0.00     0.019 C 
HETATM   28  C19 UNL     1      22.079   1.278  52.466  1.00  0.00     0.142 C 
ENDBRANCH  16  18
ENDBRANCH   2  16
TORSDOF 6
ENDMDL
MODEL 6
REMARK VINA RESULT:      -7.0      3.990      6.428
REMARK  6 active torsions:
REMARK  status: ('A' for Active; 'I' for Inactive)
REMARK       I    between atoms: N1_2  and  C2_3 
REMARK    1  A    between atoms: C2_3  and  C3_5 
REMARK    2  A    between atoms: C8_10  and  S1_11 
REMARK    3  A    between atoms: S1_11  and  C9_12 
REMARK    4  A    between atoms: C9_12  and  C10_13 
REMARK    5  A    between atoms: C11_14  and  N2_15 
REMARK    6  A    between atoms: N2_15  and  N3_16 
ROOT
HETATM    1  C10 UNL     1      21.907   5.964  47.315  1.00  0.00     0.002 C 
HETATM    2  C11 UNL     1      21.226   4.838  47.438  1.00  0.00     0.106 C 
ENDROOT
BRANCH   1   3
HETATM    3  C9  UNL     1      22.387   6.569  48.583  1.00  0.00     0.108 C 
BRANCH   3   4
HETATM    4  S1  UNL     1      24.135   7.061  48.501  1.00  0.00    -0.125 SA
BRANCH   4   5
HETATM    5  C8  UNL     1      25.166   5.663  48.885  1.00  0.00     0.016 A 
HETATM    6  C3  UNL     1      26.526   5.698  48.874  1.00  0.00     0.048 A 
HETATM    7  C4  UNL     1      27.183   4.520  49.188  1.00  0.00     0.018 A 
HETATM    8  C5  UNL     1      26.544   3.326  49.509  1.00  0.00     0.001 A 
HETATM    9  C6  UNL     1      25.151   3.314  49.511  1.00  0.00     0.001 A 
HETATM   10  C7  UNL     1      24.512   4.492  49.197  1.00  0.00     0.019 A 
BRANCH   6  11
HETATM   11  C2  UNL     1      27.281   6.878  48.516  1.00  0.00     0.252 C 
HETATM   12  N1  UNL     1      27.697   7.891  49.408  1.00  0.00    -0.361 N 
HETATM   13  C1  UNL     1      28.392   9.139  49.583  1.00  0.00     0.149 C 
HETATM   14  H4  UNL     1      27.373   7.691  50.406  1.00  0.00     0.162 HD
HETATM   15  O1  UNL     1      27.719   7.240  47.355  1.00  0.00    -0.268 OA
ENDBRANCH   6  11
ENDBRANCH   4   5
ENDBRANCH   3   4
ENDBRANCH   1   3
BRANCH   2  16
HETATM   16  N2  UNL     1      20.990   4.287  48.715  1.00  0.00    -0.288 N 
HETATM   17  H13 UNL     1      20.736   5.127  49.309  1.00  0.00     0.188 HD
BRANCH  16  18
HETATM   18  N3  UNL     1      21.153   2.927  48.854  1.00  0.00    -0.154 NA
HETATM   19  C12 UNL     1      21.366   2.386  49.983  1.00  0.00     0.167 C 
HETATM   20  C13 UNL     1      21.609   1.136  50.790  1.00  0.00     0.115 C 
HETATM   21  O2  UNL     1      21.430   3.208  51.073  1.00  0.00    -0.306 OA
HETATM   22  C14 UNL     1      22.874   1.195  51.557  1.00  0.00    -0.017 C 
HETATM   23  C15 UNL     1      24.035   1.059  52.160  1.00  0.00     0.015 C 
HETATM   24  C16 UNL     1      24.520   2.181  52.993  1.00  0.00     0.110 C 
HETATM   25  N4  UNL     1      24.339   3.414  53.311  1.00  0.00    -0.298 NA
HETATM   26  C17 UNL     1      23.365   4.141  52.744  1.00  0.00     0.177 C 
HETATM   27  C18 UNL     1      22.315   4.925  52.161  1.00  0.00     0.019 C 
HETATM   28  C19 UNL     1      21.276   4.558  51.292  1.00  0.00     0.142 C 
ENDBRANCH  16  18
ENDBRANCH   2  16
TORSDOF 6
ENDMDL
MODEL 7
REMARK VINA RESULT:      -7.0      2.762      7.817
REMARK  6 active torsions:
REMARK  status: ('A' for Active; 'I' for Inactive)
REMARK       I    between atoms: N1_2  and  C2_3 
REMARK    1  A    between atoms: C2_3  and  C3_5 
REMARK    2  A    between atoms: C8_10  and  S1_11 
REMARK    3  A    between atoms: S1_11  and  C9_12 
REMARK    4  A    between atoms: C9_12  and  C10_13 
REMARK    5  A    between atoms: C11_14  and  N2_15 
REMARK    6  A    between atoms: N2_15  and  N3_16 
ROOT
HETATM    1  C10 UNL     1      25.934   4.127  49.495  1.00  0.00     0.002 C 
HETATM    2  C11 UNL     1      26.684   3.354  50.260  1.00  0.00     0.106 C 
ENDROOT
BRANCH   1   3
HETATM    3  C9  UNL     1      24.587   4.451  50.030  1.00  0.00     0.108 C 
BRANCH   3   4
HETATM    4  S1  UNL     1      23.263   3.549  49.171  1.00  0.00    -0.125 SA
BRANCH   4   5
HETATM    5  C8  UNL     1      22.166   2.820  50.367  1.00  0.00     0.016 A 
HETATM    6  C3  UNL     1      21.225   3.519  51.059  1.00  0.00     0.048 A 
HETATM    7  C4  UNL     1      20.455   2.804  51.961  1.00  0.00     0.018 A 
HETATM    8  C5  UNL     1      20.587   1.439  52.198  1.00  0.00     0.001 A 
HETATM    9  C6  UNL     1      21.559   0.745  51.480  1.00  0.00     0.001 A 
HETATM   10  C7  UNL     1      22.315   1.469  50.586  1.00  0.00     0.019 A 
BRANCH   6  11
HETATM   11  C2  UNL     1      21.038   4.944  50.913  1.00  0.00     0.252 C 
HETATM   12  N1  UNL     1      20.129   5.570  50.031  1.00  0.00    -0.361 N 
HETATM   13  C1  UNL     1      19.583   6.804  49.531  1.00  0.00     0.149 C 
HETATM   14  H4  UNL     1      19.584   4.853  49.456  1.00  0.00     0.162 HD
HETATM   15  O1  UNL     1      21.634   5.909  51.533  1.00  0.00    -0.268 OA
ENDBRANCH   6  11
ENDBRANCH   4   5
ENDBRANCH   3   4
ENDBRANCH   1   3
BRANCH   2  16
HETATM   16  N2  UNL     1      26.191   2.885  51.496  1.00  0.00    -0.288 N 
HETATM   17  H13 UNL     1      26.424   3.665  52.173  1.00  0.00     0.188 HD
BRANCH  16  18
HETATM   18  N3  UNL     1      25.605   1.638  51.507  1.00  0.00    -0.154 NA
HETATM   19  C12 UNL     1      25.922   0.752  52.359  1.00  0.00     0.167 C 
HETATM   20  C13 UNL     1      25.732  -0.639  52.907  1.00  0.00     0.115 C 
HETATM   21  O2  UNL     1      26.881   1.078  53.278  1.00  0.00    -0.306 OA
HETATM   22  C14 UNL     1      26.991  -1.419  52.922  1.00  0.00    -0.017 C 
HETATM   23  C15 UNL     1      27.997  -2.261  52.845  1.00  0.00     0.015 C 
HETATM   24  C16 UNL     1      29.319  -1.810  53.333  1.00  0.00     0.110 C 
HETATM   25  N4  UNL     1      30.011  -0.797  53.721  1.00  0.00    -0.298 NA
HETATM   26  C17 UNL     1      29.484   0.435  53.744  1.00  0.00     0.177 C 
HETATM   27  C18 UNL     1      28.928   1.757  53.792  1.00  0.00     0.019 C 
HETATM   28  C19 UNL     1      27.617   2.204  53.570  1.00  0.00     0.142 C 
ENDBRANCH  16  18
ENDBRANCH   2  16
TORSDOF 6
ENDMDL
MODEL 8
REMARK VINA RESULT:      -6.9      4.344      6.275
REMARK  6 active torsions:
REMARK  status: ('A' for Active; 'I' for Inactive)
REMARK       I    between atoms: N1_2  and  C2_3 
REMARK    1  A    between atoms: C2_3  and  C3_5 
REMARK    2  A    between atoms: C8_10  and  S1_11 
REMARK    3  A    between atoms: S1_11  and  C9_12 
REMARK    4  A    between atoms: C9_12  and  C10_13 
REMARK    5  A    between atoms: C11_14  and  N2_15 
REMARK    6  A    between atoms: N2_15  and  N3_16 
ROOT
HETATM    1  C10 UNL     1      24.054   3.163  50.215  1.00  0.00     0.002 C 
HETATM    2  C11 UNL     1      24.558   4.019  49.344  1.00  0.00     0.106 C 
ENDROOT
BRANCH   1   3
HETATM    3  C9  UNL     1      24.683   3.169  51.561  1.00  0.00     0.108 C 
BRANCH   3   4
HETATM    4  S1  UNL     1      25.684   1.683  51.867  1.00  0.00    -0.125 SA
BRANCH   4   5
HETATM    5  C8  UNL     1      24.829   0.611  53.000  1.00  0.00     0.016 A 
HETATM    6  C3  UNL     1      25.440  -0.069  54.008  1.00  0.00     0.048 A 
HETATM    7  C4  UNL     1      24.633  -0.870  54.799  1.00  0.00     0.018 A 
HETATM    8  C5  UNL     1      23.259  -1.016  54.625  1.00  0.00     0.001 A 
HETATM    9  C6  UNL     1      22.657  -0.311  53.585  1.00  0.00     0.001 A 
HETATM   10  C7  UNL     1      23.472   0.481  52.808  1.00  0.00     0.019 A 
BRANCH   6  11
HETATM   11  C2  UNL     1      26.864  -0.015  54.245  1.00  0.00     0.252 C 
HETATM   12  N1  UNL     1      27.831  -0.851  53.642  1.00  0.00    -0.361 N 
HETATM   13  C1  UNL     1      29.222  -1.198  53.518  1.00  0.00     0.149 C 
HETATM   14  H4  UNL     1      27.380  -1.558  52.980  1.00  0.00     0.162 HD
HETATM   15  O1  UNL     1      27.529   0.776  55.020  1.00  0.00    -0.268 OA
ENDBRANCH   6  11
ENDBRANCH   4   5
ENDBRANCH   3   4
ENDBRANCH   1   3
BRANCH   2  16
HETATM   16  N2  UNL     1      25.628   4.861  49.711  1.00  0.00    -0.288 N 
HETATM   17  H13 UNL     1      25.273   5.356  50.578  1.00  0.00     0.188 HD
BRANCH  16  18
HETATM   18  N3  UNL     1      26.749   4.839  48.912  1.00  0.00    -0.154 NA
HETATM   19  C12 UNL     1      27.405   5.893  48.642  1.00  0.00     0.167 C 
HETATM   20  C13 UNL     1      28.567   6.545  47.939  1.00  0.00     0.115 C 
HETATM   21  O2  UNL     1      26.954   7.068  49.176  1.00  0.00    -0.306 OA
HETATM   22  C14 UNL     1      28.140   7.622  47.017  1.00  0.00    -0.017 C 
HETATM   23  C15 UNL     1      27.883   8.486  46.060  1.00  0.00     0.015 C 
HETATM   24  C16 UNL     1      26.920   9.572  46.345  1.00  0.00     0.110 C 
HETATM   25  N4  UNL     1      26.032  10.006  47.170  1.00  0.00    -0.298 NA
HETATM   26  C17 UNL     1      25.709   9.312  48.270  1.00  0.00     0.177 C 
HETATM   27  C18 UNL     1      25.368   8.590  49.462  1.00  0.00     0.019 C 
HETATM   28  C19 UNL     1      25.930   7.432  50.020  1.00  0.00     0.142 C 
ENDBRANCH  16  18
ENDBRANCH   2  16
TORSDOF 6
ENDMDL
MODEL 9
REMARK VINA RESULT:      -6.8      3.076      5.857
REMARK  6 active torsions:
REMARK  status: ('A' for Active; 'I' for Inactive)
REMARK       I    between atoms: N1_2  and  C2_3 
REMARK    1  A    between atoms: C2_3  and  C3_5 
REMARK    2  A    between atoms: C8_10  and  S1_11 
REMARK    3  A    between atoms: S1_11  and  C9_12 
REMARK    4  A    between atoms: C9_12  and  C10_13 
REMARK    5  A    between atoms: C11_14  and  N2_15 
REMARK    6  A    between atoms: N2_15  and  N3_16 
ROOT
HETATM    1  C10 UNL     1      21.573   1.977  48.235  1.00  0.00     0.002 C 
HETATM    2  C11 UNL     1      21.412   0.971  49.076  1.00  0.00     0.106 C 
ENDROOT
BRANCH   1   3
HETATM    3  C9  UNL     1      21.846   3.299  48.856  1.00  0.00     0.108 C 
BRANCH   3   4
HETATM    4  S1  UNL     1      23.614   3.718  48.849  1.00  0.00    -0.125 SA
BRANCH   4   5
HETATM    5  C8  UNL     1      23.856   5.294  49.637  1.00  0.00     0.016 A 
HETATM    6  C3  UNL     1      25.078   5.826  49.912  1.00  0.00     0.048 A 
HETATM    7  C4  UNL     1      25.095   7.061  50.538  1.00  0.00     0.018 A 
HETATM    8  C5  UNL     1      23.956   7.776  50.895  1.00  0.00     0.001 A 
HETATM    9  C6  UNL     1      22.715   7.211  50.606  1.00  0.00     0.001 A 
HETATM   10  C7  UNL     1      22.715   5.983  49.983  1.00  0.00     0.019 A 
BRANCH   6  11
HETATM   11  C2  UNL     1      26.318   5.144  49.617  1.00  0.00     0.252 C 
HETATM   12  N1  UNL     1      27.406   5.688  48.899  1.00  0.00    -0.361 N 
HETATM   13  C1  UNL     1      28.732   5.488  48.375  1.00  0.00     0.149 C 
HETATM   14  H4  UNL     1      27.203   6.686  48.577  1.00  0.00     0.162 HD
HETATM   15  O1  UNL     1      26.681   3.945  49.936  1.00  0.00    -0.268 OA
ENDBRANCH   6  11
ENDBRANCH   4   5
ENDBRANCH   3   4
ENDBRANCH   1   3
BRANCH   2  16
HETATM   16  N2  UNL     1      21.496   1.188  50.467  1.00  0.00    -0.288 N 
HETATM   17  H13 UNL     1      21.495   2.243  50.559  1.00  0.00     0.188 HD
BRANCH  16  18
HETATM   18  N3  UNL     1      21.571   0.074  51.274  1.00  0.00    -0.154 NA
HETATM   19  C12 UNL     1      22.104   0.111  52.426  1.00  0.00     0.167 C 
HETATM   20  C13 UNL     1      22.491  -0.607  53.693  1.00  0.00     0.115 C 
HETATM   21  O2  UNL     1      22.611   1.309  52.845  1.00  0.00    -0.306 OA
HETATM   22  C14 UNL     1      23.941  -0.515  53.977  1.00  0.00    -0.017 C 
HETATM   23  C15 UNL     1      25.220  -0.638  54.257  1.00  0.00     0.015 C 
HETATM   24  C16 UNL     1      26.061   0.578  54.207  1.00  0.00     0.110 C 
HETATM   25  N4  UNL     1      26.114   1.811  53.841  1.00  0.00    -0.298 NA
HETATM   26  C17 UNL     1      25.077   2.397  53.226  1.00  0.00     0.177 C 
HETATM   27  C18 UNL     1      23.969   3.043  52.584  1.00  0.00     0.019 C 
HETATM   28  C19 UNL     1      22.667   2.585  52.331  1.00  0.00     0.142 C 
ENDBRANCH  16  18
ENDBRANCH   2  16
TORSDOF 6
ENDMDL
