MODEL 1
REMARK VINA RESULT:      -8.4      0.000      0.000
REMARK  2 active torsions:
REMARK  status: ('A' for Active; 'I' for Inactive)
REMARK    1  A    between atoms: C11_15  and  C12_16 
REMARK    2  A    between atoms: C12_16  and  C13_17 
ROOT
HETATM    1  C1  UNL     1      22.992   4.353  52.426  1.00  0.00     0.042 C 
HETATM    2  C2  UNL     1      22.629   3.396  51.591  1.00  0.00     0.019 C 
HETATM    3  C3  UNL     1      22.391   3.484  50.201  1.00  0.00     0.047 C 
HETATM    4  C4  UNL     1      22.154   3.489  48.928  1.00  0.00     0.012 C 
HETATM    5 BR1  UNL     1      21.558   1.853  48.194  1.00  0.00    -0.051 Br
HETATM    6  C5  UNL     1      22.419   4.441  47.822  1.00  0.00     0.017 C 
HETATM    7  C6  UNL     1      23.044   5.630  47.930  1.00  0.00    -0.004 C 
HETATM    8  C7  UNL     1      23.719   6.623  48.828  1.00  0.00     0.177 C 
HETATM    9  N1  UNL     1      25.139   6.732  48.421  1.00  0.00    -0.279 NA
HETATM   10  C8  UNL     1      25.889   5.667  48.725  1.00  0.00     0.228 C 
HETATM   11  N2  UNL     1      25.948   4.371  49.309  1.00  0.00    -0.238 NA
HETATM   12  C9  UNL     1      25.697   4.206  50.582  1.00  0.00     0.208 C 
HETATM   13  N3  UNL     1      25.638   3.135  51.550  1.00  0.00    -0.353 N 
HETATM   14  C10 UNL     1      24.963   1.875  51.786  1.00  0.00     0.024 C 
HETATM   15  C11 UNL     1      25.821   0.962  52.301  1.00  0.00     0.001 C 
HETATM   16  C19 UNL     1      23.574   1.367  51.595  1.00  0.00     0.176 C 
HETATM   17  N4  UNL     1      22.568   2.136  52.300  1.00  0.00    -0.385 N 
HETATM   18  H10 UNL     1      26.318   3.370  52.341  1.00  0.00     0.166 HD
HETATM   19  H21 UNL     1      21.840   2.237  53.044  1.00  0.00     0.160 HD
ENDROOT
BRANCH  15  20
HETATM   20  C12 UNL     1      27.238   0.820  52.712  1.00  0.00     0.041 C 
BRANCH  20  21
HETATM   21  C13 UNL     1      27.375  -0.229  53.780  1.00  0.00     0.035 C 
HETATM   22  C14 UNL     1      28.734  -0.226  54.343  1.00  0.00    -0.006 C 
HETATM   23  C15 UNL     1      29.644  -0.993  53.817  1.00  0.00    -0.029 C 
HETATM   24  C16 UNL     1      29.317  -2.016  53.083  1.00  0.00     0.011 C 
HETATM   25  C17 UNL     1      27.960  -2.387  52.837  1.00  0.00    -0.002 C 
HETATM   26  C18 UNL     1      27.002  -1.550  53.164  1.00  0.00    -0.018 C 
ENDBRANCH  20  21
ENDBRANCH  15  20
TORSDOF 2
ENDMDL
MODEL 2
REMARK VINA RESULT:      -8.1      1.572      1.840
REMARK  2 active torsions:
REMARK  status: ('A' for Active; 'I' for Inactive)
REMARK    1  A    between atoms: C11_15  and  C12_16 
REMARK    2  A    between atoms: C12_16  and  C13_17 
ROOT
HETATM    1  C1  UNL     1      22.867   5.327  51.657  1.00  0.00     0.042 C 
HETATM    2  C2  UNL     1      22.550   4.450  50.721  1.00  0.00     0.019 C 
HETATM    3  C3  UNL     1      22.406   4.661  49.331  1.00  0.00     0.047 C 
HETATM    4  C4  UNL     1      22.254   4.779  48.050  1.00  0.00     0.012 C 
HETATM    5 BR1  UNL     1      21.691   3.221  47.140  1.00  0.00    -0.051 Br
HETATM    6  C5  UNL     1      22.602   5.818  47.051  1.00  0.00     0.017 C 
HETATM    7  C6  UNL     1      23.230   6.983  47.302  1.00  0.00    -0.004 C 
HETATM    8  C7  UNL     1      23.855   7.884  48.325  1.00  0.00     0.177 C 
HETATM    9  N1  UNL     1      25.299   8.005  48.022  1.00  0.00    -0.279 NA
HETATM   10  C8  UNL     1      26.016   6.907  48.282  1.00  0.00     0.228 C 
HETATM   11  N2  UNL     1      26.023   5.564  48.754  1.00  0.00    -0.238 NA
HETATM   12  C9  UNL     1      25.687   5.295  49.988  1.00  0.00     0.208 C 
HETATM   13  N3  UNL     1      25.552   4.145  50.854  1.00  0.00    -0.353 N 
HETATM   14  C10 UNL     1      24.850   2.880  50.935  1.00  0.00     0.024 C 
HETATM   15  C11 UNL     1      25.662   1.913  51.424  1.00  0.00     0.001 C 
HETATM   16  C19 UNL     1      23.472   2.413  50.610  1.00  0.00     0.176 C 
HETATM   17  N4  UNL     1      22.429   3.135  51.313  1.00  0.00    -0.385 N 
HETATM   18  H10 UNL     1      26.181   4.301  51.705  1.00  0.00     0.166 HD
HETATM   19  H21 UNL     1      21.654   3.183  52.013  1.00  0.00     0.160 HD
ENDROOT
BRANCH  15  20
HETATM   20  C12 UNL     1      27.048   1.714  51.913  1.00  0.00     0.041 C 
BRANCH  20  21
HETATM   21  C13 UNL     1      27.165   2.131  53.353  1.00  0.00     0.035 C 
HETATM   22  C14 UNL     1      28.576   2.272  53.742  1.00  0.00    -0.006 C 
HETATM   23  C15 UNL     1      29.205   1.249  54.243  1.00  0.00    -0.029 C 
HETATM   24  C16 UNL     1      28.553   0.247  54.755  1.00  0.00     0.011 C 
HETATM   25  C17 UNL     1      27.129   0.214  54.840  1.00  0.00    -0.002 C 
HETATM   26  C18 UNL     1      26.431   1.109  54.178  1.00  0.00    -0.018 C 
ENDBRANCH  20  21
ENDBRANCH  15  20
TORSDOF 2
ENDMDL
MODEL 3
REMARK VINA RESULT:      -7.9      2.269      4.347
REMARK  2 active torsions:
REMARK  status: ('A' for Active; 'I' for Inactive)
REMARK    1  A    between atoms: C11_15  and  C12_16 
REMARK    2  A    between atoms: C12_16  and  C13_17 
ROOT
HETATM    1  C1  UNL     1      22.659   2.104  48.497  1.00  0.00     0.042 C 
HETATM    2  C2  UNL     1      22.722   3.317  49.016  1.00  0.00     0.019 C 
HETATM    3  C3  UNL     1      21.761   3.987  49.806  1.00  0.00     0.047 C 
HETATM    4  C4  UNL     1      20.929   4.663  50.531  1.00  0.00     0.012 C 
HETATM    5 BR1  UNL     1      21.448   6.431  50.952  1.00  0.00    -0.051 Br
HETATM    6  C5  UNL     1      19.706   4.328  51.301  1.00  0.00     0.017 C 
HETATM    7  C6  UNL     1      19.155   3.105  51.423  1.00  0.00    -0.004 C 
HETATM    8  C7  UNL     1      19.223   1.649  51.068  1.00  0.00     0.177 C 
HETATM    9  N1  UNL     1      19.455   0.875  52.309  1.00  0.00    -0.279 NA
HETATM   10  C8  UNL     1      20.685   0.998  52.820  1.00  0.00     0.228 C 
HETATM   11  N2  UNL     1      21.977   1.583  52.705  1.00  0.00    -0.238 NA
HETATM   12  C9  UNL     1      22.737   1.314  51.676  1.00  0.00     0.208 C 
HETATM   13  N3  UNL     1      24.045   1.660  51.168  1.00  0.00    -0.353 N 
HETATM   14  C10 UNL     1      24.826   2.818  50.783  1.00  0.00     0.024 C 
HETATM   15  C11 UNL     1      26.110   2.685  51.193  1.00  0.00     0.001 C 
HETATM   16  C19 UNL     1      24.545   4.091  50.060  1.00  0.00     0.176 C 
HETATM   17  N4  UNL     1      24.015   3.899  48.725  1.00  0.00    -0.385 N 
HETATM   18  H10 UNL     1      24.596   0.752  51.038  1.00  0.00     0.166 HD
HETATM   19  H21 UNL     1      24.093   3.967  47.684  1.00  0.00     0.160 HD
ENDROOT
BRANCH  15  20
HETATM   20  C12 UNL     1      26.997   1.736  51.909  1.00  0.00     0.041 C 
BRANCH  20  21
HETATM   21  C13 UNL     1      27.158   2.148  53.346  1.00  0.00     0.035 C 
HETATM   22  C14 UNL     1      28.581   2.257  53.700  1.00  0.00    -0.006 C 
HETATM   23  C15 UNL     1      29.200   1.219  54.184  1.00  0.00    -0.029 C 
HETATM   24  C16 UNL     1      28.540   0.230  54.710  1.00  0.00     0.011 C 
HETATM   25  C17 UNL     1      27.117   0.228  54.831  1.00  0.00    -0.002 C 
HETATM   26  C18 UNL     1      26.424   1.140  54.188  1.00  0.00    -0.018 C 
ENDBRANCH  20  21
ENDBRANCH  15  20
TORSDOF 2
ENDMDL
MODEL 4
REMARK VINA RESULT:      -7.8      5.864      9.024
REMARK  2 active torsions:
REMARK  status: ('A' for Active; 'I' for Inactive)
REMARK    1  A    between atoms: C11_15  and  C12_16 
REMARK    2  A    between atoms: C12_16  and  C13_17 
ROOT
HETATM    1  C1  UNL     1      30.468   9.084  49.352  1.00  0.00     0.042 C 
HETATM    2  C2  UNL     1      30.272   8.995  48.049  1.00  0.00     0.019 C 
HETATM    3  C3  UNL     1      31.226   8.777  47.028  1.00  0.00     0.047 C 
HETATM    4  C4  UNL     1      32.041   8.584  46.041  1.00  0.00     0.012 C 
HETATM    5 BR1  UNL     1      31.273   8.635  44.315  1.00  0.00    -0.051 Br
HETATM    6  C5  UNL     1      33.449   8.132  45.926  1.00  0.00     0.017 C 
HETATM    7  C6  UNL     1      34.256   7.779  46.945  1.00  0.00    -0.004 C 
HETATM    8  C7  UNL     1      34.414   7.604  48.426  1.00  0.00     0.177 C 
HETATM    9  N1  UNL     1      34.636   6.167  48.706  1.00  0.00    -0.279 NA
HETATM   10  C8  UNL     1      33.557   5.395  48.543  1.00  0.00     0.228 C 
HETATM   11  N2  UNL     1      32.179   5.319  48.194  1.00  0.00    -0.238 NA
HETATM   12  C9  UNL     1      31.279   5.940  48.910  1.00  0.00     0.208 C 
HETATM   13  N3  UNL     1      29.848   6.136  48.928  1.00  0.00    -0.353 N 
HETATM   14  C10 UNL     1      28.775   6.638  48.093  1.00  0.00     0.024 C 
HETATM   15  C11 UNL     1      27.674   5.858  48.210  1.00  0.00     0.001 C 
HETATM   16  C19 UNL     1      28.613   7.786  47.156  1.00  0.00     0.176 C 
HETATM   17  N4  UNL     1      28.855   9.077  47.767  1.00  0.00    -0.385 N 
HETATM   18  H10 UNL     1      29.483   5.799  49.876  1.00  0.00     0.166 HD
HETATM   19  H21 UNL     1      28.530  10.014  48.099  1.00  0.00     0.160 HD
ENDROOT
BRANCH  15  20
HETATM   20  C12 UNL     1      27.191   4.648  48.919  1.00  0.00     0.041 C 
BRANCH  20  21
HETATM   21  C13 UNL     1      26.057   4.996  49.843  1.00  0.00     0.035 C 
HETATM   22  C14 UNL     1      25.467   3.781  50.424  1.00  0.00    -0.006 C 
HETATM   23  C15 UNL     1      24.472   3.201  49.818  1.00  0.00    -0.029 C 
HETATM   24  C16 UNL     1      23.749   3.845  48.950  1.00  0.00     0.011 C 
HETATM   25  C17 UNL     1      23.964   5.221  48.634  1.00  0.00    -0.002 C 
HETATM   26  C18 UNL     1      25.065   5.804  49.052  1.00  0.00    -0.018 C 
ENDBRANCH  20  21
ENDBRANCH  15  20
TORSDOF 2
ENDMDL
MODEL 5
REMARK VINA RESULT:      -7.8      1.849      2.519
REMARK  2 active torsions:
REMARK  status: ('A' for Active; 'I' for Inactive)
REMARK    1  A    between atoms: C11_15  and  C12_16 
REMARK    2  A    between atoms: C12_16  and  C13_17 
ROOT
HETATM    1  C1  UNL     1      20.365   3.626  51.966  1.00  0.00     0.042 C 
HETATM    2  C2  UNL     1      20.703   3.139  50.786  1.00  0.00     0.019 C 
HETATM    3  C3  UNL     1      21.119   3.840  49.632  1.00  0.00     0.047 C 
HETATM    4  C4  UNL     1      21.503   4.413  48.536  1.00  0.00     0.012 C 
HETATM    5 BR1  UNL     1      21.785   3.267  47.060  1.00  0.00    -0.051 Br
HETATM    6  C5  UNL     1      21.976   5.774  48.182  1.00  0.00     0.017 C 
HETATM    7  C6  UNL     1      22.128   6.808  49.032  1.00  0.00    -0.004 C 
HETATM    8  C7  UNL     1      22.013   7.310  50.440  1.00  0.00     0.177 C 
HETATM    9  N1  UNL     1      23.370   7.650  50.928  1.00  0.00    -0.279 NA
HETATM   10  C8  UNL     1      24.154   6.595  51.171  1.00  0.00     0.228 C 
HETATM   11  N2  UNL     1      24.290   5.178  51.174  1.00  0.00    -0.238 NA
HETATM   12  C9  UNL     1      23.538   4.443  51.951  1.00  0.00     0.208 C 
HETATM   13  N3  UNL     1      23.336   3.047  52.266  1.00  0.00    -0.353 N 
HETATM   14  C10 UNL     1      23.001   1.791  51.625  1.00  0.00     0.024 C 
HETATM   15  C11 UNL     1      23.739   0.780  52.143  1.00  0.00     0.001 C 
HETATM   16  C19 UNL     1      22.056   1.370  50.553  1.00  0.00     0.176 C 
HETATM   17  N4  UNL     1      20.671   1.693  50.834  1.00  0.00    -0.385 N 
HETATM   18  H10 UNL     1      23.482   2.925  53.319  1.00  0.00     0.166 HD
HETATM   19  H21 UNL     1      19.686   1.415  51.049  1.00  0.00     0.160 HD
ENDROOT
BRANCH  15  20
HETATM   20  C12 UNL     1      24.786   0.524  53.161  1.00  0.00     0.041 C 
BRANCH  20  21
HETATM   21  C13 UNL     1      26.099   0.209  52.501  1.00  0.00     0.035 C 
HETATM   22  C14 UNL     1      27.030  -0.407  53.458  1.00  0.00    -0.006 C 
HETATM   23  C15 UNL     1      27.836   0.352  54.143  1.00  0.00    -0.029 C 
HETATM   24  C16 UNL     1      28.114   1.560  53.750  1.00  0.00     0.011 C 
HETATM   25  C17 UNL     1      27.596   2.118  52.543  1.00  0.00    -0.002 C 
HETATM   26  C18 UNL     1      26.627   1.490  51.916  1.00  0.00    -0.018 C 
ENDBRANCH  20  21
ENDBRANCH  15  20
TORSDOF 2
ENDMDL
MODEL 6
REMARK VINA RESULT:      -7.7      6.874     10.271
REMARK  2 active torsions:
REMARK  status: ('A' for Active; 'I' for Inactive)
REMARK    1  A    between atoms: C11_15  and  C12_16 
REMARK    2  A    between atoms: C12_16  and  C13_17 
ROOT
HETATM    1  C1  UNL     1      33.776   7.729  48.341  1.00  0.00     0.042 C 
HETATM    2  C2  UNL     1      33.401   7.795  47.076  1.00  0.00     0.019 C 
HETATM    3  C3  UNL     1      33.693   6.897  46.024  1.00  0.00     0.047 C 
HETATM    4  C4  UNL     1      33.921   6.123  45.012  1.00  0.00     0.012 C 
HETATM    5 BR1  UNL     1      33.231   6.709  43.353  1.00  0.00    -0.051 Br
HETATM    6  C5  UNL     1      34.448   4.746  44.851  1.00  0.00     0.017 C 
HETATM    7  C6  UNL     1      34.833   3.922  45.845  1.00  0.00    -0.004 C 
HETATM    8  C7  UNL     1      35.008   3.722  47.321  1.00  0.00     0.177 C 
HETATM    9  N1  UNL     1      34.092   2.643  47.759  1.00  0.00    -0.279 NA
HETATM   10  C8  UNL     1      32.799   2.983  47.771  1.00  0.00     0.228 C 
HETATM   11  N2  UNL     1      31.822   3.991  47.534  1.00  0.00    -0.238 NA
HETATM   12  C9  UNL     1      31.829   5.096  48.232  1.00  0.00     0.208 C 
HETATM   13  N3  UNL     1      31.077   6.326  48.329  1.00  0.00    -0.353 N 
HETATM   14  C10 UNL     1      30.664   7.454  47.518  1.00  0.00     0.024 C 
HETATM   15  C11 UNL     1      29.391   7.811  47.810  1.00  0.00     0.001 C 
HETATM   16  C19 UNL     1      31.305   8.288  46.462  1.00  0.00     0.176 C 
HETATM   17  N4  UNL     1      32.529   8.935  46.890  1.00  0.00    -0.385 N 
HETATM   18  H10 UNL     1      30.723   6.415  49.335  1.00  0.00     0.166 HD
HETATM   19  H21 UNL     1      33.085   9.788  47.127  1.00  0.00     0.160 HD
ENDROOT
BRANCH  15  20
HETATM   20  C12 UNL     1      28.264   7.432  48.696  1.00  0.00     0.041 C 
BRANCH  20  21
HETATM   21  C13 UNL     1      27.337   6.480  47.993  1.00  0.00     0.035 C 
HETATM   22  C14 UNL     1      25.936   6.886  48.176  1.00  0.00    -0.006 C 
HETATM   23  C15 UNL     1      25.260   6.413  49.183  1.00  0.00    -0.029 C 
HETATM   24  C16 UNL     1      25.642   5.332  49.797  1.00  0.00     0.011 C 
HETATM   25  C17 UNL     1      26.785   4.578  49.395  1.00  0.00    -0.002 C 
HETATM   26  C18 UNL     1      27.619   5.101  48.526  1.00  0.00    -0.018 C 
ENDBRANCH  20  21
ENDBRANCH  15  20
TORSDOF 2
ENDMDL
MODEL 7
REMARK VINA RESULT:      -7.5      2.430      3.785
REMARK  2 active torsions:
REMARK  status: ('A' for Active; 'I' for Inactive)
REMARK    1  A    between atoms: C11_15  and  C12_16 
REMARK    2  A    between atoms: C12_16  and  C13_17 
ROOT
HETATM    1  C1  UNL     1      25.331   5.427  48.969  1.00  0.00     0.042 C 
HETATM    2  C2  UNL     1      24.400   6.080  49.641  1.00  0.00     0.019 C 
HETATM    3  C3  UNL     1      23.144   6.539  49.185  1.00  0.00     0.047 C 
HETATM    4  C4  UNL     1      21.981   6.992  48.839  1.00  0.00     0.012 C 
HETATM    5 BR1  UNL     1      21.045   7.961  50.163  1.00  0.00    -0.051 Br
HETATM    6  C5  UNL     1      21.082   6.775  47.679  1.00  0.00     0.017 C 
HETATM    7  C6  UNL     1      21.318   5.959  46.633  1.00  0.00    -0.004 C 
HETATM    8  C7  UNL     1      22.252   4.986  45.977  1.00  0.00     0.177 C 
HETATM    9  N1  UNL     1      21.593   3.661  45.933  1.00  0.00    -0.279 NA
HETATM   10  C8  UNL     1      21.492   3.050  47.118  1.00  0.00     0.228 C 
HETATM   11  N2  UNL     1      21.751   3.098  48.517  1.00  0.00    -0.238 NA
HETATM   12  C9  UNL     1      22.979   3.146  48.962  1.00  0.00     0.208 C 
HETATM   13  N3  UNL     1      23.677   3.205  50.226  1.00  0.00    -0.353 N 
HETATM   14  C10 UNL     1      23.765   4.022  51.420  1.00  0.00     0.024 C 
HETATM   15  C11 UNL     1      23.876   3.245  52.524  1.00  0.00     0.001 C 
HETATM   16  C19 UNL     1      23.759   5.486  51.703  1.00  0.00     0.176 C 
HETATM   17  N4  UNL     1      24.810   6.216  51.023  1.00  0.00    -0.385 N 
HETATM   18  H10 UNL     1      24.342   2.368  50.273  1.00  0.00     0.166 HD
HETATM   19  H21 UNL     1      25.692   6.778  51.027  1.00  0.00     0.160 HD
ENDROOT
BRANCH  15  20
HETATM   20  C12 UNL     1      23.941   1.818  52.924  1.00  0.00     0.041 C 
BRANCH  20  21
HETATM   21  C13 UNL     1      25.273   1.506  53.548  1.00  0.00     0.035 C 
HETATM   22  C14 UNL     1      26.372   1.877  52.644  1.00  0.00    -0.006 C 
HETATM   23  C15 UNL     1      26.834   0.996  51.806  1.00  0.00    -0.029 C 
HETATM   24  C16 UNL     1      26.632  -0.276  51.991  1.00  0.00     0.011 C 
HETATM   25  C17 UNL     1      25.936  -0.790  53.126  1.00  0.00    -0.002 C 
HETATM   26  C18 UNL     1      25.274   0.043  53.897  1.00  0.00    -0.018 C 
ENDBRANCH  20  21
ENDBRANCH  15  20
TORSDOF 2
ENDMDL
MODEL 8
REMARK VINA RESULT:      -7.4      2.998      5.167
REMARK  2 active torsions:
REMARK  status: ('A' for Active; 'I' for Inactive)
REMARK    1  A    between atoms: C11_15  and  C12_16 
REMARK    2  A    between atoms: C12_16  and  C13_17 
ROOT
HETATM    1  C1  UNL     1      21.631   0.917  48.438  1.00  0.00     0.042 C 
HETATM    2  C2  UNL     1      21.425   2.165  48.819  1.00  0.00     0.019 C 
HETATM    3  C3  UNL     1      20.243   2.744  49.334  1.00  0.00     0.047 C 
HETATM    4  C4  UNL     1      19.198   3.343  49.809  1.00  0.00     0.012 C 
HETATM    5 BR1  UNL     1      19.381   5.198  50.117  1.00  0.00    -0.051 Br
HETATM    6  C5  UNL     1      17.901   2.890  50.367  1.00  0.00     0.017 C 
HETATM    7  C6  UNL     1      17.505   1.612  50.521  1.00  0.00    -0.004 C 
HETATM    8  C7  UNL     1      17.839   0.159  50.351  1.00  0.00     0.177 C 
HETATM    9  N1  UNL     1      17.916  -0.463  51.693  1.00  0.00    -0.279 NA
HETATM   10  C8  UNL     1      18.988  -0.111  52.409  1.00  0.00     0.228 C 
HETATM   11  N2  UNL     1      20.187   0.654  52.474  1.00  0.00    -0.238 NA
HETATM   12  C9  UNL     1      21.169   0.419  51.643  1.00  0.00     0.208 C 
HETATM   13  N3  UNL     1      22.494   0.917  51.355  1.00  0.00    -0.353 N 
HETATM   14  C10 UNL     1      23.175   2.145  50.996  1.00  0.00     0.024 C 
HETATM   15  C11 UNL     1      24.356   2.245  51.652  1.00  0.00     0.001 C 
HETATM   16  C19 UNL     1      22.879   3.294  50.094  1.00  0.00     0.176 C 
HETATM   17  N4  UNL     1      22.660   2.911  48.713  1.00  0.00    -0.385 N 
HETATM   18  H10 UNL     1      23.177   0.097  51.434  1.00  0.00     0.166 HD
HETATM   19  H21 UNL     1      22.938   2.903  47.705  1.00  0.00     0.160 HD
ENDROOT
BRANCH  15  20
HETATM   20  C12 UNL     1      25.198   1.507  52.625  1.00  0.00     0.041 C 
BRANCH  20  21
HETATM   21  C13 UNL     1      26.502   1.104  51.995  1.00  0.00     0.035 C 
HETATM   22  C14 UNL     1      26.738  -0.337  52.164  1.00  0.00    -0.006 C 
HETATM   23  C15 UNL     1      27.393  -0.759  53.207  1.00  0.00    -0.029 C 
HETATM   24  C16 UNL     1      28.157   0.044  53.888  1.00  0.00     0.011 C 
HETATM   25  C17 UNL     1      28.360   1.409  53.526  1.00  0.00    -0.002 C 
HETATM   26  C18 UNL     1      27.581   1.949  52.615  1.00  0.00    -0.018 C 
ENDBRANCH  20  21
ENDBRANCH  15  20
TORSDOF 2
ENDMDL
MODEL 9
REMARK VINA RESULT:      -7.2      2.972      7.891
REMARK  2 active torsions:
REMARK  status: ('A' for Active; 'I' for Inactive)
REMARK    1  A    between atoms: C11_15  and  C12_16 
REMARK    2  A    between atoms: C12_16  and  C13_17 
ROOT
HETATM    1  C1  UNL     1      23.498   3.687  53.273  1.00  0.00     0.042 C 
HETATM    2  C2  UNL     1      24.435   2.880  52.812  1.00  0.00     0.019 C 
HETATM    3  C3  UNL     1      24.604   1.498  53.055  1.00  0.00     0.047 C 
HETATM    4  C4  UNL     1      24.824   0.235  53.233  1.00  0.00     0.012 C 
HETATM    5 BR1  UNL     1      26.383  -0.455  52.418  1.00  0.00    -0.051 Br
HETATM    6  C5  UNL     1      24.033  -0.893  53.784  1.00  0.00     0.017 C 
HETATM    7  C6  UNL     1      22.773  -0.824  54.256  1.00  0.00    -0.004 C 
HETATM    8  C7  UNL     1      21.577   0.036  54.536  1.00  0.00     0.177 C 
HETATM    9  N1  UNL     1      20.459  -0.424  53.679  1.00  0.00    -0.279 NA
HETATM   10  C8  UNL     1      20.597  -0.133  52.382  1.00  0.00     0.228 C 
HETATM   11  N2  UNL     1      21.393   0.466  51.366  1.00  0.00    -0.238 NA
HETATM   12  C9  UNL     1      21.644   1.749  51.391  1.00  0.00     0.208 C 
HETATM   13  N3  UNL     1      22.365   2.733  50.616  1.00  0.00    -0.353 N 
HETATM   14  C10 UNL     1      23.698   3.011  50.121  1.00  0.00     0.024 C 
HETATM   15  C11 UNL     1      23.646   3.506  48.861  1.00  0.00     0.001 C 
HETATM   16  C19 UNL     1      25.079   2.877  50.667  1.00  0.00     0.176 C 
HETATM   17  N4  UNL     1      25.292   3.607  51.900  1.00  0.00    -0.385 N 
HETATM   18  H10 UNL     1      21.672   3.496  50.329  1.00  0.00     0.166 HD
HETATM   19  H21 UNL     1      25.742   4.376  52.449  1.00  0.00     0.160 HD
ENDROOT
BRANCH  15  20
HETATM   20  C12 UNL     1      22.667   3.867  47.807  1.00  0.00     0.041 C 
BRANCH  20  21
HETATM   21  C13 UNL     1      22.106   5.240  48.056  1.00  0.00     0.035 C 
HETATM   22  C14 UNL     1      21.326   5.701  46.899  1.00  0.00    -0.006 C 
HETATM   23  C15 UNL     1      21.917   6.382  45.961  1.00  0.00    -0.029 C 
HETATM   24  C16 UNL     1      23.050   6.982  46.181  1.00  0.00     0.011 C 
HETATM   25  C17 UNL     1      23.695   6.973  47.454  1.00  0.00    -0.002 C 
HETATM   26  C18 UNL     1      23.262   6.147  48.380  1.00  0.00    -0.018 C 
ENDBRANCH  20  21
ENDBRANCH  15  20
TORSDOF 2
ENDMDL
