MODEL 1
REMARK VINA RESULT:      -8.7      0.000      0.000
REMARK  0 active torsions:
REMARK  status: ('A' for Active; 'I' for Inactive)
ROOT
HETATM    1  C1  UNL     1      21.278   0.568  52.674  1.00  0.00     0.046 A 
HETATM    2  C2  UNL     1      21.814   1.497  51.828  1.00  0.00     0.030 A 
HETATM    3  C3  UNL     1      20.709   0.985  51.110  1.00  0.00     0.069 A 
HETATM    4 CL1  UNL     1      19.287   0.020  50.859  1.00  0.00    -0.114 Cl
HETATM    5  C4  UNL     1      20.865   1.701  49.974  1.00  0.00     0.029 C 
HETATM    6  C5  UNL     1      20.608   2.218  48.620  1.00  0.00     0.027 C 
HETATM    7  C6  UNL     1      20.453   2.734  47.404  1.00  0.00     0.029 C 
HETATM    8  C7  UNL     1      21.554   3.615  47.102  1.00  0.00     0.011 C 
HETATM    9  C8  UNL     1      22.604   3.936  47.809  1.00  0.00     0.075 C 
HETATM   10  S1  UNL     1      23.918   4.205  48.950  1.00  0.00     0.017 SA
HETATM   11  O1  UNL     1      24.151   2.842  49.955  1.00  0.00    -0.311 OA
HETATM   12  C9  UNL     1      25.186   2.982  50.859  1.00  0.00     0.225 C 
HETATM   13  C10 UNL     1      25.254   1.745  51.692  1.00  0.00    -0.021 A 
HETATM   14  C11 UNL     1      26.455   1.008  51.648  1.00  0.00     0.010 A 
HETATM   15  C12 UNL     1      26.691  -0.143  52.370  1.00  0.00     0.004 A 
HETATM   16  C13 UNL     1      25.636  -0.551  53.175  1.00  0.00     0.043 A 
HETATM   17  C14 UNL     1      24.472   0.152  53.227  1.00  0.00     0.125 A 
HETATM   18  F1  UNL     1      23.594  -0.398  54.078  1.00  0.00    -0.205 F 
HETATM   19  C15 UNL     1      24.213   1.300  52.515  1.00  0.00     0.019 A 
HETATM   20  C16 UNL     1      22.970   2.033  52.580  1.00  0.00     0.178 C 
HETATM   21  O2  UNL     1      23.050   3.429  52.223  1.00  0.00    -0.334 OA
HETATM   22  C17 UNL     1      21.971   4.241  52.712  1.00  0.00     0.253 C 
HETATM   23  N1  UNL     1      21.107   3.933  51.891  1.00  0.00    -0.231 NA
HETATM   24  C18 UNL     1      19.786   4.227  51.608  1.00  0.00     0.230 C 
HETATM   25  N2  UNL     1      19.746   3.537  50.567  1.00  0.00    -0.263 NA
HETATM   26  C19 UNL     1      18.804   3.213  49.579  1.00  0.00     0.272 C 
HETATM   27  N3  UNL     1      19.195   1.911  48.913  1.00  0.00    -0.372 N 
HETATM   28  H17 UNL     1      18.766   1.007  48.637  1.00  0.00     0.161 HD
ENDROOT
TORSDOF 0
ENDMDL
MODEL 2
REMARK VINA RESULT:      -8.4      3.165      4.216
REMARK  0 active torsions:
REMARK  status: ('A' for Active; 'I' for Inactive)
ROOT
HETATM    1  C1  UNL     1      23.959   2.473  49.783  1.00  0.00     0.046 A 
HETATM    2  C2  UNL     1      23.462   3.735  49.940  1.00  0.00     0.030 A 
HETATM    3  C3  UNL     1      22.433   3.051  49.252  1.00  0.00     0.069 A 
HETATM    4 CL1  UNL     1      21.643   1.685  48.529  1.00  0.00    -0.114 Cl
HETATM    5  C4  UNL     1      21.569   4.082  49.118  1.00  0.00     0.029 C 
HETATM    6  C5  UNL     1      20.355   4.829  48.751  1.00  0.00     0.027 C 
HETATM    7  C6  UNL     1      19.298   5.579  48.451  1.00  0.00     0.029 C 
HETATM    8  C7  UNL     1      19.551   6.950  48.821  1.00  0.00     0.011 C 
HETATM    9  C8  UNL     1      20.603   7.504  49.358  1.00  0.00     0.075 C 
HETATM   10  S1  UNL     1      22.129   8.007  50.079  1.00  0.00     0.017 SA
HETATM   11  O1  UNL     1      23.412   6.998  49.571  1.00  0.00    -0.311 OA
HETATM   12  C9  UNL     1      24.644   7.355  50.086  1.00  0.00     0.225 C 
HETATM   13  C10 UNL     1      25.659   6.375  49.597  1.00  0.00    -0.021 A 
HETATM   14  C11 UNL     1      26.725   6.887  48.830  1.00  0.00     0.010 A 
HETATM   15  C12 UNL     1      27.756   6.125  48.320  1.00  0.00     0.004 A 
HETATM   16  C13 UNL     1      27.681   4.771  48.619  1.00  0.00     0.043 A 
HETATM   17  C14 UNL     1      26.658   4.266  49.360  1.00  0.00     0.125 A 
HETATM   18  F1  UNL     1      26.786   2.945  49.551  1.00  0.00    -0.205 F 
HETATM   19  C15 UNL     1      25.619   5.004  49.877  1.00  0.00     0.019 A 
HETATM   20  C16 UNL     1      24.539   4.451  50.659  1.00  0.00     0.178 C 
HETATM   21  O2  UNL     1      23.868   5.377  51.539  1.00  0.00    -0.334 OA
HETATM   22  C17 UNL     1      23.138   4.769  52.616  1.00  0.00     0.253 C 
HETATM   23  N1  UNL     1      22.138   4.409  51.996  1.00  0.00    -0.231 NA
HETATM   24  C18 UNL     1      20.943   3.754  52.235  1.00  0.00     0.230 C 
HETATM   25  N2  UNL     1      20.509   3.901  51.072  1.00  0.00    -0.263 NA
HETATM   26  C19 UNL     1      19.356   3.561  50.350  1.00  0.00     0.272 C 
HETATM   27  N3  UNL     1      19.675   3.524  48.871  1.00  0.00    -0.372 N 
HETATM   28  H17 UNL     1      19.532   2.908  48.048  1.00  0.00     0.161 HD
ENDROOT
TORSDOF 0
ENDMDL
MODEL 3
REMARK VINA RESULT:      -8.1      2.957      4.914
REMARK  0 active torsions:
REMARK  status: ('A' for Active; 'I' for Inactive)
ROOT
HETATM    1  C1  UNL     1      23.227   2.272  52.583  1.00  0.00     0.046 A 
HETATM    2  C2  UNL     1      22.377   2.736  51.620  1.00  0.00     0.030 A 
HETATM    3  C3  UNL     1      22.843   3.911  52.252  1.00  0.00     0.069 A 
HETATM    4 CL1  UNL     1      23.802   4.846  53.358  1.00  0.00    -0.114 Cl
HETATM    5  C4  UNL     1      22.126   4.811  51.544  1.00  0.00     0.029 C 
HETATM    6  C5  UNL     1      21.610   6.109  51.078  1.00  0.00     0.027 C 
HETATM    7  C6  UNL     1      21.088   7.237  50.602  1.00  0.00     0.029 C 
HETATM    8  C7  UNL     1      20.077   6.931  49.622  1.00  0.00     0.011 C 
HETATM    9  C8  UNL     1      19.636   5.782  49.186  1.00  0.00     0.075 C 
HETATM   10  S1  UNL     1      19.218   4.124  48.767  1.00  0.00     0.017 SA
HETATM   11  O1  UNL     1      19.494   3.067  50.083  1.00  0.00    -0.311 OA
HETATM   12  C9  UNL     1      19.164   1.751  49.824  1.00  0.00     0.225 C 
HETATM   13  C10 UNL     1      19.488   0.939  51.034  1.00  0.00    -0.021 A 
HETATM   14  C11 UNL     1      18.423   0.250  51.648  1.00  0.00     0.010 A 
HETATM   15  C12 UNL     1      18.554  -0.559  52.758  1.00  0.00     0.004 A 
HETATM   16  C13 UNL     1      19.845  -0.661  53.255  1.00  0.00     0.043 A 
HETATM   17  C14 UNL     1      20.883  -0.002  52.670  1.00  0.00     0.125 A 
HETATM   18  F1  UNL     1      22.045  -0.252  53.290  1.00  0.00    -0.205 F 
HETATM   19  C15 UNL     1      20.777   0.811  51.566  1.00  0.00     0.019 A 
HETATM   20  C16 UNL     1      21.889   1.505  50.959  1.00  0.00     0.178 C 
HETATM   21  O2  UNL     1      21.723   1.853  49.568  1.00  0.00    -0.334 OA
HETATM   22  C17 UNL     1      22.944   2.112  48.859  1.00  0.00     0.253 C 
HETATM   23  N1  UNL     1      23.169   3.251  49.266  1.00  0.00    -0.231 NA
HETATM   24  C18 UNL     1      24.118   4.245  49.110  1.00  0.00     0.230 C 
HETATM   25  N2  UNL     1      23.513   5.079  49.818  1.00  0.00    -0.263 NA
HETATM   26  C19 UNL     1      23.707   6.399  50.252  1.00  0.00     0.272 C 
HETATM   27  N3  UNL     1      22.916   6.638  51.519  1.00  0.00    -0.372 N 
HETATM   28  H17 UNL     1      23.047   7.041  52.467  1.00  0.00     0.161 HD
ENDROOT
TORSDOF 0
ENDMDL
MODEL 4
REMARK VINA RESULT:      -8.1      8.818     10.866
REMARK  0 active torsions:
REMARK  status: ('A' for Active; 'I' for Inactive)
ROOT
HETATM    1  C1  UNL     1      30.324   6.960  47.697  1.00  0.00     0.046 A 
HETATM    2  C2  UNL     1      29.413   7.977  47.647  1.00  0.00     0.030 A 
HETATM    3  C3  UNL     1      30.570   8.587  48.185  1.00  0.00     0.069 A 
HETATM    4 CL1  UNL     1      32.227   8.672  48.699  1.00  0.00    -0.114 Cl
HETATM    5  C4  UNL     1      30.068   9.827  48.374  1.00  0.00     0.029 C 
HETATM    6  C5  UNL     1      30.004  11.251  48.739  1.00  0.00     0.027 C 
HETATM    7  C6  UNL     1      29.858  12.537  49.048  1.00  0.00     0.029 C 
HETATM    8  C7  UNL     1      28.487  12.935  48.849  1.00  0.00     0.011 C 
HETATM    9  C8  UNL     1      27.452  12.247  48.448  1.00  0.00     0.075 C 
HETATM   10  S1  UNL     1      26.227  11.113  47.890  1.00  0.00     0.017 SA
HETATM   11  O1  UNL     1      26.603   9.514  48.368  1.00  0.00    -0.311 OA
HETATM   12  C9  UNL     1      25.665   8.577  47.979  1.00  0.00     0.225 C 
HETATM   13  C10 UNL     1      26.134   7.231  48.424  1.00  0.00    -0.021 A 
HETATM   14  C11 UNL     1      25.299   6.524  49.312  1.00  0.00     0.010 A 
HETATM   15  C12 UNL     1      25.572   5.263  49.802  1.00  0.00     0.004 A 
HETATM   16  C13 UNL     1      26.762   4.709  49.351  1.00  0.00     0.043 A 
HETATM   17  C14 UNL     1      27.576   5.382  48.492  1.00  0.00     0.125 A 
HETATM   18  F1  UNL     1      28.660   4.663  48.167  1.00  0.00    -0.205 F 
HETATM   19  C15 UNL     1      27.327   6.638  47.993  1.00  0.00     0.019 A 
HETATM   20  C16 UNL     1      28.203   7.340  47.083  1.00  0.00     0.178 C 
HETATM   21  O2  UNL     1      27.575   8.352  46.269  1.00  0.00    -0.334 OA
HETATM   22  C17 UNL     1      28.304   8.713  45.085  1.00  0.00     0.253 C 
HETATM   23  N1  UNL     1      29.153   9.444  45.593  1.00  0.00    -0.231 NA
HETATM   24  C18 UNL     1      30.240  10.206  45.205  1.00  0.00     0.230 C 
HETATM   25  N2  UNL     1      30.456  10.670  46.345  1.00  0.00    -0.263 NA
HETATM   26  C19 UNL     1      31.370  11.547  46.947  1.00  0.00     0.272 C 
HETATM   27  N3  UNL     1      31.448  11.260  48.431  1.00  0.00    -0.372 N 
HETATM   28  H17 UNL     1      32.162  11.113  49.169  1.00  0.00     0.161 HD
ENDROOT
TORSDOF 0
ENDMDL
MODEL 5
REMARK VINA RESULT:      -8.0      2.800      4.442
REMARK  0 active torsions:
REMARK  status: ('A' for Active; 'I' for Inactive)
ROOT
HETATM    1  C1  UNL     1      24.274   2.155  50.933  1.00  0.00     0.046 A 
HETATM    2  C2  UNL     1      22.944   2.373  50.708  1.00  0.00     0.030 A 
HETATM    3  C3  UNL     1      23.521   3.659  50.591  1.00  0.00     0.069 A 
HETATM    4 CL1  UNL     1      24.809   4.823  50.538  1.00  0.00    -0.114 Cl
HETATM    5  C4  UNL     1      22.389   4.361  50.364  1.00  0.00     0.029 C 
HETATM    6  C5  UNL     1      21.504   5.504  50.088  1.00  0.00     0.027 C 
HETATM    7  C6  UNL     1      20.633   6.481  49.847  1.00  0.00     0.029 C 
HETATM    8  C7  UNL     1      19.290   5.958  49.886  1.00  0.00     0.011 C 
HETATM    9  C8  UNL     1      18.855   4.750  50.120  1.00  0.00     0.075 C 
HETATM   10  S1  UNL     1      18.526   3.054  50.464  1.00  0.00     0.017 SA
HETATM   11  O1  UNL     1      19.747   2.378  51.452  1.00  0.00    -0.311 OA
HETATM   12  C9  UNL     1      19.534   1.052  51.777  1.00  0.00     0.225 C 
HETATM   13  C10 UNL     1      20.685   0.581  52.604  1.00  0.00    -0.021 A 
HETATM   14  C11 UNL     1      20.393   0.116  53.902  1.00  0.00     0.010 A 
HETATM   15  C12 UNL     1      21.333  -0.373  54.786  1.00  0.00     0.004 A 
HETATM   16  C13 UNL     1      22.634  -0.381  54.305  1.00  0.00     0.043 A 
HETATM   17  C14 UNL     1      22.929   0.064  53.052  1.00  0.00     0.125 A 
HETATM   18  F1  UNL     1      24.236  -0.049  52.778  1.00  0.00    -0.205 F 
HETATM   19  C15 UNL     1      22.011   0.557  52.155  1.00  0.00     0.019 A 
HETATM   20  C16 UNL     1      22.341   1.028  50.830  1.00  0.00     0.178 C 
HETATM   21  O2  UNL     1      21.263   0.998  49.871  1.00  0.00    -0.334 OA
HETATM   22  C17 UNL     1      21.677   1.019  48.496  1.00  0.00     0.253 C 
HETATM   23  N1  UNL     1      21.933   2.217  48.386  1.00  0.00    -0.231 NA
HETATM   24  C18 UNL     1      22.388   3.102  47.426  1.00  0.00     0.230 C 
HETATM   25  N2  UNL     1      22.267   4.114  48.150  1.00  0.00    -0.263 NA
HETATM   26  C19 UNL     1      22.489   5.494  48.041  1.00  0.00     0.272 C 
HETATM   27  N3  UNL     1      22.683   6.088  49.419  1.00  0.00    -0.372 N 
HETATM   28  H17 UNL     1      23.332   6.725  49.920  1.00  0.00     0.161 HD
ENDROOT
TORSDOF 0
ENDMDL
MODEL 6
REMARK VINA RESULT:      -8.0      3.197      5.397
REMARK  0 active torsions:
REMARK  status: ('A' for Active; 'I' for Inactive)
ROOT
HETATM    1  C1  UNL     1      20.777   4.793  50.296  1.00  0.00     0.046 A 
HETATM    2  C2  UNL     1      21.961   4.116  50.375  1.00  0.00     0.030 A 
HETATM    3  C3  UNL     1      21.165   3.522  51.382  1.00  0.00     0.069 A 
HETATM    4 CL1  UNL     1      19.724   3.246  52.311  1.00  0.00    -0.114 Cl
HETATM    5  C4  UNL     1      22.079   2.649  51.862  1.00  0.00     0.029 C 
HETATM    6  C5  UNL     1      22.670   1.581  52.684  1.00  0.00     0.027 C 
HETATM    7  C6  UNL     1      23.284   0.630  53.383  1.00  0.00     0.029 C 
HETATM    8  C7  UNL     1      24.668   0.546  52.985  1.00  0.00     0.011 C 
HETATM    9  C8  UNL     1      25.342   1.236  52.105  1.00  0.00     0.075 C 
HETATM   10  S1  UNL     1      26.021   2.297  50.875  1.00  0.00     0.017 SA
HETATM   11  O1  UNL     1      25.197   3.794  50.829  1.00  0.00    -0.311 OA
HETATM   12  C9  UNL     1      25.698   4.682  49.896  1.00  0.00     0.225 C 
HETATM   13  C10 UNL     1      24.869   5.923  49.936  1.00  0.00    -0.021 A 
HETATM   14  C11 UNL     1      25.531   7.125  50.257  1.00  0.00     0.010 A 
HETATM   15  C12 UNL     1      24.919   8.361  50.316  1.00  0.00     0.004 A 
HETATM   16  C13 UNL     1      23.561   8.352  50.028  1.00  0.00     0.043 A 
HETATM   17  C14 UNL     1      22.911   7.197  49.716  1.00  0.00     0.125 A 
HETATM   18  F1  UNL     1      21.614   7.411  49.453  1.00  0.00    -0.205 F 
HETATM   19  C15 UNL     1      23.498   5.955  49.653  1.00  0.00     0.019 A 
HETATM   20  C16 UNL     1      22.793   4.739  49.322  1.00  0.00     0.178 C 
HETATM   21  O2  UNL     1      23.606   3.672  48.790  1.00  0.00    -0.334 OA
HETATM   22  C17 UNL     1      22.885   2.672  48.052  1.00  0.00     0.253 C 
HETATM   23  N1  UNL     1      22.413   2.037  48.994  1.00  0.00    -0.231 NA
HETATM   24  C18 UNL     1      21.604   0.935  49.207  1.00  0.00     0.230 C 
HETATM   25  N2  UNL     1      21.720   0.960  50.451  1.00  0.00    -0.263 NA
HETATM   26  C19 UNL     1      21.249   0.220  51.547  1.00  0.00     0.272 C 
HETATM   27  N3  UNL     1      21.287   1.078  52.792  1.00  0.00    -0.372 N 
HETATM   28  H17 UNL     1      20.675   1.338  53.590  1.00  0.00     0.161 HD
ENDROOT
TORSDOF 0
ENDMDL
MODEL 7
REMARK VINA RESULT:      -7.8      9.953     11.834
REMARK  0 active torsions:
REMARK  status: ('A' for Active; 'I' for Inactive)
ROOT
HETATM    1  C1  UNL     1      32.452  10.665  47.584  1.00  0.00     0.046 A 
HETATM    2  C2  UNL     1      31.522   9.664  47.606  1.00  0.00     0.030 A 
HETATM    3  C3  UNL     1      30.933  10.689  48.382  1.00  0.00     0.069 A 
HETATM    4 CL1  UNL     1      30.810  12.265  49.102  1.00  0.00    -0.114 Cl
HETATM    5  C4  UNL     1      29.796  10.044  48.727  1.00  0.00     0.029 C 
HETATM    6  C5  UNL     1      28.477   9.796  49.330  1.00  0.00     0.027 C 
HETATM    7  C6  UNL     1      27.289   9.485  49.844  1.00  0.00     0.029 C 
HETATM    8  C7  UNL     1      26.976   8.109  49.553  1.00  0.00     0.011 C 
HETATM    9  C8  UNL     1      27.657   7.199  48.912  1.00  0.00     0.075 C 
HETATM   10  S1  UNL     1      28.763   6.163  48.014  1.00  0.00     0.017 SA
HETATM   11  O1  UNL     1      30.386   6.650  48.241  1.00  0.00    -0.311 OA
HETATM   12  C9  UNL     1      31.306   5.860  47.579  1.00  0.00     0.225 C 
HETATM   13  C10 UNL     1      32.669   6.416  47.830  1.00  0.00    -0.021 A 
HETATM   14  C11 UNL     1      33.598   5.571  48.468  1.00  0.00     0.010 A 
HETATM   15  C12 UNL     1      34.902   5.920  48.755  1.00  0.00     0.004 A 
HETATM   16  C13 UNL     1      35.261   7.201  48.362  1.00  0.00     0.043 A 
HETATM   17  C14 UNL     1      34.373   8.027  47.743  1.00  0.00     0.125 A 
HETATM   18  F1  UNL     1      34.925   9.207  47.429  1.00  0.00    -0.205 F 
HETATM   19  C15 UNL     1      33.069   7.703  47.449  1.00  0.00     0.019 A 
HETATM   20  C16 UNL     1      32.139   8.592  46.794  1.00  0.00     0.178 C 
HETATM   21  O2  UNL     1      31.046   7.953  46.103  1.00  0.00    -0.334 OA
HETATM   22  C17 UNL     1      30.408   8.760  45.101  1.00  0.00     0.253 C 
HETATM   23  N1  UNL     1      29.719   9.471  45.832  1.00  0.00    -0.231 NA
HETATM   24  C18 UNL     1      28.811  10.508  45.722  1.00  0.00     0.230 C 
HETATM   25  N2  UNL     1      28.556  10.553  46.945  1.00  0.00    -0.263 NA
HETATM   26  C19 UNL     1      27.736  11.304  47.801  1.00  0.00     0.272 C 
HETATM   27  N3  UNL     1      28.292  11.255  49.207  1.00  0.00    -0.372 N 
HETATM   28  H17 UNL     1      28.517  11.899  49.990  1.00  0.00     0.161 HD
ENDROOT
TORSDOF 0
ENDMDL
MODEL 8
REMARK VINA RESULT:      -7.7      8.773     10.319
REMARK  0 active torsions:
REMARK  status: ('A' for Active; 'I' for Inactive)
ROOT
HETATM    1  C1  UNL     1      29.677   5.536  48.529  1.00  0.00     0.046 A 
HETATM    2  C2  UNL     1      29.792   6.661  47.762  1.00  0.00     0.030 A 
HETATM    3  C3  UNL     1      28.395   6.493  47.906  1.00  0.00     0.069 A 
HETATM    4 CL1  UNL     1      26.937   5.762  48.501  1.00  0.00    -0.114 Cl
HETATM    5  C4  UNL     1      27.994   7.539  47.150  1.00  0.00     0.029 C 
HETATM    6  C5  UNL     1      27.100   8.498  46.482  1.00  0.00     0.027 C 
HETATM    7  C6  UNL     1      26.365   9.403  45.840  1.00  0.00     0.029 C 
HETATM    8  C7  UNL     1      27.221  10.262  45.059  1.00  0.00     0.011 C 
HETATM    9  C8  UNL     1      28.517  10.258  44.906  1.00  0.00     0.075 C 
HETATM   10  S1  UNL     1      30.264  10.042  44.866  1.00  0.00     0.017 SA
HETATM   11  O1  UNL     1      30.690   8.407  45.130  1.00  0.00    -0.311 OA
HETATM   12  C9  UNL     1      32.050   8.168  45.088  1.00  0.00     0.225 C 
HETATM   13  C10 UNL     1      32.281   6.720  45.371  1.00  0.00    -0.021 A 
HETATM   14  C11 UNL     1      32.926   5.967  44.370  1.00  0.00     0.010 A 
HETATM   15  C12 UNL     1      33.234   4.626  44.479  1.00  0.00     0.004 A 
HETATM   16  C13 UNL     1      32.859   4.039  45.679  1.00  0.00     0.043 A 
HETATM   17  C14 UNL     1      32.236   4.756  46.654  1.00  0.00     0.125 A 
HETATM   18  F1  UNL     1      31.979   4.008  47.736  1.00  0.00    -0.205 F 
HETATM   19  C15 UNL     1      31.917   6.091  46.568  1.00  0.00     0.019 A 
HETATM   20  C16 UNL     1      31.253   6.837  47.611  1.00  0.00     0.178 C 
HETATM   21  O2  UNL     1      31.472   8.263  47.594  1.00  0.00    -0.334 OA
HETATM   22  C17 UNL     1      31.215   8.929  48.841  1.00  0.00     0.253 C 
HETATM   23  N1  UNL     1      29.987   8.972  48.790  1.00  0.00    -0.231 NA
HETATM   24  C18 UNL     1      28.927   9.427  49.553  1.00  0.00     0.230 C 
HETATM   25  N2  UNL     1      28.055   9.134  48.707  1.00  0.00    -0.263 NA
HETATM   26  C19 UNL     1      26.660   9.223  48.590  1.00  0.00     0.272 C 
HETATM   27  N3  UNL     1      26.169   8.201  47.588  1.00  0.00    -0.372 N 
HETATM   28  H17 UNL     1      25.435   7.471  47.500  1.00  0.00     0.161 HD
ENDROOT
TORSDOF 0
ENDMDL
MODEL 9
REMARK VINA RESULT:      -7.6     10.172     11.774
REMARK  0 active torsions:
REMARK  status: ('A' for Active; 'I' for Inactive)
ROOT
HETATM    1  C1  UNL     1      29.389   6.528  47.420  1.00  0.00     0.046 A 
HETATM    2  C2  UNL     1      30.468   7.363  47.353  1.00  0.00     0.030 A 
HETATM    3  C3  UNL     1      29.448   8.077  46.683  1.00  0.00     0.069 A 
HETATM    4 CL1  UNL     1      27.841   8.375  46.097  1.00  0.00    -0.114 Cl
HETATM    5  C4  UNL     1      30.170   9.164  46.331  1.00  0.00     0.029 C 
HETATM    6  C5  UNL     1      30.495  10.480  45.758  1.00  0.00     0.027 C 
HETATM    7  C6  UNL     1      30.876  11.656  45.265  1.00  0.00     0.029 C 
HETATM    8  C7  UNL     1      32.295  11.829  45.456  1.00  0.00     0.011 C 
HETATM    9  C8  UNL     1      33.182  11.039  45.997  1.00  0.00     0.075 C 
HETATM   10  S1  UNL     1      34.174   9.805  46.768  1.00  0.00     0.017 SA
HETATM   11  O1  UNL     1      33.519   8.245  46.521  1.00  0.00    -0.311 OA
HETATM   12  C9  UNL     1      34.267   7.228  47.084  1.00  0.00     0.225 C 
HETATM   13  C10 UNL     1      33.566   5.934  46.828  1.00  0.00    -0.021 A 
HETATM   14  C11 UNL     1      34.269   4.961  46.090  1.00  0.00     0.010 A 
HETATM   15  C12 UNL     1      33.778   3.708  45.785  1.00  0.00     0.004 A 
HETATM   16  C13 UNL     1      32.502   3.451  46.266  1.00  0.00     0.043 A 
HETATM   17  C14 UNL     1      31.813   4.382  46.981  1.00  0.00     0.125 A 
HETATM   18  F1  UNL     1      30.613   3.927  47.367  1.00  0.00    -0.205 F 
HETATM   19  C15 UNL     1      32.281   5.637  47.295  1.00  0.00     0.019 A 
HETATM   20  C16 UNL     1      31.536   6.615  48.053  1.00  0.00     0.178 C 
HETATM   21  O2  UNL     1      32.327   7.613  48.731  1.00  0.00    -0.334 OA
HETATM   22  C17 UNL     1      31.662   8.278  49.817  1.00  0.00     0.253 C 
HETATM   23  N1  UNL     1      30.966   9.060  49.171  1.00  0.00    -0.231 NA
HETATM   24  C18 UNL     1      30.031  10.054  49.397  1.00  0.00     0.230 C 
HETATM   25  N2  UNL     1      29.917  10.366  48.192  1.00  0.00    -0.263 NA
HETATM   26  C19 UNL     1      29.185  11.288  47.429  1.00  0.00     0.272 C 
HETATM   27  N3  UNL     1      29.074  10.792  46.004  1.00  0.00    -0.372 N 
HETATM   28  H17 UNL     1      28.353  10.662  45.268  1.00  0.00     0.161 HD
ENDROOT
TORSDOF 0
ENDMDL
