MODEL 1
REMARK VINA RESULT:      -7.4      0.000      0.000
REMARK  8 active torsions:
REMARK  status: ('A' for Active; 'I' for Inactive)
REMARK    1  A    between atoms: C4_4  and  C5_5 
REMARK    2  A    between atoms: C5_5  and  C6_6 
REMARK    3  A    between atoms: C6_6  and  C7_7 
REMARK    4  A    between atoms: C7_7  and  N1_9 
REMARK    5  A    between atoms: N1_9  and  C9_10 
REMARK    6  A    between atoms: C13_16  and  O1_17 
REMARK    7  A    between atoms: O1_17  and  C14_18 
REMARK    8  A    between atoms: C14_18  and  C15_19 
ROOT
HETATM    1  C1  UNL     1      12.881  -5.336  51.434  1.00  0.00     0.017 C 
HETATM    2  C2  UNL     1      13.820  -4.723  51.888  1.00  0.00    -0.090 C 
HETATM    3  C3  UNL     1      14.933  -4.015  52.441  1.00  0.00     0.060 C 
HETATM    4  C4  UNL     1      15.862  -4.781  53.065  1.00  0.00    -0.008 C 
ENDROOT
BRANCH   4   5
HETATM    5  C5  UNL     1      16.900  -3.895  53.551  1.00  0.00     0.045 C 
BRANCH   5   6
HETATM    6  C6  UNL     1      17.856  -3.031  53.749  1.00  0.00     0.011 C 
BRANCH   6   7
HETATM    7  C7  UNL     1      18.246  -1.624  53.468  1.00  0.00     0.021 C 
HETATM    8  C8  UNL     1      17.292  -0.852  53.121  1.00  0.00     0.042 C 
BRANCH   7   9
HETATM    9  N1  UNL     1      19.576  -1.302  53.626  1.00  0.00    -0.341 N 
HETATM   10  H8  UNL     1      19.795  -2.354  53.658  1.00  0.00     0.167 HD
BRANCH   9  11
HETATM   11  C9  UNL     1      20.924  -1.004  53.786  1.00  0.00     0.144 A 
HETATM   12  N2  UNL     1      21.378  -1.643  54.884  1.00  0.00    -0.223 NA
HETATM   13  C10 UNL     1      22.665  -1.528  55.279  1.00  0.00     0.236 A 
HETATM   14  N3  UNL     1      23.481  -0.756  54.550  1.00  0.00    -0.241 NA
HETATM   15  C11 UNL     1      23.070  -0.111  53.469  1.00  0.00     0.077 A 
HETATM   16  C12 UNL     1      23.869   0.714  52.698  1.00  0.00     0.072 A 
HETATM   17  C21 UNL     1      21.767  -0.214  53.043  1.00  0.00     0.075 A 
HETATM   18  C13 UNL     1      23.469   1.415  51.571  1.00  0.00     0.107 A 
HETATM   19  C19 UNL     1      22.105   1.223  51.237  1.00  0.00     0.136 A 
HETATM   20  C20 UNL     1      21.230   0.417  51.953  1.00  0.00     0.121 A 
HETATM   21  O4  UNL     1      21.479   1.831  50.131  1.00  0.00    -0.344 OA
HETATM   22  O3  UNL     1      19.902   0.239  51.634  1.00  0.00    -0.345 OA
HETATM   23  C22 UNL     1      19.273   0.851  50.513  1.00  0.00     0.202 C 
HETATM   24  C23 UNL     1      20.396   1.113  49.522  1.00  0.00     0.202 C 
BRANCH  18  25
HETATM   25  O1  UNL     1      24.055   2.225  50.721  1.00  0.00    -0.346 OA
BRANCH  25  26
HETATM   26  C14 UNL     1      24.834   3.314  50.602  1.00  0.00     0.207 C 
BRANCH  26  27
HETATM   27  C15 UNL     1      24.133   4.575  51.085  1.00  0.00     0.145 C 
HETATM   28  C16 UNL     1      22.984   4.962  50.187  1.00  0.00     0.036 C 
HETATM   29  C17 UNL     1      22.082   5.713  51.167  1.00  0.00     0.029 C 
HETATM   30  C18 UNL     1      22.303   4.831  52.382  1.00  0.00     0.168 C 
HETATM   31  O2  UNL     1      23.652   4.515  52.347  1.00  0.00    -0.384 OA
ENDBRANCH  26  27
ENDBRANCH  25  26
ENDBRANCH  18  25
ENDBRANCH   9  11
ENDBRANCH   7   9
ENDBRANCH   6   7
ENDBRANCH   5   6
ENDBRANCH   4   5
TORSDOF 8
ENDMDL
MODEL 2
REMARK VINA RESULT:      -7.2      2.235      8.933
REMARK  8 active torsions:
REMARK  status: ('A' for Active; 'I' for Inactive)
REMARK    1  A    between atoms: C4_4  and  C5_5 
REMARK    2  A    between atoms: C5_5  and  C6_6 
REMARK    3  A    between atoms: C6_6  and  C7_7 
REMARK    4  A    between atoms: C7_7  and  N1_9 
REMARK    5  A    between atoms: N1_9  and  C9_10 
REMARK    6  A    between atoms: C13_16  and  O1_17 
REMARK    7  A    between atoms: O1_17  and  C14_18 
REMARK    8  A    between atoms: C14_18  and  C15_19 
ROOT
HETATM    1  C1  UNL     1      28.415   5.618  48.128  1.00  0.00     0.017 C 
HETATM    2  C2  UNL     1      27.493   5.150  48.758  1.00  0.00    -0.090 C 
HETATM    3  C3  UNL     1      26.406   4.578  49.490  1.00  0.00     0.060 C 
HETATM    4  C4  UNL     1      26.439   3.230  49.628  1.00  0.00    -0.008 C 
ENDROOT
BRANCH   4   5
HETATM    5  C5  UNL     1      25.271   2.842  50.391  1.00  0.00     0.045 C 
BRANCH   5   6
HETATM    6  C6  UNL     1      24.370   2.321  51.178  1.00  0.00     0.011 C 
BRANCH   6   7
HETATM    7  C7  UNL     1      23.699   2.519  52.489  1.00  0.00     0.021 C 
HETATM    8  C8  UNL     1      23.840   3.677  53.006  1.00  0.00     0.042 C 
BRANCH   7   9
HETATM    9  N1  UNL     1      22.990   1.451  52.994  1.00  0.00    -0.341 N 
HETATM   10  H8  UNL     1      22.121   2.082  53.024  1.00  0.00     0.167 HD
BRANCH   9  11
HETATM   11  C9  UNL     1      22.253   0.390  53.505  1.00  0.00     0.144 A 
HETATM   12  N2  UNL     1      23.024  -0.287  54.381  1.00  0.00    -0.223 NA
HETATM   13  C10 UNL     1      22.555  -1.376  55.030  1.00  0.00     0.236 A 
HETATM   14  N3  UNL     1      21.300  -1.769  54.776  1.00  0.00    -0.241 NA
HETATM   15  C11 UNL     1      20.516  -1.132  53.920  1.00  0.00     0.077 A 
HETATM   16  C12 UNL     1      19.223  -1.514  53.609  1.00  0.00     0.072 A 
HETATM   17  C21 UNL     1      20.966  -0.020  53.249  1.00  0.00     0.075 A 
HETATM   18  C13 UNL     1      18.381  -0.881  52.708  1.00  0.00     0.107 A 
HETATM   19  C19 UNL     1      18.963   0.252  52.086  1.00  0.00     0.136 A 
HETATM   20  C20 UNL     1      20.252   0.706  52.334  1.00  0.00     0.121 A 
HETATM   21  O4  UNL     1      18.294   1.052  51.139  1.00  0.00    -0.344 OA
HETATM   22  O3  UNL     1      20.820   1.800  51.722  1.00  0.00    -0.345 OA
HETATM   23  C22 UNL     1      20.140   2.611  50.769  1.00  0.00     0.202 C 
HETATM   24  C23 UNL     1      18.663   2.439  51.084  1.00  0.00     0.202 C 
BRANCH  18  25
HETATM   25  O1  UNL     1      17.155  -1.075  52.285  1.00  0.00    -0.346 OA
BRANCH  25  26
HETATM   26  C14 UNL     1      15.854  -0.896  52.571  1.00  0.00     0.207 C 
BRANCH  26  27
HETATM   27  C15 UNL     1      14.996  -2.054  52.084  1.00  0.00     0.145 C 
HETATM   28  C16 UNL     1      15.577  -3.390  52.473  1.00  0.00     0.036 C 
HETATM   29  C17 UNL     1      14.318  -4.255  52.535  1.00  0.00     0.029 C 
HETATM   30  C18 UNL     1      13.379  -3.226  53.137  1.00  0.00     0.168 C 
HETATM   31  O2  UNL     1      13.713  -2.036  52.511  1.00  0.00    -0.384 OA
ENDBRANCH  26  27
ENDBRANCH  25  26
ENDBRANCH  18  25
ENDBRANCH   9  11
ENDBRANCH   7   9
ENDBRANCH   6   7
ENDBRANCH   5   6
ENDBRANCH   4   5
TORSDOF 8
ENDMDL
MODEL 3
REMARK VINA RESULT:      -7.2      1.467      2.004
REMARK  8 active torsions:
REMARK  status: ('A' for Active; 'I' for Inactive)
REMARK    1  A    between atoms: C4_4  and  C5_5 
REMARK    2  A    between atoms: C5_5  and  C6_6 
REMARK    3  A    between atoms: C6_6  and  C7_7 
REMARK    4  A    between atoms: C7_7  and  N1_9 
REMARK    5  A    between atoms: N1_9  and  C9_10 
REMARK    6  A    between atoms: C13_16  and  O1_17 
REMARK    7  A    between atoms: O1_17  and  C14_18 
REMARK    8  A    between atoms: C14_18  and  C15_19 
ROOT
HETATM    1  C1  UNL     1      12.952  -4.482  51.116  1.00  0.00     0.017 C 
HETATM    2  C2  UNL     1      13.889  -3.901  51.614  1.00  0.00    -0.090 C 
HETATM    3  C3  UNL     1      14.997  -3.230  52.220  1.00  0.00     0.060 C 
HETATM    4  C4  UNL     1      15.861  -4.023  52.901  1.00  0.00    -0.008 C 
ENDROOT
BRANCH   4   5
HETATM    5  C5  UNL     1      16.904  -3.172  53.434  1.00  0.00     0.045 C 
BRANCH   5   6
HETATM    6  C6  UNL     1      17.898  -2.361  53.674  1.00  0.00     0.011 C 
BRANCH   6   7
HETATM    7  C7  UNL     1      18.521  -1.096  53.205  1.00  0.00     0.021 C 
HETATM    8  C8  UNL     1      17.734  -0.285  52.613  1.00  0.00     0.042 C 
BRANCH   7   9
HETATM    9  N1  UNL     1      19.863  -0.927  53.470  1.00  0.00    -0.341 N 
HETATM   10  H8  UNL     1      19.923  -1.980  53.674  1.00  0.00     0.167 HD
BRANCH   9  11
HETATM   11  C9  UNL     1      21.218  -0.783  53.742  1.00  0.00     0.144 A 
HETATM   12  N2  UNL     1      21.513  -1.503  54.845  1.00  0.00    -0.223 NA
HETATM   13  C10 UNL     1      22.770  -1.542  55.339  1.00  0.00     0.236 A 
HETATM   14  N3  UNL     1      23.719  -0.841  54.705  1.00  0.00    -0.241 NA
HETATM   15  C11 UNL     1      23.465  -0.120  53.624  1.00  0.00     0.077 A 
HETATM   16  C12 UNL     1      24.406   0.638  52.949  1.00  0.00     0.072 A 
HETATM   17  C21 UNL     1      22.196  -0.066  53.098  1.00  0.00     0.075 A 
HETATM   18  C13 UNL     1      24.173   1.415  51.825  1.00  0.00     0.107 A 
HETATM   19  C19 UNL     1      22.826   1.384  51.383  1.00  0.00     0.136 A 
HETATM   20  C20 UNL     1      21.817   0.655  51.998  1.00  0.00     0.121 A 
HETATM   21  O4  UNL     1      22.358   2.092  50.259  1.00  0.00    -0.344 OA
HETATM   22  O3  UNL     1      20.507   0.634  51.573  1.00  0.00    -0.345 OA
HETATM   23  C22 UNL     1      20.036   1.346  50.433  1.00  0.00     0.202 C 
HETATM   24  C23 UNL     1      21.255   1.517  49.541  1.00  0.00     0.202 C 
BRANCH  18  25
HETATM   25  O1  UNL     1      24.906   2.183  51.056  1.00  0.00    -0.346 OA
BRANCH  25  26
HETATM   26  C14 UNL     1      25.893   3.095  51.037  1.00  0.00     0.207 C 
BRANCH  26  27
HETATM   27  C15 UNL     1      25.927   3.875  49.731  1.00  0.00     0.145 C 
HETATM   28  C16 UNL     1      25.888   5.365  49.960  1.00  0.00     0.036 C 
HETATM   29  C17 UNL     1      26.609   5.876  48.712  1.00  0.00     0.029 C 
HETATM   30  C18 UNL     1      27.662   4.787  48.611  1.00  0.00     0.168 C 
HETATM   31  O2  UNL     1      26.992   3.619  48.938  1.00  0.00    -0.384 OA
ENDBRANCH  26  27
ENDBRANCH  25  26
ENDBRANCH  18  25
ENDBRANCH   9  11
ENDBRANCH   7   9
ENDBRANCH   6   7
ENDBRANCH   5   6
ENDBRANCH   4   5
TORSDOF 8
ENDMDL
MODEL 4
REMARK VINA RESULT:      -7.0      4.056      8.821
REMARK  8 active torsions:
REMARK  status: ('A' for Active; 'I' for Inactive)
REMARK    1  A    between atoms: C4_4  and  C5_5 
REMARK    2  A    between atoms: C5_5  and  C6_6 
REMARK    3  A    between atoms: C6_6  and  C7_7 
REMARK    4  A    between atoms: C7_7  and  N1_9 
REMARK    5  A    between atoms: N1_9  and  C9_10 
REMARK    6  A    between atoms: C13_16  and  O1_17 
REMARK    7  A    between atoms: O1_17  and  C14_18 
REMARK    8  A    between atoms: C14_18  and  C15_19 
ROOT
HETATM    1  C1  UNL     1      26.067   9.794  49.477  1.00  0.00     0.017 C 
HETATM    2  C2  UNL     1      25.313   8.879  49.238  1.00  0.00    -0.090 C 
HETATM    3  C3  UNL     1      24.409   7.802  48.974  1.00  0.00     0.060 C 
HETATM    4  C4  UNL     1      23.153   7.960  49.460  1.00  0.00    -0.008 C 
ENDROOT
BRANCH   4   5
HETATM    5  C5  UNL     1      22.395   6.781  49.095  1.00  0.00     0.045 C 
BRANCH   5   6
HETATM    6  C6  UNL     1      21.784   5.633  48.990  1.00  0.00     0.011 C 
BRANCH   6   7
HETATM    7  C7  UNL     1      21.957   4.254  48.465  1.00  0.00     0.021 C 
HETATM    8  C8  UNL     1      22.159   4.168  47.208  1.00  0.00     0.042 C 
BRANCH   7   9
HETATM    9  N1  UNL     1      21.898   3.225  49.381  1.00  0.00    -0.341 N 
HETATM   10  H8  UNL     1      22.891   3.490  49.694  1.00  0.00     0.167 HD
BRANCH   9  11
HETATM   11  C9  UNL     1      21.865   2.196  50.313  1.00  0.00     0.144 A 
HETATM   12  N2  UNL     1      20.643   1.624  50.276  1.00  0.00    -0.223 NA
HETATM   13  C10 UNL     1      20.331   0.588  51.087  1.00  0.00     0.236 A 
HETATM   14  N3  UNL     1      21.269   0.146  51.935  1.00  0.00    -0.241 NA
HETATM   15  C11 UNL     1      22.477   0.685  52.001  1.00  0.00     0.077 A 
HETATM   16  C12 UNL     1      23.470   0.278  52.874  1.00  0.00     0.072 A 
HETATM   17  C21 UNL     1      22.822   1.736  51.185  1.00  0.00     0.075 A 
HETATM   18  C13 UNL     1      24.737   0.829  52.980  1.00  0.00     0.107 A 
HETATM   19  C19 UNL     1      24.967   1.903  52.084  1.00  0.00     0.136 A 
HETATM   20  C20 UNL     1      24.031   2.379  51.177  1.00  0.00     0.121 A 
HETATM   21  O4  UNL     1      26.183   2.611  52.011  1.00  0.00    -0.344 OA
HETATM   22  O3  UNL     1      24.251   3.429  50.314  1.00  0.00    -0.345 OA
HETATM   23  C22 UNL     1      25.483   4.141  50.238  1.00  0.00     0.202 C 
HETATM   24  C23 UNL     1      26.536   3.164  50.734  1.00  0.00     0.202 C 
BRANCH  18  25
HETATM   25  O1  UNL     1      25.795   0.593  53.719  1.00  0.00    -0.346 OA
BRANCH  25  26
HETATM   26  C14 UNL     1      26.248  -0.030  54.821  1.00  0.00     0.207 C 
BRANCH  26  27
HETATM   27  C15 UNL     1      27.763  -0.178  54.812  1.00  0.00     0.145 C 
HETATM   28  C16 UNL     1      28.273  -0.684  53.486  1.00  0.00     0.036 C 
HETATM   29  C17 UNL     1      29.686  -0.100  53.470  1.00  0.00     0.029 C 
HETATM   30  C18 UNL     1      29.373   1.240  54.110  1.00  0.00     0.168 C 
HETATM   31  O2  UNL     1      28.450   0.949  55.103  1.00  0.00    -0.384 OA
ENDBRANCH  26  27
ENDBRANCH  25  26
ENDBRANCH  18  25
ENDBRANCH   9  11
ENDBRANCH   7   9
ENDBRANCH   6   7
ENDBRANCH   5   6
ENDBRANCH   4   5
TORSDOF 8
ENDMDL
MODEL 5
REMARK VINA RESULT:      -7.0      3.025      8.246
REMARK  8 active torsions:
REMARK  status: ('A' for Active; 'I' for Inactive)
REMARK    1  A    between atoms: C4_4  and  C5_5 
REMARK    2  A    between atoms: C5_5  and  C6_6 
REMARK    3  A    between atoms: C6_6  and  C7_7 
REMARK    4  A    between atoms: C7_7  and  N1_9 
REMARK    5  A    between atoms: N1_9  and  C9_10 
REMARK    6  A    between atoms: C13_16  and  O1_17 
REMARK    7  A    between atoms: O1_17  and  C14_18 
REMARK    8  A    between atoms: C14_18  and  C15_19 
ROOT
HETATM    1  C1  UNL     1      30.066  -0.465  53.679  1.00  0.00     0.017 C 
HETATM    2  C2  UNL     1      28.980   0.031  53.483  1.00  0.00    -0.090 C 
HETATM    3  C3  UNL     1      27.698   0.628  53.272  1.00  0.00     0.060 C 
HETATM    4  C4  UNL     1      27.546   1.880  53.770  1.00  0.00    -0.008 C 
ENDROOT
BRANCH   4   5
HETATM    5  C5  UNL     1      26.199   2.312  53.459  1.00  0.00     0.045 C 
BRANCH   5   6
HETATM    6  C6  UNL     1      24.970   2.481  53.057  1.00  0.00     0.011 C 
BRANCH   6   7
HETATM    7  C7  UNL     1      23.942   1.914  52.146  1.00  0.00     0.021 C 
HETATM    8  C8  UNL     1      23.985   2.335  50.943  1.00  0.00     0.042 C 
BRANCH   7   9
HETATM    9  N1  UNL     1      23.073   0.991  52.685  1.00  0.00    -0.341 N 
HETATM   10  H8  UNL     1      22.667   1.776  53.295  1.00  0.00     0.167 HD
BRANCH   9  11
HETATM   11  C9  UNL     1      22.185   0.080  53.243  1.00  0.00     0.144 A 
HETATM   12  N2  UNL     1      22.864  -0.714  54.097  1.00  0.00    -0.223 NA
HETATM   13  C10 UNL     1      22.242  -1.698  54.784  1.00  0.00     0.236 A 
HETATM   14  N3  UNL     1      20.927  -1.868  54.590  1.00  0.00    -0.241 NA
HETATM   15  C11 UNL     1      20.229  -1.111  53.757  1.00  0.00     0.077 A 
HETATM   16  C12 UNL     1      18.877  -1.263  53.507  1.00  0.00     0.072 A 
HETATM   17  C21 UNL     1      20.836  -0.101  53.049  1.00  0.00     0.075 A 
HETATM   18  C13 UNL     1      18.119  -0.501  52.632  1.00  0.00     0.107 A 
HETATM   19  C19 UNL     1      18.862   0.507  51.967  1.00  0.00     0.136 A 
HETATM   20  C20 UNL     1      20.220   0.730  52.153  1.00  0.00     0.121 A 
HETATM   21  O4  UNL     1      18.301   1.403  51.036  1.00  0.00    -0.344 OA
HETATM   22  O3  UNL     1      20.942   1.702  51.499  1.00  0.00    -0.345 OA
HETATM   23  C22 UNL     1      20.373   2.611  50.562  1.00  0.00     0.202 C 
HETATM   24  C23 UNL     1      18.904   2.703  50.942  1.00  0.00     0.202 C 
BRANCH  18  25
HETATM   25  O1  UNL     1      16.860  -0.481  52.265  1.00  0.00    -0.346 OA
BRANCH  25  26
HETATM   26  C14 UNL     1      15.591  -0.400  52.700  1.00  0.00     0.207 C 
BRANCH  26  27
HETATM   27  C15 UNL     1      15.011   0.995  52.513  1.00  0.00     0.145 C 
HETATM   28  C16 UNL     1      14.656   1.272  51.074  1.00  0.00     0.036 C 
HETATM   29  C17 UNL     1      13.536   2.300  51.237  1.00  0.00     0.029 C 
HETATM   30  C18 UNL     1      12.866   1.696  52.457  1.00  0.00     0.168 C 
HETATM   31  O2  UNL     1      13.913   1.262  53.255  1.00  0.00    -0.384 OA
ENDBRANCH  26  27
ENDBRANCH  25  26
ENDBRANCH  18  25
ENDBRANCH   9  11
ENDBRANCH   7   9
ENDBRANCH   6   7
ENDBRANCH   5   6
ENDBRANCH   4   5
TORSDOF 8
ENDMDL
MODEL 6
REMARK VINA RESULT:      -6.9      2.979      9.720
REMARK  8 active torsions:
REMARK  status: ('A' for Active; 'I' for Inactive)
REMARK    1  A    between atoms: C4_4  and  C5_5 
REMARK    2  A    between atoms: C5_5  and  C6_6 
REMARK    3  A    between atoms: C6_6  and  C7_7 
REMARK    4  A    between atoms: C7_7  and  N1_9 
REMARK    5  A    between atoms: N1_9  and  C9_10 
REMARK    6  A    between atoms: C13_16  and  O1_17 
REMARK    7  A    between atoms: O1_17  and  C14_18 
REMARK    8  A    between atoms: C14_18  and  C15_19 
ROOT
HETATM    1  C1  UNL     1      29.016   7.175  47.290  1.00  0.00     0.017 C 
HETATM    2  C2  UNL     1      28.602   6.201  47.876  1.00  0.00    -0.090 C 
HETATM    3  C3  UNL     1      28.098   5.062  48.581  1.00  0.00     0.060 C 
HETATM    4  C4  UNL     1      26.804   5.144  48.975  1.00  0.00    -0.008 C 
ENDROOT
BRANCH   4   5
HETATM    5  C5  UNL     1      26.480   3.911  49.662  1.00  0.00     0.045 C 
BRANCH   5   6
HETATM    6  C6  UNL     1      26.389   2.854  50.422  1.00  0.00     0.011 C 
BRANCH   6   7
HETATM    7  C7  UNL     1      25.466   2.151  51.351  1.00  0.00     0.021 C 
HETATM    8  C8  UNL     1      25.992   1.744  52.440  1.00  0.00     0.042 C 
BRANCH   7   9
HETATM    9  N1  UNL     1      24.153   2.029  50.951  1.00  0.00    -0.341 N 
HETATM   10  H8  UNL     1      24.139   1.055  51.403  1.00  0.00     0.167 HD
BRANCH   9  11
HETATM   11  C9  UNL     1      22.828   1.881  50.561  1.00  0.00     0.144 A 
HETATM   12  N2  UNL     1      22.630   2.598  49.435  1.00  0.00    -0.223 NA
HETATM   13  C10 UNL     1      21.421   2.634  48.832  1.00  0.00     0.236 A 
HETATM   14  N3  UNL     1      20.418   1.941  49.388  1.00  0.00    -0.241 NA
HETATM   15  C11 UNL     1      20.575   1.230  50.493  1.00  0.00     0.077 A 
HETATM   16  C12 UNL     1      19.566   0.516  51.116  1.00  0.00     0.072 A 
HETATM   17  C21 UNL     1      21.795   1.172  51.124  1.00  0.00     0.075 A 
HETATM   18  C13 UNL     1      19.690  -0.225  52.280  1.00  0.00     0.107 A 
HETATM   19  C19 UNL     1      20.997  -0.204  52.830  1.00  0.00     0.136 A 
HETATM   20  C20 UNL     1      22.068   0.484  52.276  1.00  0.00     0.121 A 
HETATM   21  O4  UNL     1      21.359  -0.888  54.007  1.00  0.00    -0.344 OA
HETATM   22  O3  UNL     1      23.334   0.512  52.816  1.00  0.00    -0.345 OA
HETATM   23  C22 UNL     1      23.700  -0.184  54.004  1.00  0.00     0.202 C 
HETATM   24  C23 UNL     1      22.718  -1.341  54.103  1.00  0.00     0.202 C 
BRANCH  18  25
HETATM   25  O1  UNL     1      18.882  -0.955  53.010  1.00  0.00    -0.346 OA
BRANCH  25  26
HETATM   26  C14 UNL     1      17.597  -1.175  53.338  1.00  0.00     0.207 C 
BRANCH  26  27
HETATM   27  C15 UNL     1      17.036  -2.414  52.657  1.00  0.00     0.145 C 
HETATM   28  C16 UNL     1      17.159  -3.641  53.525  1.00  0.00     0.036 C 
HETATM   29  C17 UNL     1      15.993  -4.487  53.010  1.00  0.00     0.029 C 
HETATM   30  C18 UNL     1      14.993  -3.367  52.793  1.00  0.00     0.168 C 
HETATM   31  O2  UNL     1      15.742  -2.322  52.275  1.00  0.00    -0.384 OA
ENDBRANCH  26  27
ENDBRANCH  25  26
ENDBRANCH  18  25
ENDBRANCH   9  11
ENDBRANCH   7   9
ENDBRANCH   6   7
ENDBRANCH   5   6
ENDBRANCH   4   5
TORSDOF 8
ENDMDL
MODEL 7
REMARK VINA RESULT:      -6.9      3.620      5.630
REMARK  8 active torsions:
REMARK  status: ('A' for Active; 'I' for Inactive)
REMARK    1  A    between atoms: C4_4  and  C5_5 
REMARK    2  A    between atoms: C5_5  and  C6_6 
REMARK    3  A    between atoms: C6_6  and  C7_7 
REMARK    4  A    between atoms: C7_7  and  N1_9 
REMARK    5  A    between atoms: N1_9  and  C9_10 
REMARK    6  A    between atoms: C13_16  and  O1_17 
REMARK    7  A    between atoms: O1_17  and  C14_18 
REMARK    8  A    between atoms: C14_18  and  C15_19 
ROOT
HETATM    1  C1  UNL     1      12.338   4.537  53.810  1.00  0.00     0.017 C 
HETATM    2  C2  UNL     1      13.124   3.713  53.400  1.00  0.00    -0.090 C 
HETATM    3  C3  UNL     1      14.061   2.754  52.901  1.00  0.00     0.060 C 
HETATM    4  C4  UNL     1      15.226   3.264  52.432  1.00  0.00    -0.008 C 
ENDROOT
BRANCH   4   5
HETATM    5  C5  UNL     1      16.036   2.153  51.977  1.00  0.00     0.045 C 
BRANCH   5   6
HETATM    6  C6  UNL     1      16.544   1.043  51.517  1.00  0.00     0.011 C 
BRANCH   6   7
HETATM    7  C7  UNL     1      17.277   0.480  50.353  1.00  0.00     0.021 C 
HETATM    8  C8  UNL     1      16.669  -0.445  49.719  1.00  0.00     0.042 C 
BRANCH   7   9
HETATM    9  N1  UNL     1      18.514   1.020  50.075  1.00  0.00    -0.341 N 
HETATM   10  H8  UNL     1      18.425   1.605  50.971  1.00  0.00     0.167 HD
BRANCH   9  11
HETATM   11  C9  UNL     1      19.759   1.580  49.817  1.00  0.00     0.144 A 
HETATM   12  N2  UNL     1      19.700   2.234  48.638  1.00  0.00    -0.223 NA
HETATM   13  C10 UNL     1      20.780   2.875  48.138  1.00  0.00     0.236 A 
HETATM   14  N3  UNL     1      21.917   2.840  48.846  1.00  0.00    -0.241 NA
HETATM   15  C11 UNL     1      22.012   2.206  50.004  1.00  0.00     0.077 A 
HETATM   16  C12 UNL     1      23.169   2.123  50.759  1.00  0.00     0.072 A 
HETATM   17  C21 UNL     1      20.929   1.549  50.537  1.00  0.00     0.075 A 
HETATM   18  C13 UNL     1      23.309   1.456  51.966  1.00  0.00     0.107 A 
HETATM   19  C19 UNL     1      22.120   0.822  52.405  1.00  0.00     0.136 A 
HETATM   20  C20 UNL     1      20.916   0.850  51.714  1.00  0.00     0.121 A 
HETATM   21  O4  UNL     1      22.024   0.090  53.605  1.00  0.00    -0.344 OA
HETATM   22  O3  UNL     1      19.764   0.225  52.137  1.00  0.00    -0.345 OA
HETATM   23  C22 UNL     1      19.668  -0.510  53.353  1.00  0.00     0.202 C 
HETATM   24  C23 UNL     1      20.744   0.072  54.255  1.00  0.00     0.202 C 
BRANCH  18  25
HETATM   25  O1  UNL     1      24.289   1.266  52.816  1.00  0.00    -0.346 OA
BRANCH  25  26
HETATM   26  C14 UNL     1      25.389   1.813  53.364  1.00  0.00     0.207 C 
BRANCH  26  27
HETATM   27  C15 UNL     1      26.332   0.759  53.925  1.00  0.00     0.145 C 
HETATM   28  C16 UNL     1      26.727  -0.258  52.884  1.00  0.00     0.036 C 
HETATM   29  C17 UNL     1      28.092  -0.705  53.408  1.00  0.00     0.029 C 
HETATM   30  C18 UNL     1      28.587   0.644  53.896  1.00  0.00     0.168 C 
HETATM   31  O2  UNL     1      27.473   1.242  54.465  1.00  0.00    -0.384 OA
ENDBRANCH  26  27
ENDBRANCH  25  26
ENDBRANCH  18  25
ENDBRANCH   9  11
ENDBRANCH   7   9
ENDBRANCH   6   7
ENDBRANCH   5   6
ENDBRANCH   4   5
TORSDOF 8
ENDMDL
MODEL 8
REMARK VINA RESULT:      -6.8      4.432      8.613
REMARK  8 active torsions:
REMARK  status: ('A' for Active; 'I' for Inactive)
REMARK    1  A    between atoms: C4_4  and  C5_5 
REMARK    2  A    between atoms: C5_5  and  C6_6 
REMARK    3  A    between atoms: C6_6  and  C7_7 
REMARK    4  A    between atoms: C7_7  and  N1_9 
REMARK    5  A    between atoms: N1_9  and  C9_10 
REMARK    6  A    between atoms: C13_16  and  O1_17 
REMARK    7  A    between atoms: O1_17  and  C14_18 
REMARK    8  A    between atoms: C14_18  and  C15_19 
ROOT
HETATM    1  C1  UNL     1      24.100   7.739  43.631  1.00  0.00     0.017 C 
HETATM    2  C2  UNL     1      23.441   7.325  44.559  1.00  0.00    -0.090 C 
HETATM    3  C3  UNL     1      22.683   6.830  45.666  1.00  0.00     0.060 C 
HETATM    4  C4  UNL     1      23.307   6.872  46.868  1.00  0.00    -0.008 C 
ENDROOT
BRANCH   4   5
HETATM    5  C5  UNL     1      22.390   6.336  47.853  1.00  0.00     0.045 C 
BRANCH   5   6
HETATM    6  C6  UNL     1      21.603   6.070  48.859  1.00  0.00     0.011 C 
BRANCH   6   7
HETATM    7  C7  UNL     1      21.544   6.099  50.343  1.00  0.00     0.021 C 
HETATM    8  C8  UNL     1      21.515   7.262  50.867  1.00  0.00     0.042 C 
BRANCH   7   9
HETATM    9  N1  UNL     1      21.510   4.883  50.990  1.00  0.00    -0.341 N 
HETATM   10  H8  UNL     1      20.501   4.761  50.640  1.00  0.00     0.167 HD
BRANCH   9  11
HETATM   11  C9  UNL     1      21.449   3.652  51.632  1.00  0.00     0.144 A 
HETATM   12  N2  UNL     1      20.180   3.442  52.038  1.00  0.00    -0.223 NA
HETATM   13  C10 UNL     1      19.835   2.313  52.697  1.00  0.00     0.236 A 
HETATM   14  N3  UNL     1      20.791   1.408  52.942  1.00  0.00    -0.241 NA
HETATM   15  C11 UNL     1      22.047   1.582  52.561  1.00  0.00     0.077 A 
HETATM   16  C12 UNL     1      23.072   0.687  52.810  1.00  0.00     0.072 A 
HETATM   17  C21 UNL     1      22.425   2.718  51.886  1.00  0.00     0.075 A 
HETATM   18  C13 UNL     1      24.399   0.844  52.441  1.00  0.00     0.107 A 
HETATM   19  C19 UNL     1      24.657   2.055  51.751  1.00  0.00     0.136 A 
HETATM   20  C20 UNL     1      23.693   3.011  51.460  1.00  0.00     0.121 A 
HETATM   21  O4  UNL     1      25.930   2.427  51.277  1.00  0.00    -0.344 OA
HETATM   22  O3  UNL     1      23.946   4.192  50.799  1.00  0.00    -0.345 OA
HETATM   23  C22 UNL     1      25.233   4.564  50.315  1.00  0.00     0.202 C 
HETATM   24  C23 UNL     1      25.971   3.252  50.102  1.00  0.00     0.202 C 
BRANCH  18  25
HETATM   25  O1  UNL     1      25.493   0.133  52.574  1.00  0.00    -0.346 OA
BRANCH  25  26
HETATM   26  C14 UNL     1      26.016  -0.988  53.101  1.00  0.00     0.207 C 
BRANCH  26  27
HETATM   27  C15 UNL     1      27.499  -0.838  53.406  1.00  0.00     0.145 C 
HETATM   28  C16 UNL     1      28.115   0.323  52.666  1.00  0.00     0.036 C 
HETATM   29  C17 UNL     1      29.270   0.690  53.598  1.00  0.00     0.029 C 
HETATM   30  C18 UNL     1      28.562   0.456  54.920  1.00  0.00     0.168 C 
HETATM   31  O2  UNL     1      27.801  -0.684  54.715  1.00  0.00    -0.384 OA
ENDBRANCH  26  27
ENDBRANCH  25  26
ENDBRANCH  18  25
ENDBRANCH   9  11
ENDBRANCH   7   9
ENDBRANCH   6   7
ENDBRANCH   5   6
ENDBRANCH   4   5
TORSDOF 8
ENDMDL
MODEL 9
REMARK VINA RESULT:      -6.7      6.356      9.655
REMARK  8 active torsions:
REMARK  status: ('A' for Active; 'I' for Inactive)
REMARK    1  A    between atoms: C4_4  and  C5_5 
REMARK    2  A    between atoms: C5_5  and  C6_6 
REMARK    3  A    between atoms: C6_6  and  C7_7 
REMARK    4  A    between atoms: C7_7  and  N1_9 
REMARK    5  A    between atoms: N1_9  and  C9_10 
REMARK    6  A    between atoms: C13_16  and  O1_17 
REMARK    7  A    between atoms: O1_17  and  C14_18 
REMARK    8  A    between atoms: C14_18  and  C15_19 
ROOT
HETATM    1  C1  UNL     1      22.671   7.380  41.616  1.00  0.00     0.017 C 
HETATM    2  C2  UNL     1      22.653   7.548  42.814  1.00  0.00    -0.090 C 
HETATM    3  C3  UNL     1      22.623   7.724  44.233  1.00  0.00     0.060 C 
HETATM    4  C4  UNL     1      22.819   6.602  44.967  1.00  0.00    -0.008 C 
ENDROOT
BRANCH   4   5
HETATM    5  C5  UNL     1      22.756   6.979  46.364  1.00  0.00     0.045 C 
BRANCH   5   6
HETATM    6  C6  UNL     1      22.718   7.553  47.535  1.00  0.00     0.011 C 
BRANCH   6   7
HETATM    7  C7  UNL     1      23.378   7.551  48.866  1.00  0.00     0.021 C 
HETATM    8  C8  UNL     1      22.962   8.437  49.684  1.00  0.00     0.042 C 
BRANCH   7   9
HETATM    9  N1  UNL     1      24.346   6.594  49.081  1.00  0.00    -0.341 N 
HETATM   10  H8  UNL     1      24.765   6.848  48.125  1.00  0.00     0.167 HD
BRANCH   9  11
HETATM   11  C9  UNL     1      25.333   5.635  49.273  1.00  0.00     0.144 A 
HETATM   12  N2  UNL     1      26.428   6.001  48.576  1.00  0.00    -0.223 NA
HETATM   13  C10 UNL     1      27.548   5.243  48.583  1.00  0.00     0.236 A 
HETATM   14  N3  UNL     1      27.539   4.112  49.300  1.00  0.00    -0.241 NA
HETATM   15  C11 UNL     1      26.481   3.719  49.992  1.00  0.00     0.077 A 
HETATM   16  C12 UNL     1      26.416   2.549  50.728  1.00  0.00     0.072 A 
HETATM   17  C21 UNL     1      25.331   4.473  50.006  1.00  0.00     0.075 A 
HETATM   18  C13 UNL     1      25.323   2.101  51.452  1.00  0.00     0.107 A 
HETATM   19  C19 UNL     1      24.203   2.968  51.386  1.00  0.00     0.136 A 
HETATM   20  C20 UNL     1      24.177   4.158  50.672  1.00  0.00     0.121 A 
HETATM   21  O4  UNL     1      22.983   2.719  52.045  1.00  0.00    -0.344 OA
HETATM   22  O3  UNL     1      23.086   4.995  50.600  1.00  0.00    -0.345 OA
HETATM   23  C22 UNL     1      21.854   4.744  51.271  1.00  0.00     0.202 C 
HETATM   24  C23 UNL     1      22.221   3.864  52.455  1.00  0.00     0.202 C 
BRANCH  18  25
HETATM   25  O1  UNL     1      25.066   1.053  52.197  1.00  0.00    -0.346 OA
BRANCH  25  26
HETATM   26  C14 UNL     1      24.976   0.599  53.460  1.00  0.00     0.207 C 
BRANCH  26  27
HETATM   27  C15 UNL     1      26.332   0.197  54.021  1.00  0.00     0.145 C 
HETATM   28  C16 UNL     1      27.094  -0.697  53.075  1.00  0.00     0.036 C 
HETATM   29  C17 UNL     1      28.538  -0.383  53.468  1.00  0.00     0.029 C 
HETATM   30  C18 UNL     1      28.376   1.106  53.713  1.00  0.00     0.168 C 
HETATM   31  O2  UNL     1      27.147   1.227  54.342  1.00  0.00    -0.384 OA
ENDBRANCH  26  27
ENDBRANCH  25  26
ENDBRANCH  18  25
ENDBRANCH   9  11
ENDBRANCH   7   9
ENDBRANCH   6   7
ENDBRANCH   5   6
ENDBRANCH   4   5
TORSDOF 8
ENDMDL
