MODEL 1
REMARK VINA RESULT:      -7.9      0.000      0.000
REMARK  6 active torsions:
REMARK  status: ('A' for Active; 'I' for Inactive)
REMARK    1  A    between atoms: C2_2  and  C3_3 
REMARK       I    between atoms: C3_3  and  N1_5 
REMARK    2  A    between atoms: N1_5  and  C4_6 
REMARK    3  A    between atoms: C7_9  and  N2_10 
REMARK    4  A    between atoms: N2_10  and  C8_11 
REMARK    5  A    between atoms: C14_18  and  N3_19 
REMARK    6  A    between atoms: C18_24  and  O2_25 
ROOT
HETATM    1  C4  UNL     1      25.712   0.560  52.722  1.00  0.00     0.069 A 
HETATM    2  C5  UNL     1      25.123   1.388  51.802  1.00  0.00     0.048 A 
HETATM    3  C6  UNL     1      23.763   1.561  51.664  1.00  0.00     0.024 A 
HETATM    4  C7  UNL     1      23.272   2.419  50.706  1.00  0.00     0.073 A 
HETATM    5  C14 UNL     1      21.888   2.552  50.615  1.00  0.00     0.071 A 
HETATM    6  C15 UNL     1      21.048   1.844  51.461  1.00  0.00     0.148 A 
HETATM    7  N4  UNL     1      21.585   1.016  52.384  1.00  0.00    -0.258 NA
HETATM    8  C16 UNL     1      22.916   0.863  52.499  1.00  0.00     0.071 A 
HETATM    9  C17 UNL     1      23.474   0.036  53.418  1.00  0.00     0.071 A 
HETATM   10  C18 UNL     1      24.828  -0.115  53.531  1.00  0.00     0.097 A 
ENDROOT
BRANCH   4  11
HETATM   11  N2  UNL     1      24.113   3.157  49.829  1.00  0.00    -0.354 N 
HETATM   12  H6  UNL     1      24.242   2.489  49.067  1.00  0.00     0.166 HD
BRANCH  11  13
HETATM   13  C8  UNL     1      24.649   4.461  49.942  1.00  0.00     0.033 A 
HETATM   14  C9  UNL     1      24.039   5.366  50.764  1.00  0.00     0.029 A 
HETATM   15  C10 UNL     1      24.664   6.615  50.786  1.00  0.00     0.004 A 
HETATM   16  C11 UNL     1      25.793   6.924  50.052  1.00  0.00     0.019 A 
HETATM   17  C12 UNL     1      26.351   5.954  49.243  1.00  0.00     0.013 A 
HETATM   18 BR1  UNL     1      27.899   6.332  48.218  1.00  0.00    -0.051 Br
HETATM   19  C13 UNL     1      25.762   4.690  49.187  1.00  0.00     0.048 A 
ENDBRANCH  11  13
ENDBRANCH   4  11
BRANCH   5  20
HETATM   20  N3  UNL     1      21.279   3.409  49.664  1.00  0.00    -0.396 N 
HETATM   21  H11 UNL     1      21.972   4.200  49.564  1.00  0.00     0.156 HD
HETATM   22  H12 UNL     1      20.342   3.197  49.224  1.00  0.00     0.156 HD
ENDBRANCH   5  20
BRANCH   1  23
HETATM   23  N1  UNL     1      27.092   0.333  52.921  1.00  0.00    -0.321 N 
HETATM   24  C3  UNL     1      28.037   1.120  53.615  1.00  0.00     0.242 C 
HETATM   25  O1  UNL     1      27.672   2.186  54.158  1.00  0.00    -0.269 OA
HETATM   26  H4  UNL     1      27.547  -0.517  52.526  1.00  0.00     0.169 HD
BRANCH  24  27
HETATM   27  C2  UNL     1      29.446   0.803  53.766  1.00  0.00     0.048 C 
HETATM   28  C1  UNL     1      29.821  -0.446  53.626  1.00  0.00     0.037 C 
ENDBRANCH  24  27
ENDBRANCH   1  23
BRANCH  10  29
HETATM   29  O2  UNL     1      25.305  -0.981  54.500  1.00  0.00    -0.354 OA
HETATM   30  C19 UNL     1      24.658  -1.286  55.698  1.00  0.00     0.210 C 
ENDBRANCH  10  29
TORSDOF 6
ENDMDL
MODEL 2
REMARK VINA RESULT:      -7.9      3.177      5.652
REMARK  6 active torsions:
REMARK  status: ('A' for Active; 'I' for Inactive)
REMARK    1  A    between atoms: C2_2  and  C3_3 
REMARK       I    between atoms: C3_3  and  N1_5 
REMARK    2  A    between atoms: N1_5  and  C4_6 
REMARK    3  A    between atoms: C7_9  and  N2_10 
REMARK    4  A    between atoms: N2_10  and  C8_11 
REMARK    5  A    between atoms: C14_18  and  N3_19 
REMARK    6  A    between atoms: C18_24  and  O2_25 
ROOT
HETATM    1  C4  UNL     1      25.923   1.063  52.201  1.00  0.00     0.069 A 
HETATM    2  C5  UNL     1      24.628   0.623  52.279  1.00  0.00     0.048 A 
HETATM    3  C6  UNL     1      24.106  -0.087  53.338  1.00  0.00     0.024 A 
HETATM    4  C7  UNL     1      22.788  -0.484  53.319  1.00  0.00     0.073 A 
HETATM    5  C14 UNL     1      22.318  -1.199  54.418  1.00  0.00     0.071 A 
HETATM    6  C15 UNL     1      23.154  -1.494  55.485  1.00  0.00     0.148 A 
HETATM    7  N4  UNL     1      24.439  -1.080  55.451  1.00  0.00    -0.258 NA
HETATM    8  C16 UNL     1      24.926  -0.388  54.406  1.00  0.00     0.071 A 
HETATM    9  C17 UNL     1      26.214   0.036  54.352  1.00  0.00     0.071 A 
HETATM   10  C18 UNL     1      26.703   0.740  53.288  1.00  0.00     0.097 A 
ENDROOT
BRANCH   4  11
HETATM   11  N2  UNL     1      21.912  -0.192  52.238  1.00  0.00    -0.354 N 
HETATM   12  H6  UNL     1      22.184  -0.907  51.561  1.00  0.00     0.166 HD
BRANCH  11  13
HETATM   13  C8  UNL     1      20.920   0.806  52.096  1.00  0.00     0.033 A 
HETATM   14  C9  UNL     1      21.213   2.095  52.442  1.00  0.00     0.029 A 
HETATM   15  C10 UNL     1      20.150   2.982  52.256  1.00  0.00     0.004 A 
HETATM   16  C11 UNL     1      18.912   2.610  51.769  1.00  0.00     0.019 A 
HETATM   17  C12 UNL     1      18.693   1.285  51.442  1.00  0.00     0.013 A 
HETATM   18 BR1  UNL     1      17.012   0.727  50.771  1.00  0.00    -0.051 Br
HETATM   19  C13 UNL     1      19.726   0.361  51.611  1.00  0.00     0.048 A 
ENDBRANCH  11  13
ENDBRANCH   4  11
BRANCH   5  20
HETATM   20  N3  UNL     1      20.978  -1.654  54.499  1.00  0.00    -0.396 N 
HETATM   21  H11 UNL     1      20.414  -0.762  54.511  1.00  0.00     0.156 HD
HETATM   22  H12 UNL     1      20.726  -2.680  54.533  1.00  0.00     0.156 HD
ENDBRANCH   5  20
BRANCH   1  23
HETATM   23  N1  UNL     1      26.525   1.793  51.152  1.00  0.00    -0.321 N 
HETATM   24  C3  UNL     1      26.148   3.035  50.595  1.00  0.00     0.242 C 
HETATM   25  O1  UNL     1      25.145   3.633  51.044  1.00  0.00    -0.269 OA
HETATM   26  H4  UNL     1      27.374   1.423  50.674  1.00  0.00     0.169 HD
BRANCH  24  27
HETATM   27  C2  UNL     1      26.834   3.712  49.509  1.00  0.00     0.048 C 
HETATM   28  C1  UNL     1      26.404   4.896  49.143  1.00  0.00     0.037 C 
ENDBRANCH  24  27
ENDBRANCH   1  23
BRANCH  10  29
HETATM   29  O2  UNL     1      28.030   1.131  53.323  1.00  0.00    -0.354 OA
HETATM   30  C19 UNL     1      28.958   0.745  54.291  1.00  0.00     0.210 C 
ENDBRANCH  10  29
TORSDOF 6
ENDMDL
MODEL 3
REMARK VINA RESULT:      -7.9      1.424      1.786
REMARK  6 active torsions:
REMARK  status: ('A' for Active; 'I' for Inactive)
REMARK    1  A    between atoms: C2_2  and  C3_3 
REMARK       I    between atoms: C3_3  and  N1_5 
REMARK    2  A    between atoms: N1_5  and  C4_6 
REMARK    3  A    between atoms: C7_9  and  N2_10 
REMARK    4  A    between atoms: N2_10  and  C8_11 
REMARK    5  A    between atoms: C14_18  and  N3_19 
REMARK    6  A    between atoms: C18_24  and  O2_25 
ROOT
HETATM    1  C4  UNL     1      24.936   1.191  53.413  1.00  0.00     0.069 A 
HETATM    2  C5  UNL     1      24.709   2.328  52.683  1.00  0.00     0.048 A 
HETATM    3  C6  UNL     1      23.554   2.587  51.979  1.00  0.00     0.024 A 
HETATM    4  C7  UNL     1      23.424   3.763  51.275  1.00  0.00     0.073 A 
HETATM    5  C14 UNL     1      22.233   3.967  50.582  1.00  0.00     0.071 A 
HETATM    6  C15 UNL     1      21.223   3.016  50.608  1.00  0.00     0.148 A 
HETATM    7  N4  UNL     1      21.404   1.880  51.315  1.00  0.00    -0.258 NA
HETATM    8  C16 UNL     1      22.541   1.651  51.995  1.00  0.00     0.071 A 
HETATM    9  C17 UNL     1      22.742   0.515  52.711  1.00  0.00     0.071 A 
HETATM   10  C18 UNL     1      23.900   0.287  53.401  1.00  0.00     0.097 A 
ENDROOT
BRANCH   4  11
HETATM   11  N2  UNL     1      24.445   4.752  51.235  1.00  0.00    -0.354 N 
HETATM   12  H6  UNL     1      24.256   5.270  52.095  1.00  0.00     0.166 HD
BRANCH  11  13
HETATM   13  C8  UNL     1      25.464   4.990  50.283  1.00  0.00     0.033 A 
HETATM   14  C9  UNL     1      26.252   3.952  49.874  1.00  0.00     0.029 A 
HETATM   15  C10 UNL     1      27.219   4.318  48.934  1.00  0.00     0.004 A 
HETATM   16  C11 UNL     1      27.378   5.603  48.453  1.00  0.00     0.019 A 
HETATM   17  C12 UNL     1      26.541   6.599  48.918  1.00  0.00     0.013 A 
HETATM   18 BR1  UNL     1      26.722   8.376  48.287  1.00  0.00    -0.051 Br
HETATM   19  C13 UNL     1      25.559   6.282  49.857  1.00  0.00     0.048 A 
ENDBRANCH  11  13
ENDBRANCH   4  11
BRANCH   5  20
HETATM   20  N3  UNL     1      21.998   5.143  49.827  1.00  0.00    -0.396 N 
HETATM   21  H11 UNL     1      21.764   5.866  50.560  1.00  0.00     0.156 HD
HETATM   22  H12 UNL     1      22.070   5.167  48.772  1.00  0.00     0.156 HD
ENDBRANCH   5  20
BRANCH   1  23
HETATM   23  N1  UNL     1      26.091   0.859  54.158  1.00  0.00    -0.321 N 
HETATM   24  C3  UNL     1      27.291   0.255  53.724  1.00  0.00     0.242 C 
HETATM   25  O1  UNL     1      27.423  -0.061  52.521  1.00  0.00    -0.269 OA
HETATM   26  H4  UNL     1      26.133   1.061  55.179  1.00  0.00     0.169 HD
BRANCH  24  27
HETATM   27  C2  UNL     1      28.431  -0.050  54.570  1.00  0.00     0.048 C 
HETATM   28  C1  UNL     1      29.521  -0.512  54.003  1.00  0.00     0.037 C 
ENDBRANCH  24  27
ENDBRANCH   1  23
BRANCH  10  29
HETATM   29  O2  UNL     1      24.013  -0.900  54.103  1.00  0.00    -0.354 OA
HETATM   30  C19 UNL     1      23.233  -1.264  55.202  1.00  0.00     0.210 C 
ENDBRANCH  10  29
TORSDOF 6
ENDMDL
MODEL 4
REMARK VINA RESULT:      -7.8      3.058      5.917
REMARK  6 active torsions:
REMARK  status: ('A' for Active; 'I' for Inactive)
REMARK    1  A    between atoms: C2_2  and  C3_3 
REMARK       I    between atoms: C3_3  and  N1_5 
REMARK    2  A    between atoms: N1_5  and  C4_6 
REMARK    3  A    between atoms: C7_9  and  N2_10 
REMARK    4  A    between atoms: N2_10  and  C8_11 
REMARK    5  A    between atoms: C14_18  and  N3_19 
REMARK    6  A    between atoms: C18_24  and  O2_25 
ROOT
HETATM    1  C4  UNL     1      24.263   3.112  50.367  1.00  0.00     0.069 A 
HETATM    2  C5  UNL     1      24.520   2.433  51.529  1.00  0.00     0.048 A 
HETATM    3  C6  UNL     1      23.754   1.395  52.013  1.00  0.00     0.024 A 
HETATM    4  C7  UNL     1      24.098   0.776  53.194  1.00  0.00     0.073 A 
HETATM    5  C14 UNL     1      23.285  -0.267  53.631  1.00  0.00     0.071 A 
HETATM    6  C15 UNL     1      22.175  -0.659  52.898  1.00  0.00     0.148 A 
HETATM    7  N4  UNL     1      21.884  -0.017  51.745  1.00  0.00    -0.258 NA
HETATM    8  C16 UNL     1      22.647   0.994  51.294  1.00  0.00     0.071 A 
HETATM    9  C17 UNL     1      22.371   1.651  50.140  1.00  0.00     0.071 A 
HETATM   10  C18 UNL     1      23.150   2.678  49.685  1.00  0.00     0.097 A 
ENDROOT
BRANCH   4  11
HETATM   11  N2  UNL     1      25.232   1.160  53.961  1.00  0.00    -0.354 N 
HETATM   12  H6  UNL     1      24.789   1.649  54.741  1.00  0.00     0.166 HD
BRANCH  11  13
HETATM   13  C8  UNL     1      26.612   0.944  53.742  1.00  0.00     0.033 A 
HETATM   14  C9  UNL     1      27.457   2.016  53.690  1.00  0.00     0.029 A 
HETATM   15  C10 UNL     1      28.792   1.669  53.468  1.00  0.00     0.004 A 
HETATM   16  C11 UNL     1      29.234   0.369  53.312  1.00  0.00     0.019 A 
HETATM   17  C12 UNL     1      28.316  -0.661  53.377  1.00  0.00     0.013 A 
HETATM   18 BR1  UNL     1      28.876  -2.459  53.169  1.00  0.00    -0.051 Br
HETATM   19  C13 UNL     1      26.971  -0.364  53.597  1.00  0.00     0.048 A 
ENDBRANCH  11  13
ENDBRANCH   4  11
BRANCH   5  20
HETATM   20  N3  UNL     1      23.551  -0.970  54.833  1.00  0.00    -0.396 N 
HETATM   21  H11 UNL     1      22.740  -0.708  55.456  1.00  0.00     0.156 HD
HETATM   22  H12 UNL     1      24.400  -1.586  54.957  1.00  0.00     0.156 HD
ENDBRANCH   5  20
BRANCH   1  23
HETATM   23  N1  UNL     1      25.001   4.182  49.812  1.00  0.00    -0.321 N 
HETATM   24  C3  UNL     1      26.333   4.201  49.341  1.00  0.00     0.242 C 
HETATM   25  O1  UNL     1      27.020   3.157  49.393  1.00  0.00    -0.269 OA
HETATM   26  H4  UNL     1      24.563   5.121  49.703  1.00  0.00     0.169 HD
BRANCH  24  27
HETATM   27  C2  UNL     1      27.010   5.358  48.783  1.00  0.00     0.048 C 
HETATM   28  C1  UNL     1      28.273   5.238  48.450  1.00  0.00     0.037 C 
ENDBRANCH  24  27
ENDBRANCH   1  23
BRANCH  10  29
HETATM   29  O2  UNL     1      22.790   3.289  48.496  1.00  0.00    -0.354 OA
HETATM   30  C19 UNL     1      21.649   4.069  48.304  1.00  0.00     0.210 C 
ENDBRANCH  10  29
TORSDOF 6
ENDMDL
MODEL 5
REMARK VINA RESULT:      -7.7      2.473      4.973
REMARK  6 active torsions:
REMARK  status: ('A' for Active; 'I' for Inactive)
REMARK    1  A    between atoms: C2_2  and  C3_3 
REMARK       I    between atoms: C3_3  and  N1_5 
REMARK    2  A    between atoms: N1_5  and  C4_6 
REMARK    3  A    between atoms: C7_9  and  N2_10 
REMARK    4  A    between atoms: N2_10  and  C8_11 
REMARK    5  A    between atoms: C14_18  and  N3_19 
REMARK    6  A    between atoms: C18_24  and  O2_25 
ROOT
HETATM    1  C4  UNL     1      25.632   2.395  52.006  1.00  0.00     0.069 A 
HETATM    2  C5  UNL     1      24.318   2.061  52.207  1.00  0.00     0.048 A 
HETATM    3  C6  UNL     1      23.889   1.040  53.026  1.00  0.00     0.024 A 
HETATM    4  C7  UNL     1      22.543   0.784  53.161  1.00  0.00     0.073 A 
HETATM    5  C14 UNL     1      22.170  -0.261  54.003  1.00  0.00     0.071 A 
HETATM    6  C15 UNL     1      23.126  -1.008  54.675  1.00  0.00     0.148 A 
HETATM    7  N4  UNL     1      24.433  -0.714  54.507  1.00  0.00    -0.258 NA
HETATM    8  C16 UNL     1      24.828   0.288  53.702  1.00  0.00     0.071 A 
HETATM    9  C17 UNL     1      26.136   0.599  53.519  1.00  0.00     0.071 A 
HETATM   10  C18 UNL     1      26.532   1.619  52.699  1.00  0.00     0.097 A 
ENDROOT
BRANCH   4  11
HETATM   11  N2  UNL     1      21.545   1.537  52.482  1.00  0.00    -0.354 N 
HETATM   12  H6  UNL     1      20.991   1.887  53.266  1.00  0.00     0.166 HD
BRANCH  11  13
HETATM   13  C8  UNL     1      21.340   1.765  51.102  1.00  0.00     0.033 A 
HETATM   14  C9  UNL     1      21.472   0.726  50.225  1.00  0.00     0.029 A 
HETATM   15  C10 UNL     1      21.244   1.083  48.893  1.00  0.00     0.004 A 
HETATM   16  C11 UNL     1      20.915   2.360  48.483  1.00  0.00     0.019 A 
HETATM   17  C12 UNL     1      20.800   3.358  49.432  1.00  0.00     0.013 A 
HETATM   18 BR1  UNL     1      20.350   5.125  48.918  1.00  0.00    -0.051 Br
HETATM   19  C13 UNL     1      21.019   3.050  50.776  1.00  0.00     0.048 A 
ENDBRANCH  11  13
ENDBRANCH   4  11
BRANCH   5  20
HETATM   20  N3  UNL     1      20.812  -0.607  54.211  1.00  0.00    -0.396 N 
HETATM   21  H11 UNL     1      20.461   0.146  54.864  1.00  0.00     0.156 HD
HETATM   22  H12 UNL     1      20.363  -1.451  53.760  1.00  0.00     0.156 HD
ENDBRANCH   5  20
BRANCH   1  23
HETATM   23  N1  UNL     1      26.145   3.424  51.185  1.00  0.00    -0.321 N 
HETATM   24  C3  UNL     1      25.716   3.847  49.908  1.00  0.00     0.242 C 
HETATM   25  O1  UNL     1      24.748   3.273  49.361  1.00  0.00    -0.269 OA
HETATM   26  H4  UNL     1      26.956   3.996  51.504  1.00  0.00     0.169 HD
BRANCH  24  27
HETATM   27  C2  UNL     1      26.311   4.923  49.135  1.00  0.00     0.048 C 
HETATM   28  C1  UNL     1      27.549   4.782  48.723  1.00  0.00     0.037 C 
ENDBRANCH  24  27
ENDBRANCH   1  23
BRANCH  10  29
HETATM   29  O2  UNL     1      27.889   1.863  52.576  1.00  0.00    -0.354 OA
HETATM   30  C19 UNL     1      28.699   2.429  53.562  1.00  0.00     0.210 C 
ENDBRANCH  10  29
TORSDOF 6
ENDMDL
MODEL 6
REMARK VINA RESULT:      -7.6      3.143      6.131
REMARK  6 active torsions:
REMARK  status: ('A' for Active; 'I' for Inactive)
REMARK    1  A    between atoms: C2_2  and  C3_3 
REMARK       I    between atoms: C3_3  and  N1_5 
REMARK    2  A    between atoms: N1_5  and  C4_6 
REMARK    3  A    between atoms: C7_9  and  N2_10 
REMARK    4  A    between atoms: N2_10  and  C8_11 
REMARK    5  A    between atoms: C14_18  and  N3_19 
REMARK    6  A    between atoms: C18_24  and  O2_25 
ROOT
HETATM    1  C4  UNL     1      23.919   5.005  51.127  1.00  0.00     0.069 A 
HETATM    2  C5  UNL     1      23.791   3.684  51.470  1.00  0.00     0.048 A 
HETATM    3  C6  UNL     1      22.627   3.105  51.925  1.00  0.00     0.024 A 
HETATM    4  C7  UNL     1      22.603   1.765  52.244  1.00  0.00     0.073 A 
HETATM    5  C14 UNL     1      21.397   1.237  52.698  1.00  0.00     0.071 A 
HETATM    6  C15 UNL     1      20.271   2.037  52.821  1.00  0.00     0.148 A 
HETATM    7  N4  UNL     1      20.351   3.345  52.494  1.00  0.00    -0.258 NA
HETATM    8  C16 UNL     1      21.499   3.888  52.052  1.00  0.00     0.071 A 
HETATM    9  C17 UNL     1      21.600   5.200  51.719  1.00  0.00     0.071 A 
HETATM   10  C18 UNL     1      22.770   5.747  51.270  1.00  0.00     0.097 A 
ENDROOT
BRANCH   4  11
HETATM   11  N2  UNL     1      23.744   0.926  52.124  1.00  0.00    -0.354 N 
HETATM   12  H6  UNL     1      23.625   0.558  51.179  1.00  0.00     0.166 HD
BRANCH  11  13
HETATM   13  C8  UNL     1      24.786   0.647  53.040  1.00  0.00     0.033 A 
HETATM   14  C9  UNL     1      24.614  -0.341  53.968  1.00  0.00     0.029 A 
HETATM   15  C10 UNL     1      25.714  -0.515  54.811  1.00  0.00     0.004 A 
HETATM   16  C11 UNL     1      26.874   0.231  54.730  1.00  0.00     0.019 A 
HETATM   17  C12 UNL     1      26.970   1.213  53.763  1.00  0.00     0.013 A 
HETATM   18 BR1  UNL     1      28.541   2.262  53.613  1.00  0.00    -0.051 Br
HETATM   19  C13 UNL     1      25.897   1.425  52.897  1.00  0.00     0.048 A 
ENDBRANCH  11  13
ENDBRANCH   4  11
BRANCH   5  20
HETATM   20  N3  UNL     1      21.265  -0.129  53.053  1.00  0.00    -0.396 N 
HETATM   21  H11 UNL     1      21.954  -0.617  52.419  1.00  0.00     0.156 HD
HETATM   22  H12 UNL     1      20.594  -0.462  53.799  1.00  0.00     0.156 HD
ENDBRANCH   5  20
BRANCH   1  23
HETATM   23  N1  UNL     1      25.075   5.666  50.655  1.00  0.00    -0.321 N 
HETATM   24  C3  UNL     1      25.452   5.971  49.328  1.00  0.00     0.242 C 
HETATM   25  O1  UNL     1      24.705   5.639  48.383  1.00  0.00    -0.269 OA
HETATM   26  H4  UNL     1      25.797   6.005  51.326  1.00  0.00     0.169 HD
BRANCH  24  27
HETATM   27  C2  UNL     1      26.671   6.659  48.938  1.00  0.00     0.048 C 
HETATM   28  C1  UNL     1      27.650   5.950  48.430  1.00  0.00     0.037 C 
ENDBRANCH  24  27
ENDBRANCH   1  23
BRANCH  10  29
HETATM   29  O2  UNL     1      22.776   7.095  50.954  1.00  0.00    -0.354 OA
HETATM   30  C19 UNL     1      21.777   7.760  50.242  1.00  0.00     0.210 C 
ENDBRANCH  10  29
TORSDOF 6
ENDMDL
MODEL 7
REMARK VINA RESULT:      -7.5      3.363      5.936
REMARK  6 active torsions:
REMARK  status: ('A' for Active; 'I' for Inactive)
REMARK    1  A    between atoms: C2_2  and  C3_3 
REMARK       I    between atoms: C3_3  and  N1_5 
REMARK    2  A    between atoms: N1_5  and  C4_6 
REMARK    3  A    between atoms: C7_9  and  N2_10 
REMARK    4  A    between atoms: N2_10  and  C8_11 
REMARK    5  A    between atoms: C14_18  and  N3_19 
REMARK    6  A    between atoms: C18_24  and  O2_25 
ROOT
HETATM    1  C4  UNL     1      25.334   2.861  51.402  1.00  0.00     0.069 A 
HETATM    2  C5  UNL     1      24.007   2.697  51.701  1.00  0.00     0.048 A 
HETATM    3  C6  UNL     1      22.974   2.918  50.817  1.00  0.00     0.024 A 
HETATM    4  C7  UNL     1      21.671   2.725  51.217  1.00  0.00     0.073 A 
HETATM    5  C14 UNL     1      20.671   2.964  50.278  1.00  0.00     0.071 A 
HETATM    6  C15 UNL     1      20.985   3.380  48.993  1.00  0.00     0.148 A 
HETATM    7  N4  UNL     1      22.281   3.553  48.654  1.00  0.00    -0.258 NA
HETATM    8  C16 UNL     1      23.272   3.332  49.535  1.00  0.00     0.071 A 
HETATM    9  C17 UNL     1      24.580   3.501  49.214  1.00  0.00     0.071 A 
HETATM   10  C18 UNL     1      25.584   3.274  50.114  1.00  0.00     0.097 A 
ENDROOT
BRANCH   4  11
HETATM   11  N2  UNL     1      21.324   2.298  52.528  1.00  0.00    -0.354 N 
HETATM   12  H6  UNL     1      21.190   3.194  53.001  1.00  0.00     0.166 HD
BRANCH  11  13
HETATM   13  C8  UNL     1      21.190   0.999  53.072  1.00  0.00     0.033 A 
HETATM   14  C9  UNL     1      22.275   0.398  53.644  1.00  0.00     0.029 A 
HETATM   15  C10 UNL     1      22.011  -0.880  54.142  1.00  0.00     0.004 A 
HETATM   16  C11 UNL     1      20.776  -1.495  54.070  1.00  0.00     0.019 A 
HETATM   17  C12 UNL     1      19.728  -0.821  53.475  1.00  0.00     0.013 A 
HETATM   18 BR1  UNL     1      18.016  -1.624  53.353  1.00  0.00    -0.051 Br
HETATM   19  C13 UNL     1      19.943   0.459  52.963  1.00  0.00     0.048 A 
ENDBRANCH  11  13
ENDBRANCH   4  11
BRANCH   5  20
HETATM   20  N3  UNL     1      19.298   2.796  50.587  1.00  0.00    -0.396 N 
HETATM   21  H11 UNL     1      18.836   3.623  50.121  1.00  0.00     0.156 HD
HETATM   22  H12 UNL     1      18.937   1.985  51.162  1.00  0.00     0.156 HD
ENDBRANCH   5  20
BRANCH   1  23
HETATM   23  N1  UNL     1      26.443   2.654  52.254  1.00  0.00    -0.321 N 
HETATM   24  C3  UNL     1      27.169   1.469  52.506  1.00  0.00     0.242 C 
HETATM   25  O1  UNL     1      26.840   0.410  51.928  1.00  0.00    -0.269 OA
HETATM   26  H4  UNL     1      26.835   3.445  52.807  1.00  0.00     0.169 HD
BRANCH  24  27
HETATM   27  C2  UNL     1      28.303   1.353  53.406  1.00  0.00     0.048 C 
HETATM   28  C1  UNL     1      28.926   2.450  53.765  1.00  0.00     0.037 C 
ENDBRANCH  24  27
ENDBRANCH   1  23
BRANCH  10  29
HETATM   29  O2  UNL     1      26.888   3.473  49.695  1.00  0.00    -0.354 OA
HETATM   30  C19 UNL     1      27.325   4.531  48.897  1.00  0.00     0.210 C 
ENDBRANCH  10  29
TORSDOF 6
ENDMDL
MODEL 8
REMARK VINA RESULT:      -7.1      3.493      6.254
REMARK  6 active torsions:
REMARK  status: ('A' for Active; 'I' for Inactive)
REMARK    1  A    between atoms: C2_2  and  C3_3 
REMARK       I    between atoms: C3_3  and  N1_5 
REMARK    2  A    between atoms: N1_5  and  C4_6 
REMARK    3  A    between atoms: C7_9  and  N2_10 
REMARK    4  A    between atoms: N2_10  and  C8_11 
REMARK    5  A    between atoms: C14_18  and  N3_19 
REMARK    6  A    between atoms: C18_24  and  O2_25 
ROOT
HETATM    1  C4  UNL     1      20.472   2.707  52.366  1.00  0.00     0.069 A 
HETATM    2  C5  UNL     1      21.705   3.304  52.417  1.00  0.00     0.048 A 
HETATM    3  C6  UNL     1      22.034   4.473  51.766  1.00  0.00     0.024 A 
HETATM    4  C7  UNL     1      23.304   4.991  51.881  1.00  0.00     0.073 A 
HETATM    5  C14 UNL     1      23.577   6.175  51.201  1.00  0.00     0.071 A 
HETATM    6  C15 UNL     1      22.600   6.799  50.439  1.00  0.00     0.148 A 
HETATM    7  N4  UNL     1      21.370   6.247  50.361  1.00  0.00    -0.258 NA
HETATM    8  C16 UNL     1      21.073   5.104  51.005  1.00  0.00     0.071 A 
HETATM    9  C17 UNL     1      19.844   4.533  50.939  1.00  0.00     0.071 A 
HETATM   10  C18 UNL     1      19.546   3.372  51.596  1.00  0.00     0.097 A 
ENDROOT
BRANCH   4  11
HETATM   11  N2  UNL     1      24.321   4.370  52.657  1.00  0.00    -0.354 N 
HETATM   12  H6  UNL     1      24.336   4.968  53.485  1.00  0.00     0.166 HD
BRANCH  11  13
HETATM   13  C8  UNL     1      25.119   3.232  52.393  1.00  0.00     0.033 A 
HETATM   14  C9  UNL     1      25.620   3.043  51.136  1.00  0.00     0.029 A 
HETATM   15  C10 UNL     1      26.389   1.884  51.006  1.00  0.00     0.004 A 
HETATM   16  C11 UNL     1      26.632   1.001  52.040  1.00  0.00     0.019 A 
HETATM   17  C12 UNL     1      26.089   1.262  53.283  1.00  0.00     0.013 A 
HETATM   18 BR1  UNL     1      26.394   0.079  54.732  1.00  0.00    -0.051 Br
HETATM   19  C13 UNL     1      25.312   2.408  53.462  1.00  0.00     0.048 A 
ENDBRANCH  11  13
ENDBRANCH   4  11
BRANCH   5  20
HETATM   20  N3  UNL     1      24.851   6.793  51.253  1.00  0.00    -0.396 N 
HETATM   21  H11 UNL     1      25.241   6.479  52.183  1.00  0.00     0.156 HD
HETATM   22  H12 UNL     1      25.220   7.406  50.475  1.00  0.00     0.156 HD
ENDBRANCH   5  20
BRANCH   1  23
HETATM   23  N1  UNL     1      20.063   1.514  53.004  1.00  0.00    -0.321 N 
HETATM   24  C3  UNL     1      20.512   0.191  52.798  1.00  0.00     0.242 C 
HETATM   25  O1  UNL     1      21.397  -0.035  51.943  1.00  0.00    -0.269 OA
HETATM   26  H4  UNL     1      19.329   1.538  53.743  1.00  0.00     0.169 HD
BRANCH  24  27
HETATM   27  C2  UNL     1      20.028  -0.981  53.507  1.00  0.00     0.048 C 
HETATM   28  C1  UNL     1      20.864  -1.626  54.285  1.00  0.00     0.037 C 
ENDBRANCH  24  27
ENDBRANCH   1  23
BRANCH  10  29
HETATM   29  O2  UNL     1      18.264   2.865  51.469  1.00  0.00    -0.354 OA
HETATM   30  C19 UNL     1      17.088   3.601  51.615  1.00  0.00     0.210 C 
ENDBRANCH  10  29
TORSDOF 6
ENDMDL
MODEL 9
REMARK VINA RESULT:      -7.0      3.628      6.028
REMARK  6 active torsions:
REMARK  status: ('A' for Active; 'I' for Inactive)
REMARK    1  A    between atoms: C2_2  and  C3_3 
REMARK       I    between atoms: C3_3  and  N1_5 
REMARK    2  A    between atoms: N1_5  and  C4_6 
REMARK    3  A    between atoms: C7_9  and  N2_10 
REMARK    4  A    between atoms: N2_10  and  C8_11 
REMARK    5  A    between atoms: C14_18  and  N3_19 
REMARK    6  A    between atoms: C18_24  and  O2_25 
ROOT
HETATM    1  C4  UNL     1      24.123   1.562  51.532  1.00  0.00     0.069 A 
HETATM    2  C5  UNL     1      22.819   1.149  51.612  1.00  0.00     0.048 A 
HETATM    3  C6  UNL     1      22.314   0.345  52.612  1.00  0.00     0.024 A 
HETATM    4  C7  UNL     1      20.985  -0.015  52.601  1.00  0.00     0.073 A 
HETATM    5  C14 UNL     1      20.534  -0.828  53.638  1.00  0.00     0.071 A 
HETATM    6  C15 UNL     1      21.398  -1.253  54.637  1.00  0.00     0.148 A 
HETATM    7  N4  UNL     1      22.692  -0.869  54.597  1.00  0.00    -0.258 NA
HETATM    8  C16 UNL     1      23.161  -0.085  53.611  1.00  0.00     0.071 A 
HETATM    9  C17 UNL     1      24.458   0.311  53.554  1.00  0.00     0.071 A 
HETATM   10  C18 UNL     1      24.930   1.109  52.549  1.00  0.00     0.097 A 
ENDROOT
BRANCH   4  11
HETATM   11  N2  UNL     1      20.081   0.410  51.589  1.00  0.00    -0.354 N 
HETATM   12  H6  UNL     1      20.268  -0.275  50.854  1.00  0.00     0.166 HD
BRANCH  11  13
HETATM   13  C8  UNL     1      19.158   1.481  51.565  1.00  0.00     0.033 A 
HETATM   14  C9  UNL     1      19.619   2.764  51.650  1.00  0.00     0.029 A 
HETATM   15  C10 UNL     1      18.608   3.727  51.615  1.00  0.00     0.004 A 
HETATM   16  C11 UNL     1      17.264   3.430  51.506  1.00  0.00     0.019 A 
HETATM   17  C12 UNL     1      16.877   2.106  51.426  1.00  0.00     0.013 A 
HETATM   18 BR1  UNL     1      15.044   1.649  51.276  1.00  0.00    -0.051 Br
HETATM   19  C13 UNL     1      17.851   1.107  51.456  1.00  0.00     0.048 A 
ENDBRANCH  11  13
ENDBRANCH   4  11
BRANCH   5  20
HETATM   20  N3  UNL     1      19.186  -1.256  53.722  1.00  0.00    -0.396 N 
HETATM   21  H11 UNL     1      19.256  -2.208  54.173  1.00  0.00     0.156 HD
HETATM   22  H12 UNL     1      18.378  -0.667  53.377  1.00  0.00     0.156 HD
ENDBRANCH   5  20
BRANCH   1  23
HETATM   23  N1  UNL     1      24.709   2.382  50.541  1.00  0.00    -0.321 N 
HETATM   24  C3  UNL     1      24.789   3.791  50.479  1.00  0.00     0.242 C 
HETATM   25  O1  UNL     1      24.291   4.478  51.398  1.00  0.00    -0.269 OA
HETATM   26  H4  UNL     1      25.166   1.954  49.708  1.00  0.00     0.169 HD
BRANCH  24  27
HETATM   27  C2  UNL     1      25.416   4.550  49.412  1.00  0.00     0.048 C 
HETATM   28  C1  UNL     1      26.699   4.380  49.197  1.00  0.00     0.037 C 
ENDBRANCH  24  27
ENDBRANCH   1  23
BRANCH  10  29
HETATM   29  O2  UNL     1      26.269   1.462  52.575  1.00  0.00    -0.354 OA
HETATM   30  C19 UNL     1      26.937   2.008  53.672  1.00  0.00     0.210 C 
ENDBRANCH  10  29
TORSDOF 6
ENDMDL
