MODEL 1
REMARK VINA RESULT:      -9.9      0.000      0.000
REMARK  4 active torsions:
REMARK  status: ('A' for Active; 'I' for Inactive)
REMARK    1  A    between atoms: C8_9  and  O2_10 
REMARK    2  A    between atoms: C10_12  and  O3_13 
REMARK    3  A    between atoms: C11_14  and  C12_15 
REMARK    4  A    between atoms: C17_21  and  O4_22 
ROOT
HETATM    1  C1  UNL     1      20.328   2.594  47.437  1.00  0.00     0.017 C 
HETATM    2  C2  UNL     1      21.141   2.630  48.300  1.00  0.00    -0.089 C 
HETATM    3  C3  UNL     1      22.110   2.648  49.326  1.00  0.00     0.073 C 
HETATM    4  C4  UNL     1      22.086   2.266  50.614  1.00  0.00    -0.023 C 
HETATM    5  C5  UNL     1      23.386   2.483  51.313  1.00  0.00     0.215 C 
HETATM    6  O1  UNL     1      23.861   1.319  51.948  1.00  0.00    -0.345 OA
HETATM    7  C6  UNL     1      23.484   0.490  52.982  1.00  0.00     0.095 A 
HETATM    8  C7  UNL     1      22.278   0.042  53.450  1.00  0.00     0.077 A 
HETATM    9  C8  UNL     1      22.231  -0.804  54.540  1.00  0.00     0.085 A 
HETATM   10  C9  UNL     1      23.363  -1.213  55.176  1.00  0.00     0.074 A 
HETATM   11  C10 UNL     1      24.582  -0.766  54.712  1.00  0.00     0.077 A 
HETATM   12  C11 UNL     1      24.669   0.086  53.618  1.00  0.00     0.016 A 
HETATM   13  C18 UNL     1      20.892   0.258  53.028  1.00  0.00     0.169 C 
HETATM   14  O5  UNL     1      20.125   0.031  54.032  1.00  0.00    -0.292 OA
HETATM   15  C19 UNL     1      20.179   0.658  51.791  1.00  0.00     0.118 C 
HETATM   16  C20 UNL     1      20.792   1.732  51.025  1.00  0.00    -0.063 C 
HETATM   17  C21 UNL     1      19.783   2.493  50.555  1.00  0.00     0.039 C 
ENDROOT
BRANCH  12  18
HETATM   18  C12 UNL     1      25.992   0.549  53.131  1.00  0.00     0.056 C 
HETATM   19  C13 UNL     1      26.654  -0.459  52.226  1.00  0.00     0.042 C 
HETATM   20  C14 UNL     1      27.630  -1.357  52.907  1.00  0.00     0.272 C 
HETATM   21  N1  UNL     1      28.462  -0.705  53.895  1.00  0.00     0.086 N 
HETATM   22  C15 UNL     1      29.889  -0.951  53.662  1.00  0.00     0.310 C 
HETATM   23  C16 UNL     1      28.301   0.731  53.887  1.00  0.00     0.304 C 
HETATM   24  C17 UNL     1      26.870   1.157  54.163  1.00  0.00     0.155 C 
BRANCH  24  25
HETATM   25  O4  UNL     1      26.893   2.572  54.111  1.00  0.00    -0.393 OA
HETATM   26  H19 UNL     1      26.285   2.869  54.831  1.00  0.00     0.210 HD
ENDBRANCH  24  25
ENDBRANCH  12  18
BRANCH   9  27
HETATM   27  O2  UNL     1      20.987  -1.222  54.962  1.00  0.00    -0.360 OA
HETATM   28  H5  UNL     1      20.098  -0.937  54.552  1.00  0.00     0.217 HD
ENDBRANCH   9  27
BRANCH  11  29
HETATM   29  O3  UNL     1      25.689  -1.220  55.403  1.00  0.00    -0.360 OA
HETATM   30  H7  UNL     1      26.451  -0.559  55.607  1.00  0.00     0.217 HD
ENDBRANCH  11  29
TORSDOF 4
ENDMDL
MODEL 2
REMARK VINA RESULT:      -8.8      3.096      5.406
REMARK  4 active torsions:
REMARK  status: ('A' for Active; 'I' for Inactive)
REMARK    1  A    between atoms: C8_9  and  O2_10 
REMARK    2  A    between atoms: C10_12  and  O3_13 
REMARK    3  A    between atoms: C11_14  and  C12_15 
REMARK    4  A    between atoms: C17_21  and  O4_22 
ROOT
HETATM    1  C1  UNL     1      17.983  -0.916  52.316  1.00  0.00     0.017 C 
HETATM    2  C2  UNL     1      18.745  -0.007  52.318  1.00  0.00    -0.089 C 
HETATM    3  C3  UNL     1      19.663   1.064  52.301  1.00  0.00     0.073 C 
HETATM    4  C4  UNL     1      20.947   1.173  52.682  1.00  0.00    -0.023 C 
HETATM    5  C5  UNL     1      21.509   2.538  52.461  1.00  0.00     0.215 C 
HETATM    6  O1  UNL     1      22.706   2.518  51.719  1.00  0.00    -0.345 OA
HETATM    7  C6  UNL     1      23.994   2.051  51.866  1.00  0.00     0.095 A 
HETATM    8  C7  UNL     1      24.541   0.939  52.447  1.00  0.00     0.077 A 
HETATM    9  C8  UNL     1      25.910   0.752  52.429  1.00  0.00     0.085 A 
HETATM   10  C9  UNL     1      26.746   1.652  51.843  1.00  0.00     0.074 A 
HETATM   11  C10 UNL     1      26.203   2.775  51.255  1.00  0.00     0.077 A 
HETATM   12  C11 UNL     1      24.831   2.997  51.254  1.00  0.00     0.016 A 
HETATM   13  C18 UNL     1      23.971  -0.215  53.147  1.00  0.00     0.169 C 
HETATM   14  O5  UNL     1      24.879  -0.720  53.901  1.00  0.00    -0.292 OA
HETATM   15  C19 UNL     1      22.667  -0.919  53.204  1.00  0.00     0.118 C 
HETATM   16  C20 UNL     1      21.488  -0.068  53.227  1.00  0.00    -0.063 C 
HETATM   17  C21 UNL     1      20.608  -0.651  54.066  1.00  0.00     0.039 C 
ENDROOT
BRANCH  12  18
HETATM   18  C12 UNL     1      24.268   4.209  50.608  1.00  0.00     0.056 C 
HETATM   19  C13 UNL     1      24.716   4.357  49.177  1.00  0.00     0.042 C 
HETATM   20  C14 UNL     1      25.894   5.251  48.985  1.00  0.00     0.272 C 
HETATM   21  N1  UNL     1      25.886   6.443  49.804  1.00  0.00     0.086 N 
HETATM   22  C15 UNL     1      26.067   7.661  49.007  1.00  0.00     0.310 C 
HETATM   23  C16 UNL     1      24.637   6.615  50.511  1.00  0.00     0.304 C 
HETATM   24  C17 UNL     1      24.322   5.447  51.428  1.00  0.00     0.155 C 
BRANCH  24  25
HETATM   25  O4  UNL     1      23.080   5.774  52.025  1.00  0.00    -0.393 OA
HETATM   26  H19 UNL     1      23.273   6.536  52.626  1.00  0.00     0.210 HD
ENDBRANCH  24  25
ENDBRANCH  12  18
BRANCH   9  27
HETATM   27  O2  UNL     1      26.399  -0.388  53.031  1.00  0.00    -0.360 OA
HETATM   28  H5  UNL     1      25.834  -1.164  53.373  1.00  0.00     0.217 HD
ENDBRANCH   9  27
BRANCH  11  29
HETATM   29  O3  UNL     1      27.107   3.646  50.678  1.00  0.00    -0.360 OA
HETATM   30  H7  UNL     1      27.387   4.487  51.202  1.00  0.00     0.217 HD
ENDBRANCH  11  29
TORSDOF 4
ENDMDL
MODEL 3
REMARK VINA RESULT:      -8.8      2.475      6.651
REMARK  4 active torsions:
REMARK  status: ('A' for Active; 'I' for Inactive)
REMARK    1  A    between atoms: C8_9  and  O2_10 
REMARK    2  A    between atoms: C10_12  and  O3_13 
REMARK    3  A    between atoms: C11_14  and  C12_15 
REMARK    4  A    between atoms: C17_21  and  O4_22 
ROOT
HETATM    1  C1  UNL     1      29.683   2.550  54.093  1.00  0.00     0.017 C 
HETATM    2  C2  UNL     1      28.713   2.276  53.470  1.00  0.00    -0.089 C 
HETATM    3  C3  UNL     1      27.543   1.960  52.745  1.00  0.00     0.073 C 
HETATM    4  C4  UNL     1      26.584   1.035  52.916  1.00  0.00    -0.023 C 
HETATM    5  C5  UNL     1      25.523   1.093  51.869  1.00  0.00     0.215 C 
HETATM    6  O1  UNL     1      24.227   1.184  52.414  1.00  0.00    -0.345 OA
HETATM    7  C6  UNL     1      23.381   0.411  53.178  1.00  0.00     0.095 A 
HETATM    8  C7  UNL     1      23.567  -0.458  54.219  1.00  0.00     0.077 A 
HETATM    9  C8  UNL     1      22.483  -1.098  54.788  1.00  0.00     0.085 A 
HETATM   10  C9  UNL     1      21.215  -0.890  54.339  1.00  0.00     0.074 A 
HETATM   11  C10 UNL     1      21.018  -0.016  53.290  1.00  0.00     0.077 A 
HETATM   12  C11 UNL     1      22.084   0.646  52.693  1.00  0.00     0.016 A 
HETATM   13  C18 UNL     1      24.752  -0.912  54.950  1.00  0.00     0.169 C 
HETATM   14  O5  UNL     1      24.484  -2.046  55.490  1.00  0.00    -0.292 OA
HETATM   15  C19 UNL     1      26.126  -0.418  55.215  1.00  0.00     0.118 C 
HETATM   16  C20 UNL     1      26.809   0.190  54.085  1.00  0.00    -0.063 C 
HETATM   17  C21 UNL     1      28.099  -0.191  54.164  1.00  0.00     0.039 C 
ENDROOT
BRANCH  12  18
HETATM   18  C12 UNL     1      21.848   1.588  51.571  1.00  0.00     0.056 C 
HETATM   19  C13 UNL     1      21.620   3.000  52.046  1.00  0.00     0.042 C 
HETATM   20  C14 UNL     1      20.185   3.383  52.185  1.00  0.00     0.272 C 
HETATM   21  N1  UNL     1      19.325   2.890  51.132  1.00  0.00     0.086 N 
HETATM   22  C15 UNL     1      18.538   3.964  50.516  1.00  0.00     0.310 C 
HETATM   23  C16 UNL     1      20.070   2.278  50.055  1.00  0.00     0.304 C 
HETATM   24  C17 UNL     1      20.911   1.104  50.524  1.00  0.00     0.155 C 
BRANCH  24  25
HETATM   25  O4  UNL     1      21.568   0.637  49.360  1.00  0.00    -0.393 OA
HETATM   26  H19 UNL     1      22.099  -0.142  49.656  1.00  0.00     0.210 HD
ENDBRANCH  24  25
ENDBRANCH  12  18
BRANCH   9  27
HETATM   27  O2  UNL     1      22.736  -1.960  55.833  1.00  0.00    -0.360 OA
HETATM   28  H5  UNL     1      22.030  -2.377  56.439  1.00  0.00     0.217 HD
ENDBRANCH   9  27
BRANCH  11  29
HETATM   29  O3  UNL     1      19.707   0.148  52.886  1.00  0.00    -0.360 OA
HETATM   30  H7  UNL     1      19.396  -0.309  52.018  1.00  0.00     0.217 HD
ENDBRANCH  11  29
TORSDOF 4
ENDMDL
MODEL 4
REMARK VINA RESULT:      -8.3      2.266      2.845
REMARK  4 active torsions:
REMARK  status: ('A' for Active; 'I' for Inactive)
REMARK    1  A    between atoms: C8_9  and  O2_10 
REMARK    2  A    between atoms: C10_12  and  O3_13 
REMARK    3  A    between atoms: C11_14  and  C12_15 
REMARK    4  A    between atoms: C17_21  and  O4_22 
ROOT
HETATM    1  C1  UNL     1      23.163   6.874  46.896  1.00  0.00     0.017 C 
HETATM    2  C2  UNL     1      23.673   6.381  47.846  1.00  0.00    -0.089 C 
HETATM    3  C3  UNL     1      24.276   5.772  48.968  1.00  0.00     0.073 C 
HETATM    4  C4  UNL     1      23.775   5.151  50.049  1.00  0.00    -0.023 C 
HETATM    5  C5  UNL     1      24.831   4.658  50.981  1.00  0.00     0.215 C 
HETATM    6  O1  UNL     1      24.689   3.290  51.288  1.00  0.00    -0.345 OA
HETATM    7  C6  UNL     1      23.787   2.475  51.935  1.00  0.00     0.095 A 
HETATM    8  C7  UNL     1      22.421   2.460  52.038  1.00  0.00     0.077 A 
HETATM    9  C8  UNL     1      21.795   1.482  52.786  1.00  0.00     0.085 A 
HETATM   10  C9  UNL     1      22.502   0.517  53.435  1.00  0.00     0.074 A 
HETATM   11  C10 UNL     1      23.877   0.525  53.338  1.00  0.00     0.077 A 
HETATM   12  C11 UNL     1      24.543   1.492  52.595  1.00  0.00     0.016 A 
HETATM   13  C18 UNL     1      21.362   3.309  51.488  1.00  0.00     0.169 C 
HETATM   14  O5  UNL     1      20.323   3.191  52.232  1.00  0.00    -0.292 OA
HETATM   15  C19 UNL     1      21.191   4.232  50.340  1.00  0.00     0.118 C 
HETATM   16  C20 UNL     1      22.316   5.109  50.058  1.00  0.00    -0.063 C 
HETATM   17  C21 UNL     1      21.796   6.298  49.694  1.00  0.00     0.039 C 
ENDROOT
BRANCH  12  18
HETATM   18  C12 UNL     1      26.023   1.477  52.497  1.00  0.00     0.056 C 
HETATM   19  C13 UNL     1      26.523   0.435  51.529  1.00  0.00     0.042 C 
HETATM   20  C14 UNL     1      26.918  -0.858  52.159  1.00  0.00     0.272 C 
HETATM   21  N1  UNL     1      27.624  -0.726  53.414  1.00  0.00     0.086 N 
HETATM   22  C15 UNL     1      28.891  -1.465  53.414  1.00  0.00     0.310 C 
HETATM   23  C16 UNL     1      27.966   0.647  53.710  1.00  0.00     0.304 C 
HETATM   24  C17 UNL     1      26.745   1.545  53.794  1.00  0.00     0.155 C 
BRANCH  24  25
HETATM   25  O4  UNL     1      27.258   2.834  54.079  1.00  0.00    -0.393 OA
HETATM   26  H19 UNL     1      27.263   2.900  55.065  1.00  0.00     0.210 HD
ENDBRANCH  24  25
ENDBRANCH  12  18
BRANCH   9  27
HETATM   27  O2  UNL     1      20.418   1.521  52.849  1.00  0.00    -0.360 OA
HETATM   28  H5  UNL     1      19.804   0.708  52.833  1.00  0.00     0.217 HD
ENDBRANCH   9  27
BRANCH  11  29
HETATM   29  O3  UNL     1      24.532  -0.483  54.020  1.00  0.00    -0.360 OA
HETATM   30  H7  UNL     1      25.260  -1.021  53.530  1.00  0.00     0.217 HD
ENDBRANCH  11  29
TORSDOF 4
ENDMDL
MODEL 5
REMARK VINA RESULT:      -8.3      2.599      6.004
REMARK  4 active torsions:
REMARK  status: ('A' for Active; 'I' for Inactive)
REMARK    1  A    between atoms: C8_9  and  O2_10 
REMARK    2  A    between atoms: C10_12  and  O3_13 
REMARK    3  A    between atoms: C11_14  and  C12_15 
REMARK    4  A    between atoms: C17_21  and  O4_22 
ROOT
HETATM    1  C1  UNL     1      29.344   0.465  54.003  1.00  0.00     0.017 C 
HETATM    2  C2  UNL     1      28.480   0.982  53.379  1.00  0.00    -0.089 C 
HETATM    3  C3  UNL     1      27.438   1.604  52.656  1.00  0.00     0.073 C 
HETATM    4  C4  UNL     1      26.172   1.243  52.386  1.00  0.00    -0.023 C 
HETATM    5  C5  UNL     1      25.439   2.255  51.569  1.00  0.00     0.215 C 
HETATM    6  O1  UNL     1      24.216   2.639  52.152  1.00  0.00    -0.345 OA
HETATM    7  C6  UNL     1      23.004   2.063  52.463  1.00  0.00     0.095 A 
HETATM    8  C7  UNL     1      22.626   0.825  52.909  1.00  0.00     0.077 A 
HETATM    9  C8  UNL     1      21.291   0.548  53.131  1.00  0.00     0.085 A 
HETATM   10  C9  UNL     1      20.323   1.481  52.917  1.00  0.00     0.074 A 
HETATM   11  C10 UNL     1      20.695   2.731  52.467  1.00  0.00     0.077 A 
HETATM   12  C11 UNL     1      22.028   3.046  52.232  1.00  0.00     0.016 A 
HETATM   13  C18 UNL     1      23.367  -0.392  53.246  1.00  0.00     0.169 C 
HETATM   14  O5  UNL     1      22.567  -1.392  53.150  1.00  0.00    -0.292 OA
HETATM   15  C19 UNL     1      24.748  -0.750  53.652  1.00  0.00     0.118 C 
HETATM   16  C20 UNL     1      25.815  -0.053  52.951  1.00  0.00    -0.063 C 
HETATM   17  C21 UNL     1      26.801  -0.953  52.759  1.00  0.00     0.039 C 
ENDROOT
BRANCH  12  18
HETATM   18  C12 UNL     1      22.406   4.399  51.756  1.00  0.00     0.056 C 
HETATM   19  C13 UNL     1      21.979   4.646  50.332  1.00  0.00     0.042 C 
HETATM   20  C14 UNL     1      23.038   4.393  49.314  1.00  0.00     0.272 C 
HETATM   21  N1  UNL     1      24.360   4.838  49.696  1.00  0.00     0.086 N 
HETATM   22  C15 UNL     1      24.964   5.706  48.679  1.00  0.00     0.310 C 
HETATM   23  C16 UNL     1      24.348   5.608  50.918  1.00  0.00     0.304 C 
HETATM   24  C17 UNL     1      23.789   4.826  52.093  1.00  0.00     0.155 C 
BRANCH  24  25
HETATM   25  O4  UNL     1      23.844   5.722  53.189  1.00  0.00    -0.393 OA
HETATM   26  H19 UNL     1      23.146   6.397  53.008  1.00  0.00     0.210 HD
ENDBRANCH  24  25
ENDBRANCH  12  18
BRANCH   9  27
HETATM   27  O2  UNL     1      20.975  -0.716  53.580  1.00  0.00    -0.360 OA
HETATM   28  H5  UNL     1      20.475  -1.425  53.044  1.00  0.00     0.217 HD
ENDBRANCH   9  27
BRANCH  11  29
HETATM   29  O3  UNL     1      19.663   3.628  52.272  1.00  0.00    -0.360 OA
HETATM   30  H7  UNL     1      19.545   4.052  51.341  1.00  0.00     0.217 HD
ENDBRANCH  11  29
TORSDOF 4
ENDMDL
MODEL 6
REMARK VINA RESULT:      -8.1      2.707      4.475
REMARK  4 active torsions:
REMARK  status: ('A' for Active; 'I' for Inactive)
REMARK    1  A    between atoms: C8_9  and  O2_10 
REMARK    2  A    between atoms: C10_12  and  O3_13 
REMARK    3  A    between atoms: C11_14  and  C12_15 
REMARK    4  A    between atoms: C17_21  and  O4_22 
ROOT
HETATM    1  C1  UNL     1      16.097  -1.085  50.371  1.00  0.00     0.017 C 
HETATM    2  C2  UNL     1      16.887  -0.255  50.673  1.00  0.00    -0.089 C 
HETATM    3  C3  UNL     1      17.847   0.720  51.022  1.00  0.00     0.073 C 
HETATM    4  C4  UNL     1      18.832   0.747  51.935  1.00  0.00    -0.023 C 
HETATM    5  C5  UNL     1      19.601   2.026  51.927  1.00  0.00     0.215 C 
HETATM    6  O1  UNL     1      20.990   1.822  51.806  1.00  0.00    -0.345 OA
HETATM    7  C6  UNL     1      22.009   1.255  52.540  1.00  0.00     0.095 A 
HETATM    8  C7  UNL     1      22.097   0.160  53.357  1.00  0.00     0.077 A 
HETATM    9  C8  UNL     1      23.296  -0.153  53.967  1.00  0.00     0.085 A 
HETATM   10  C9  UNL     1      24.412   0.604  53.779  1.00  0.00     0.074 A 
HETATM   11  C10 UNL     1      24.332   1.708  52.957  1.00  0.00     0.077 A 
HETATM   12  C11 UNL     1      23.143   2.055  52.327  1.00  0.00     0.016 A 
HETATM   13  C18 UNL     1      21.135  -0.861  53.778  1.00  0.00     0.169 C 
HETATM   14  O5  UNL     1      21.543  -1.370  54.883  1.00  0.00    -0.292 OA
HETATM   15  C19 UNL     1      19.862  -1.433  53.274  1.00  0.00     0.118 C 
HETATM   16  C20 UNL     1      18.913  -0.479  52.723  1.00  0.00    -0.063 C 
HETATM   17  C21 UNL     1      17.687  -0.892  53.102  1.00  0.00     0.039 C 
ENDROOT
BRANCH  12  18
HETATM   18  C12 UNL     1      23.082   3.244  51.441  1.00  0.00     0.056 C 
HETATM   19  C13 UNL     1      23.505   2.928  50.028  1.00  0.00     0.042 C 
HETATM   20  C14 UNL     1      24.932   3.232  49.726  1.00  0.00     0.272 C 
HETATM   21  N1  UNL     1      25.422   4.464  50.305  1.00  0.00     0.086 N 
HETATM   22  C15 UNL     1      26.043   5.336  49.302  1.00  0.00     0.310 C 
HETATM   23  C16 UNL     1      24.367   5.245  50.909  1.00  0.00     0.304 C 
HETATM   24  C17 UNL     1      23.648   4.492  52.015  1.00  0.00     0.155 C 
BRANCH  24  25
HETATM   25  O4  UNL     1      22.656   5.388  52.483  1.00  0.00    -0.393 OA
HETATM   26  H19 UNL     1      23.123   5.982  53.121  1.00  0.00     0.210 HD
ENDBRANCH  24  25
ENDBRANCH  12  18
BRANCH   9  27
HETATM   27  O2  UNL     1      23.320  -1.268  54.777  1.00  0.00    -0.360 OA
HETATM   28  H5  UNL     1      23.838  -1.350  55.652  1.00  0.00     0.217 HD
ENDBRANCH   9  27
BRANCH  11  29
HETATM   29  O3  UNL     1      25.501   2.431  52.809  1.00  0.00    -0.360 OA
HETATM   30  H7  UNL     1      25.766   3.098  53.547  1.00  0.00     0.217 HD
ENDBRANCH  11  29
TORSDOF 4
ENDMDL
MODEL 7
REMARK VINA RESULT:      -8.0      4.183      8.022
REMARK  4 active torsions:
REMARK  status: ('A' for Active; 'I' for Inactive)
REMARK    1  A    between atoms: C8_9  and  O2_10 
REMARK    2  A    between atoms: C10_12  and  O3_13 
REMARK    3  A    between atoms: C11_14  and  C12_15 
REMARK    4  A    between atoms: C17_21  and  O4_22 
ROOT
HETATM    1  C1  UNL     1      22.268  -1.656  53.571  1.00  0.00     0.017 C 
HETATM    2  C2  UNL     1      22.197  -0.498  53.325  1.00  0.00    -0.089 C 
HETATM    3  C3  UNL     1      22.117   0.875  53.009  1.00  0.00     0.073 C 
HETATM    4  C4  UNL     1      23.039   1.788  52.662  1.00  0.00    -0.023 C 
HETATM    5  C5  UNL     1      22.458   3.141  52.417  1.00  0.00     0.215 C 
HETATM    6  O1  UNL     1      22.822   3.668  51.162  1.00  0.00    -0.345 OA
HETATM    7  C6  UNL     1      23.968   4.082  50.519  1.00  0.00     0.095 A 
HETATM    8  C7  UNL     1      25.267   3.650  50.518  1.00  0.00     0.077 A 
HETATM    9  C8  UNL     1      26.211   4.297  49.744  1.00  0.00     0.085 A 
HETATM   10  C9  UNL     1      25.886   5.369  48.970  1.00  0.00     0.074 A 
HETATM   11  C10 UNL     1      24.580   5.811  48.965  1.00  0.00     0.077 A 
HETATM   12  C11 UNL     1      23.603   5.185  49.731  1.00  0.00     0.016 A 
HETATM   13  C18 UNL     1      25.965   2.558  51.201  1.00  0.00     0.169 C 
HETATM   14  O5  UNL     1      27.214   2.849  51.257  1.00  0.00    -0.292 OA
HETATM   15  C19 UNL     1      25.611   1.257  51.820  1.00  0.00     0.118 C 
HETATM   16  C20 UNL     1      24.392   1.243  52.612  1.00  0.00    -0.063 C 
HETATM   17  C21 UNL     1      24.632   0.448  53.674  1.00  0.00     0.039 C 
ENDROOT
BRANCH  12  18
HETATM   18  C12 UNL     1      22.202   5.673  49.704  1.00  0.00     0.056 C 
HETATM   19  C13 UNL     1      21.425   5.122  48.536  1.00  0.00     0.042 C 
HETATM   20  C14 UNL     1      21.373   6.020  47.347  1.00  0.00     0.272 C 
HETATM   21  N1  UNL     1      21.198   7.422  47.658  1.00  0.00     0.086 N 
HETATM   22  C15 UNL     1      20.069   8.011  46.929  1.00  0.00     0.310 C 
HETATM   23  C16 UNL     1      20.923   7.644  49.059  1.00  0.00     0.304 C 
HETATM   24  C17 UNL     1      22.033   7.128  49.958  1.00  0.00     0.155 C 
BRANCH  24  25
HETATM   25  O4  UNL     1      21.601   7.417  51.275  1.00  0.00    -0.393 OA
HETATM   26  H19 UNL     1      21.454   6.536  51.700  1.00  0.00     0.210 HD
ENDBRANCH  24  25
ENDBRANCH  12  18
BRANCH   9  27
HETATM   27  O2  UNL     1      27.501   3.814  49.786  1.00  0.00    -0.360 OA
HETATM   28  H5  UNL     1      27.767   2.864  50.044  1.00  0.00     0.217 HD
ENDBRANCH   9  27
BRANCH  11  29
HETATM   29  O3  UNL     1      24.320   6.901  48.157  1.00  0.00    -0.360 OA
HETATM   30  H7  UNL     1      23.514   6.862  47.518  1.00  0.00     0.217 HD
ENDBRANCH  11  29
TORSDOF 4
ENDMDL
MODEL 8
REMARK VINA RESULT:      -7.9      3.164      6.142
REMARK  4 active torsions:
REMARK  status: ('A' for Active; 'I' for Inactive)
REMARK    1  A    between atoms: C8_9  and  O2_10 
REMARK    2  A    between atoms: C10_12  and  O3_13 
REMARK    3  A    between atoms: C11_14  and  C12_15 
REMARK    4  A    between atoms: C17_21  and  O4_22 
ROOT
HETATM    1  C1  UNL     1      26.070   7.059  49.148  1.00  0.00     0.017 C 
HETATM    2  C2  UNL     1      25.320   6.146  49.235  1.00  0.00    -0.089 C 
HETATM    3  C3  UNL     1      24.427   5.060  49.364  1.00  0.00     0.073 C 
HETATM    4  C4  UNL     1      24.587   3.788  49.768  1.00  0.00    -0.023 C 
HETATM    5  C5  UNL     1      23.320   3.001  49.736  1.00  0.00     0.215 C 
HETATM    6  O1  UNL     1      23.040   2.372  50.964  1.00  0.00    -0.345 OA
HETATM    7  C6  UNL     1      23.588   1.389  51.760  1.00  0.00     0.095 A 
HETATM    8  C7  UNL     1      24.870   1.013  52.059  1.00  0.00     0.077 A 
HETATM    9  C8  UNL     1      25.098  -0.046  52.915  1.00  0.00     0.085 A 
HETATM   10  C9  UNL     1      24.072  -0.741  53.480  1.00  0.00     0.074 A 
HETATM   11  C10 UNL     1      22.778  -0.369  53.184  1.00  0.00     0.077 A 
HETATM   12  C11 UNL     1      22.510   0.691  52.327  1.00  0.00     0.016 A 
HETATM   13  C18 UNL     1      26.186   1.516  51.656  1.00  0.00     0.169 C 
HETATM   14  O5  UNL     1      27.042   0.571  51.805  1.00  0.00    -0.292 OA
HETATM   15  C19 UNL     1      26.758   2.784  51.142  1.00  0.00     0.118 C 
HETATM   16  C20 UNL     1      25.963   3.477  50.140  1.00  0.00    -0.063 C 
HETATM   17  C21 UNL     1      26.833   3.988  49.245  1.00  0.00     0.039 C 
ENDROOT
BRANCH  12  18
HETATM   18  C12 UNL     1      21.109   1.079  52.028  1.00  0.00     0.056 C 
HETATM   19  C13 UNL     1      20.285   1.261  53.277  1.00  0.00     0.042 C 
HETATM   20  C14 UNL     1      19.483   0.066  53.670  1.00  0.00     0.272 C 
HETATM   21  N1  UNL     1      18.867  -0.636  52.566  1.00  0.00     0.086 N 
HETATM   22  C15 UNL     1      17.426  -0.821  52.766  1.00  0.00     0.310 C 
HETATM   23  C16 UNL     1      19.006   0.076  51.316  1.00  0.00     0.304 C 
HETATM   24  C17 UNL     1      20.457   0.308  50.937  1.00  0.00     0.155 C 
BRANCH  24  25
HETATM   25  O4  UNL     1      20.407   1.014  49.710  1.00  0.00    -0.393 OA
HETATM   26  H19 UNL     1      19.577   0.709  49.269  1.00  0.00     0.210 HD
ENDBRANCH  24  25
ENDBRANCH  12  18
BRANCH   9  27
HETATM   27  O2  UNL     1      26.410  -0.375  53.178  1.00  0.00    -0.360 OA
HETATM   28  H5  UNL     1      26.922  -1.147  52.751  1.00  0.00     0.217 HD
ENDBRANCH   9  27
BRANCH  11  29
HETATM   29  O3  UNL     1      21.787  -1.116  53.792  1.00  0.00    -0.360 OA
HETATM   30  H7  UNL     1      22.059  -1.845  54.466  1.00  0.00     0.217 HD
ENDBRANCH  11  29
TORSDOF 4
ENDMDL
MODEL 9
REMARK VINA RESULT:      -7.8      3.103      7.377
REMARK  4 active torsions:
REMARK  status: ('A' for Active; 'I' for Inactive)
REMARK    1  A    between atoms: C8_9  and  O2_10 
REMARK    2  A    between atoms: C10_12  and  O3_13 
REMARK    3  A    between atoms: C11_14  and  C12_15 
REMARK    4  A    between atoms: C17_21  and  O4_22 
ROOT
HETATM    1  C1  UNL     1      28.102  -1.006  52.862  1.00  0.00     0.017 C 
HETATM    2  C2  UNL     1      26.933  -0.950  53.051  1.00  0.00    -0.089 C 
HETATM    3  C3  UNL     1      25.538  -0.874  53.253  1.00  0.00     0.073 C 
HETATM    4  C4  UNL     1      24.696   0.157  53.432  1.00  0.00    -0.023 C 
HETATM    5  C5  UNL     1      23.276  -0.271  53.605  1.00  0.00     0.215 C 
HETATM    6  O1  UNL     1      22.401   0.382  52.716  1.00  0.00    -0.345 OA
HETATM    7  C6  UNL     1      21.949   1.662  52.479  1.00  0.00     0.095 A 
HETATM    8  C7  UNL     1      22.526   2.901  52.544  1.00  0.00     0.077 A 
HETATM    9  C8  UNL     1      21.785   4.026  52.239  1.00  0.00     0.085 A 
HETATM   10  C9  UNL     1      20.477   3.941  51.869  1.00  0.00     0.074 A 
HETATM   11  C10 UNL     1      19.888   2.696  51.800  1.00  0.00     0.077 A 
HETATM   12  C11 UNL     1      20.602   1.542  52.101  1.00  0.00     0.016 A 
HETATM   13  C18 UNL     1      23.871   3.368  52.887  1.00  0.00     0.169 C 
HETATM   14  O5  UNL     1      23.790   4.593  53.262  1.00  0.00    -0.292 OA
HETATM   15  C19 UNL     1      25.245   2.810  52.913  1.00  0.00     0.118 C 
HETATM   16  C20 UNL     1      25.368   1.452  53.420  1.00  0.00    -0.063 C 
HETATM   17  C21 UNL     1      26.507   1.412  54.140  1.00  0.00     0.039 C 
ENDROOT
BRANCH  12  18
HETATM   18  C12 UNL     1      19.949   0.212  52.014  1.00  0.00     0.056 C 
HETATM   19  C13 UNL     1      19.205   0.023  50.716  1.00  0.00     0.042 C 
HETATM   20  C14 UNL     1      17.747   0.325  50.788  1.00  0.00     0.272 C 
HETATM   21  N1  UNL     1      17.096  -0.128  51.998  1.00  0.00     0.086 N 
HETATM   22  C15 UNL     1      15.915  -0.949  51.714  1.00  0.00     0.310 C 
HETATM   23  C16 UNL     1      17.963  -0.949  52.813  1.00  0.00     0.304 C 
HETATM   24  C17 UNL     1      19.225  -0.220  53.237  1.00  0.00     0.155 C 
BRANCH  24  25
HETATM   25  O4  UNL     1      19.949  -1.160  54.010  1.00  0.00    -0.393 OA
HETATM   26  H19 UNL     1      19.842  -2.022  53.538  1.00  0.00     0.210 HD
ENDBRANCH  24  25
ENDBRANCH  12  18
BRANCH   9  27
HETATM   27  O2  UNL     1      22.423   5.245  52.322  1.00  0.00    -0.360 OA
HETATM   28  H5  UNL     1      22.873   5.620  53.157  1.00  0.00     0.217 HD
ENDBRANCH   9  27
BRANCH  11  29
HETATM   29  O3  UNL     1      18.560   2.682  51.418  1.00  0.00    -0.360 OA
HETATM   30  H7  UNL     1      17.892   2.128  51.971  1.00  0.00     0.217 HD
ENDBRANCH  11  29
TORSDOF 4
ENDMDL
