MODEL 1
REMARK VINA RESULT:      -7.6      0.000      0.000
REMARK  1 active torsions:
REMARK  status: ('A' for Active; 'I' for Inactive)
REMARK    1  A    between atoms: N3_6  and  C4_7 
ROOT
HETATM    1  C1  UNL     1      21.764   6.341  51.093  1.00  0.00     0.070 C 
HETATM    2  C2  UNL     1      21.968   4.952  50.581  1.00  0.00     0.032 C 
HETATM    3  N1  UNL     1      22.980   4.313  51.116  1.00  0.00    -0.235 NA
HETATM    4  C3  UNL     1      23.148   2.918  51.442  1.00  0.00     0.164 C 
HETATM    5  N2  UNL     1      23.330   2.671  52.716  1.00  0.00    -0.150 NA
HETATM    6  N3  UNL     1      23.504   1.320  53.119  1.00  0.00    -0.243 N 
HETATM    7  C10 UNL     1      22.330   0.593  53.445  1.00  0.00     0.119 C 
HETATM    8  C11 UNL     1      21.190   0.172  52.954  1.00  0.00     0.021 C 
HETATM    9  C12 UNL     1      20.504   0.269  51.677  1.00  0.00     0.018 C 
HETATM   10  C13 UNL     1      20.768   0.822  50.518  1.00  0.00     0.086 C 
HETATM   11  N4  UNL     1      21.809   1.582  49.921  1.00  0.00    -0.379 N 
HETATM   12  C14 UNL     1      21.305   2.137  48.680  1.00  0.00     0.150 C 
HETATM   13  C15 UNL     1      20.648   3.443  49.007  1.00  0.00    -0.005 C 
HETATM   14  C16 UNL     1      20.951   4.616  49.561  1.00  0.00     0.024 C 
HETATM   15  C17 UNL     1      23.132   1.754  50.486  1.00  0.00     0.204 C 
ENDROOT
BRANCH   6  16
HETATM   16  C4  UNL     1      24.830   0.790  53.159  1.00  0.00     0.059 A 
HETATM   17  C5  UNL     1      24.971  -0.569  52.998  1.00  0.00     0.031 A 
HETATM   18  C6  UNL     1      26.268  -1.038  53.042  1.00  0.00     0.004 A 
HETATM   19  C7  UNL     1      27.349  -0.224  53.234  1.00  0.00     0.019 A 
HETATM   20  C8  UNL     1      27.178   1.156  53.395  1.00  0.00     0.013 A 
HETATM   21 BR1  UNL     1      28.617   2.368  53.665  1.00  0.00    -0.051 Br
HETATM   22  C9  UNL     1      25.890   1.645  53.354  1.00  0.00     0.050 A 
ENDBRANCH   6  16
TORSDOF 1
ENDMDL
MODEL 2
REMARK VINA RESULT:      -7.5      2.312      5.730
REMARK  1 active torsions:
REMARK  status: ('A' for Active; 'I' for Inactive)
REMARK    1  A    between atoms: N3_6  and  C4_7 
ROOT
HETATM    1  C1  UNL     1      27.137  -0.132  52.688  1.00  0.00     0.070 C 
HETATM    2  C2  UNL     1      25.770   0.462  52.798  1.00  0.00     0.032 C 
HETATM    3  N1  UNL     1      25.690   1.723  52.448  1.00  0.00    -0.235 NA
HETATM    4  C3  UNL     1      24.634   2.454  51.793  1.00  0.00     0.164 C 
HETATM    5  N2  UNL     1      24.961   2.966  50.631  1.00  0.00    -0.150 NA
HETATM    6  N3  UNL     1      23.976   3.702  49.920  1.00  0.00    -0.243 N 
HETATM    7  C10 UNL     1      23.144   2.968  49.035  1.00  0.00     0.119 C 
HETATM    8  C11 UNL     1      22.274   1.990  48.986  1.00  0.00     0.021 C 
HETATM    9  C12 UNL     1      21.676   1.075  49.944  1.00  0.00     0.018 C 
HETATM   10  C13 UNL     1      21.783   0.879  51.237  1.00  0.00     0.086 C 
HETATM   11  N4  UNL     1      22.503   1.425  52.333  1.00  0.00    -0.379 N 
HETATM   12  C14 UNL     1      22.373   0.515  53.454  1.00  0.00     0.150 C 
HETATM   13  C15 UNL     1      23.472  -0.497  53.340  1.00  0.00    -0.005 C 
HETATM   14  C16 UNL     1      24.802  -0.542  53.289  1.00  0.00     0.024 C 
HETATM   15  C17 UNL     1      23.233   2.677  52.299  1.00  0.00     0.204 C 
ENDROOT
BRANCH   6  16
HETATM   16  C4  UNL     1      23.884   5.109  50.150  1.00  0.00     0.059 A 
HETATM   17  C5  UNL     1      22.653   5.610  50.506  1.00  0.00     0.031 A 
HETATM   18  C6  UNL     1      22.609   6.973  50.719  1.00  0.00     0.004 A 
HETATM   19  C7  UNL     1      23.702   7.783  50.587  1.00  0.00     0.019 A 
HETATM   20  C8  UNL     1      24.942   7.247  50.223  1.00  0.00     0.013 A 
HETATM   21 BR1  UNL     1      26.518   8.291  50.017  1.00  0.00    -0.051 Br
HETATM   22  C9  UNL     1      25.008   5.888  50.007  1.00  0.00     0.050 A 
ENDBRANCH   6  16
TORSDOF 1
ENDMDL
MODEL 3
REMARK VINA RESULT:      -7.2      9.230     11.719
REMARK  1 active torsions:
REMARK  status: ('A' for Active; 'I' for Inactive)
REMARK    1  A    between atoms: N3_6  and  C4_7 
ROOT
HETATM    1  C1  UNL     1      33.178   1.551  48.225  1.00  0.00     0.070 C 
HETATM    2  C2  UNL     1      33.093   2.820  47.440  1.00  0.00     0.032 C 
HETATM    3  N1  UNL     1      31.942   3.441  47.525  1.00  0.00    -0.235 NA
HETATM    4  C3  UNL     1      31.628   4.849  47.535  1.00  0.00     0.164 C 
HETATM    5  N2  UNL     1      31.047   5.273  48.631  1.00  0.00    -0.150 NA
HETATM    6  N3  UNL     1      30.706   6.648  48.720  1.00  0.00    -0.243 N 
HETATM    7  C10 UNL     1      31.691   7.520  49.254  1.00  0.00     0.119 C 
HETATM    8  C11 UNL     1      32.911   7.960  49.065  1.00  0.00     0.021 C 
HETATM    9  C12 UNL     1      33.966   7.729  48.093  1.00  0.00     0.018 C 
HETATM   10  C13 UNL     1      34.099   6.982  47.023  1.00  0.00     0.086 C 
HETATM   11  N4  UNL     1      33.327   6.048  46.283  1.00  0.00    -0.379 N 
HETATM   12  C14 UNL     1      34.214   5.356  45.369  1.00  0.00     0.150 C 
HETATM   13  C15 UNL     1      34.783   4.180  46.102  1.00  0.00    -0.005 C 
HETATM   14  C16 UNL     1      34.366   3.084  46.734  1.00  0.00     0.024 C 
HETATM   15  C17 UNL     1      31.900   5.848  46.441  1.00  0.00     0.204 C 
ENDROOT
BRANCH   6  16
HETATM   16  C4  UNL     1      29.415   7.058  48.264  1.00  0.00     0.059 A 
HETATM   17  C5  UNL     1      28.377   6.169  48.426  1.00  0.00     0.031 A 
HETATM   18  C6  UNL     1      27.150   6.605  47.972  1.00  0.00     0.004 A 
HETATM   19  C7  UNL     1      26.960   7.830  47.397  1.00  0.00     0.019 A 
HETATM   20  C8  UNL     1      28.033   8.716  47.244  1.00  0.00     0.013 A 
HETATM   21 BR1  UNL     1      27.869  10.440  46.458  1.00  0.00    -0.051 Br
HETATM   22  C9  UNL     1      29.268   8.300  47.691  1.00  0.00     0.050 A 
ENDBRANCH   6  16
TORSDOF 1
ENDMDL
MODEL 4
REMARK VINA RESULT:      -7.2      2.793      4.643
REMARK  1 active torsions:
REMARK  status: ('A' for Active; 'I' for Inactive)
REMARK    1  A    between atoms: N3_6  and  C4_7 
ROOT
HETATM    1  C1  UNL     1      20.389   5.252  48.361  1.00  0.00     0.070 C 
HETATM    2  C2  UNL     1      21.504   5.634  49.279  1.00  0.00     0.032 C 
HETATM    3  N1  UNL     1      22.001   4.644  49.981  1.00  0.00    -0.235 NA
HETATM    4  C3  UNL     1      23.350   4.383  50.418  1.00  0.00     0.164 C 
HETATM    5  N2  UNL     1      23.874   3.276  49.948  1.00  0.00    -0.150 NA
HETATM    6  N3  UNL     1      25.200   2.946  50.331  1.00  0.00    -0.243 N 
HETATM    7  C10 UNL     1      26.246   3.444  49.511  1.00  0.00     0.119 C 
HETATM    8  C11 UNL     1      26.782   4.550  49.057  1.00  0.00     0.021 C 
HETATM    9  C12 UNL     1      26.520   5.973  49.196  1.00  0.00     0.018 C 
HETATM   10  C13 UNL     1      25.635   6.698  49.837  1.00  0.00     0.086 C 
HETATM   11  N4  UNL     1      24.518   6.493  50.691  1.00  0.00    -0.379 N 
HETATM   12  C14 UNL     1      23.793   7.744  50.791  1.00  0.00     0.150 C 
HETATM   13  C15 UNL     1      22.815   7.787  49.657  1.00  0.00    -0.005 C 
HETATM   14  C16 UNL     1      21.793   7.081  49.176  1.00  0.00     0.024 C 
HETATM   15  C17 UNL     1      24.190   5.235  51.332  1.00  0.00     0.204 C 
ENDROOT
BRANCH   6  16
HETATM   16  C4  UNL     1      25.390   2.155  51.505  1.00  0.00     0.059 A 
HETATM   17  C5  UNL     1      26.615   2.232  52.127  1.00  0.00     0.031 A 
HETATM   18  C6  UNL     1      26.754   1.452  53.256  1.00  0.00     0.004 A 
HETATM   19  C7  UNL     1      25.756   0.652  53.737  1.00  0.00     0.019 A 
HETATM   20  C8  UNL     1      24.519   0.591  53.085  1.00  0.00     0.013 A 
HETATM   21 BR1  UNL     1      23.071  -0.490  53.677  1.00  0.00    -0.051 Br
HETATM   22  C9  UNL     1      24.359   1.363  51.955  1.00  0.00     0.050 A 
ENDBRANCH   6  16
TORSDOF 1
ENDMDL
MODEL 5
REMARK VINA RESULT:      -6.9      2.958      6.078
REMARK  1 active torsions:
REMARK  status: ('A' for Active; 'I' for Inactive)
REMARK    1  A    between atoms: N3_6  and  C4_7 
ROOT
HETATM    1  C1  UNL     1      26.351   0.588  54.603  1.00  0.00     0.070 C 
HETATM    2  C2  UNL     1      25.834   1.036  53.274  1.00  0.00     0.032 C 
HETATM    3  N1  UNL     1      24.585   0.715  53.035  1.00  0.00    -0.235 NA
HETATM    4  C3  UNL     1      23.553   1.419  52.315  1.00  0.00     0.164 C 
HETATM    5  N2  UNL     1      22.508   1.748  53.037  1.00  0.00    -0.150 NA
HETATM    6  N3  UNL     1      21.446   2.444  52.402  1.00  0.00    -0.243 N 
HETATM    7  C10 UNL     1      21.522   3.861  52.395  1.00  0.00     0.119 C 
HETATM    8  C11 UNL     1      22.260   4.867  51.994  1.00  0.00     0.021 C 
HETATM    9  C12 UNL     1      23.512   5.022  51.273  1.00  0.00     0.018 C 
HETATM   10  C13 UNL     1      24.390   4.203  50.745  1.00  0.00     0.086 C 
HETATM   11  N4  UNL     1      24.579   2.802  50.606  1.00  0.00    -0.379 N 
HETATM   12  C14 UNL     1      25.945   2.574  50.176  1.00  0.00     0.150 C 
HETATM   13  C15 UNL     1      26.792   2.483  51.408  1.00  0.00    -0.005 C 
HETATM   14  C16 UNL     1      26.883   1.758  52.522  1.00  0.00     0.024 C 
HETATM   15  C17 UNL     1      23.560   1.803  50.859  1.00  0.00     0.204 C 
ENDROOT
BRANCH   6  16
HETATM   16  C4  UNL     1      20.393   1.680  51.812  1.00  0.00     0.059 A 
HETATM   17  C5  UNL     1      20.068   1.958  50.503  1.00  0.00     0.031 A 
HETATM   18  C6  UNL     1      19.047   1.198  49.974  1.00  0.00     0.004 A 
HETATM   19  C7  UNL     1      18.390   0.233  50.684  1.00  0.00     0.019 A 
HETATM   20  C8  UNL     1      18.740  -0.030  52.014  1.00  0.00     0.013 A 
HETATM   21 BR1  UNL     1      17.887  -1.352  53.083  1.00  0.00    -0.051 Br
HETATM   22  C9  UNL     1      19.758   0.718  52.562  1.00  0.00     0.050 A 
ENDBRANCH   6  16
TORSDOF 1
ENDMDL
MODEL 6
REMARK VINA RESULT:      -6.9      8.276     10.405
REMARK  1 active torsions:
REMARK  status: ('A' for Active; 'I' for Inactive)
REMARK    1  A    between atoms: N3_6  and  C4_7 
ROOT
HETATM    1  C1  UNL     1      26.871  13.509  48.203  1.00  0.00     0.070 C 
HETATM    2  C2  UNL     1      27.836  12.447  48.624  1.00  0.00     0.032 C 
HETATM    3  N1  UNL     1      27.317  11.249  48.742  1.00  0.00    -0.235 NA
HETATM    4  C3  UNL     1      27.876   9.949  48.469  1.00  0.00     0.164 C 
HETATM    5  N2  UNL     1      27.256   9.270  47.534  1.00  0.00    -0.150 NA
HETATM    6  N3  UNL     1      27.745   7.978  47.206  1.00  0.00    -0.243 N 
HETATM    7  C10 UNL     1      28.736   7.907  46.192  1.00  0.00     0.119 C 
HETATM    8  C11 UNL     1      29.942   8.311  45.878  1.00  0.00     0.021 C 
HETATM    9  C12 UNL     1      30.965   9.131  46.505  1.00  0.00     0.018 C 
HETATM   10  C13 UNL     1      31.069   9.788  47.635  1.00  0.00     0.086 C 
HETATM   11  N4  UNL     1      30.280  10.037  48.790  1.00  0.00    -0.379 N 
HETATM   12  C14 UNL     1      30.899  11.118  49.532  1.00  0.00     0.150 C 
HETATM   13  C15 UNL     1      30.358  12.403  48.985  1.00  0.00    -0.005 C 
HETATM   14  C16 UNL     1      29.188  13.016  48.813  1.00  0.00     0.024 C 
HETATM   15  C17 UNL     1      29.071   9.316  49.134  1.00  0.00     0.204 C 
ENDROOT
BRANCH   6  16
HETATM   16  C4  UNL     1      27.222   6.854  47.916  1.00  0.00     0.059 A 
HETATM   17  C5  UNL     1      28.093   5.827  48.201  1.00  0.00     0.031 A 
HETATM   18  C6  UNL     1      27.546   4.763  48.888  1.00  0.00     0.004 A 
HETATM   19  C7  UNL     1      26.234   4.715  49.266  1.00  0.00     0.019 A 
HETATM   20  C8  UNL     1      25.369   5.773  48.964  1.00  0.00     0.013 A 
HETATM   21 BR1  UNL     1      23.531   5.799  49.449  1.00  0.00    -0.051 Br
HETATM   22  C9  UNL     1      25.895   6.847  48.278  1.00  0.00     0.050 A 
ENDBRANCH   6  16
TORSDOF 1
ENDMDL
MODEL 7
REMARK VINA RESULT:      -6.9      3.209      4.444
REMARK  1 active torsions:
REMARK  status: ('A' for Active; 'I' for Inactive)
REMARK    1  A    between atoms: N3_6  and  C4_7 
ROOT
HETATM    1  C1  UNL     1      18.600   4.781  49.909  1.00  0.00     0.070 C 
HETATM    2  C2  UNL     1      19.709   3.809  49.667  1.00  0.00     0.032 C 
HETATM    3  N1  UNL     1      20.874   4.357  49.418  1.00  0.00    -0.235 NA
HETATM    4  C3  UNL     1      22.208   3.935  49.767  1.00  0.00     0.164 C 
HETATM    5  N2  UNL     1      22.862   4.768  50.540  1.00  0.00    -0.150 NA
HETATM    6  N3  UNL     1      24.183   4.425  50.930  1.00  0.00    -0.243 N 
HETATM    7  C10 UNL     1      24.324   3.666  52.121  1.00  0.00     0.119 C 
HETATM    8  C11 UNL     1      23.993   2.529  52.682  1.00  0.00     0.021 C 
HETATM    9  C12 UNL     1      23.225   1.358  52.295  1.00  0.00     0.018 C 
HETATM   10  C13 UNL     1      22.561   0.991  51.225  1.00  0.00     0.086 C 
HETATM   11  N4  UNL     1      22.253   1.514  49.941  1.00  0.00    -0.379 N 
HETATM   12  C14 UNL     1      21.200   0.701  49.365  1.00  0.00     0.150 C 
HETATM   13  C15 UNL     1      19.893   1.272  49.822  1.00  0.00    -0.005 C 
HETATM   14  C16 UNL     1      19.216   2.418  49.769  1.00  0.00     0.024 C 
HETATM   15  C17 UNL     1      22.899   2.666  49.343  1.00  0.00     0.204 C 
ENDROOT
BRANCH   6  16
HETATM   16  C4  UNL     1      25.266   4.851  50.102  1.00  0.00     0.059 A 
HETATM   17  C5  UNL     1      26.226   3.917  49.786  1.00  0.00     0.031 A 
HETATM   18  C6  UNL     1      27.252   4.371  48.985  1.00  0.00     0.004 A 
HETATM   19  C7  UNL     1      27.328   5.657  48.528  1.00  0.00     0.019 A 
HETATM   20  C8  UNL     1      26.339   6.588  48.864  1.00  0.00     0.013 A 
HETATM   21 BR1  UNL     1      26.356   8.397  48.277  1.00  0.00    -0.051 Br
HETATM   22  C9  UNL     1      25.304   6.155  49.663  1.00  0.00     0.050 A 
ENDBRANCH   6  16
TORSDOF 1
ENDMDL
MODEL 8
REMARK VINA RESULT:      -6.8      3.013      4.033
REMARK  1 active torsions:
REMARK  status: ('A' for Active; 'I' for Inactive)
REMARK    1  A    between atoms: N3_6  and  C4_7 
ROOT
HETATM    1  C1  UNL     1      16.217   4.380  52.117  1.00  0.00     0.070 C 
HETATM    2  C2  UNL     1      16.956   3.197  51.582  1.00  0.00     0.032 C 
HETATM    3  N1  UNL     1      18.260   3.333  51.549  1.00  0.00    -0.235 NA
HETATM    4  C3  UNL     1      19.313   2.371  51.758  1.00  0.00     0.164 C 
HETATM    5  N2  UNL     1      20.099   2.631  52.776  1.00  0.00    -0.150 NA
HETATM    6  N3  UNL     1      21.162   1.731  53.049  1.00  0.00    -0.243 N 
HETATM    7  C10 UNL     1      20.877   0.648  53.921  1.00  0.00     0.119 C 
HETATM    8  C11 UNL     1      20.110  -0.406  54.064  1.00  0.00     0.021 C 
HETATM    9  C12 UNL     1      19.052  -1.040  53.296  1.00  0.00     0.018 C 
HETATM   10  C13 UNL     1      18.455  -0.795  52.154  1.00  0.00     0.086 C 
HETATM   11  N4  UNL     1      18.517   0.170  51.114  1.00  0.00    -0.379 N 
HETATM   12  C14 UNL     1      17.340   0.012  50.283  1.00  0.00     0.150 C 
HETATM   13  C15 UNL     1      16.252   0.849  50.883  1.00  0.00    -0.005 C 
HETATM   14  C16 UNL     1      16.015   2.119  51.205  1.00  0.00     0.024 C 
HETATM   15  C17 UNL     1      19.588   1.133  50.945  1.00  0.00     0.204 C 
ENDROOT
BRANCH   6  16
HETATM   16  C4  UNL     1      22.427   1.967  52.429  1.00  0.00     0.059 A 
HETATM   17  C5  UNL     1      22.542   3.087  51.636  1.00  0.00     0.031 A 
HETATM   18  C6  UNL     1      23.779   3.277  51.058  1.00  0.00     0.004 A 
HETATM   19  C7  UNL     1      24.829   2.423  51.246  1.00  0.00     0.019 A 
HETATM   20  C8  UNL     1      24.686   1.291  52.057  1.00  0.00     0.013 A 
HETATM   21 BR1  UNL     1      26.087   0.046  52.380  1.00  0.00    -0.051 Br
HETATM   22  C9  UNL     1      23.457   1.082  52.645  1.00  0.00     0.050 A 
ENDBRANCH   6  16
TORSDOF 1
ENDMDL
MODEL 9
REMARK VINA RESULT:      -6.7      2.759      6.512
REMARK  1 active torsions:
REMARK  status: ('A' for Active; 'I' for Inactive)
REMARK    1  A    between atoms: N3_6  and  C4_7 
ROOT
HETATM    1  C1  UNL     1      21.473  -1.323  54.523  1.00  0.00     0.070 C 
HETATM    2  C2  UNL     1      22.263  -0.556  53.513  1.00  0.00     0.032 C 
HETATM    3  N1  UNL     1      21.562  -0.088  52.509  1.00  0.00    -0.235 NA
HETATM    4  C3  UNL     1      21.696   1.134  51.754  1.00  0.00     0.164 C 
HETATM    5  N2  UNL     1      20.664   1.940  51.829  1.00  0.00    -0.150 NA
HETATM    6  N3  UNL     1      20.717   3.166  51.114  1.00  0.00    -0.243 N 
HETATM    7  C10 UNL     1      21.269   4.282  51.795  1.00  0.00     0.119 C 
HETATM    8  C11 UNL     1      22.358   4.716  52.380  1.00  0.00     0.021 C 
HETATM    9  C12 UNL     1      23.686   4.187  52.641  1.00  0.00     0.018 C 
HETATM   10  C13 UNL     1      24.305   3.059  52.388  1.00  0.00     0.086 C 
HETATM   11  N4  UNL     1      24.025   1.817  51.758  1.00  0.00    -0.379 N 
HETATM   12  C14 UNL     1      25.079   0.886  52.111  1.00  0.00     0.150 C 
HETATM   13  C15 UNL     1      24.685   0.230  53.399  1.00  0.00    -0.005 C 
HETATM   14  C16 UNL     1      23.691  -0.503  53.896  1.00  0.00     0.024 C 
HETATM   15  C17 UNL     1      22.873   1.560  50.917  1.00  0.00     0.204 C 
ENDROOT
BRANCH   6  16
HETATM   16  C4  UNL     1      20.228   3.189  49.772  1.00  0.00     0.059 A 
HETATM   17  C5  UNL     1      18.920   2.812  49.570  1.00  0.00     0.031 A 
HETATM   18  C6  UNL     1      18.489   2.849  48.261  1.00  0.00     0.004 A 
HETATM   19  C7  UNL     1      19.292   3.231  47.223  1.00  0.00     0.019 A 
HETATM   20  C8  UNL     1      20.619   3.610  47.455  1.00  0.00     0.013 A 
HETATM   21 BR1  UNL     1      21.812   4.157  46.078  1.00  0.00    -0.051 Br
HETATM   22  C9  UNL     1      21.070   3.580  48.757  1.00  0.00     0.050 A 
ENDBRANCH   6  16
TORSDOF 1
ENDMDL
