MODEL 1
REMARK VINA RESULT:      -8.2      0.000      0.000
REMARK  3 active torsions:
REMARK  status: ('A' for Active; 'I' for Inactive)
REMARK    1  A    between atoms: C2_2  and  N1_3 
REMARK    2  A    between atoms: C10_13  and  N4_15 
REMARK    3  A    between atoms: N4_15  and  C12_16 
ROOT
HETATM    1  N1  UNL     1      27.710   2.156  53.677  1.00  0.00     0.088 N 
HETATM    2  C3  UNL     1      26.534   1.680  54.373  1.00  0.00     0.276 C 
HETATM    3  C4  UNL     1      25.274   2.008  53.545  1.00  0.00     0.074 C 
HETATM    4  C5  UNL     1      25.268   1.165  52.289  1.00  0.00     0.105 C 
HETATM    5  C6  UNL     1      24.591  -0.161  52.565  1.00  0.00     0.030 C 
HETATM    6  C7  UNL     1      23.529  -0.492  53.269  1.00  0.00     0.088 C 
HETATM    7  N2  UNL     1      22.463  -0.096  54.085  1.00  0.00    -0.361 N 
HETATM    8  C8  UNL     1      21.057  -0.087  53.868  1.00  0.00     0.200 C 
HETATM    9  N3  UNL     1      20.059   0.631  53.392  1.00  0.00    -0.281 NA
HETATM   10  C9  UNL     1      20.472   1.915  52.873  1.00  0.00     0.202 C 
HETATM   11  C10 UNL     1      19.914   2.174  51.462  1.00  0.00     0.221 C 
HETATM   12  C11 UNL     1      20.380   1.034  50.601  1.00  0.00     0.063 C 
HETATM   13  S1  UNL     1      20.505   3.719  50.805  1.00  0.00    -0.126 SA
HETATM   14  C18 UNL     1      22.256   3.894  50.600  1.00  0.00     0.077 C 
HETATM   15  C19 UNL     1      22.905   3.035  49.555  1.00  0.00     0.027 C 
HETATM   16  C20 UNL     1      24.429   3.292  49.573  1.00  0.00     0.118 C 
HETATM   17  N5  UNL     1      24.952   2.971  50.891  1.00  0.00    -0.205 NA
HETATM   18  O1  UNL     1      24.604   1.758  51.262  1.00  0.00    -0.290 OA
HETATM   19  C21 UNL     1      26.704   0.916  51.867  1.00  0.00     0.074 C 
HETATM   20  C22 UNL     1      27.550   2.085  52.241  1.00  0.00     0.276 C 
HETATM   21  H12 UNL     1      22.619   0.271  55.048  1.00  0.00     0.166 HD
HETATM   22  H32 UNL     1      24.806   3.766  51.499  1.00  0.00     0.153 HD
ENDROOT
BRANCH  11  23
HETATM   23  N4  UNL     1      18.483   2.162  51.652  1.00  0.00     0.123 N 
HETATM   24  H19 UNL     1      18.178   3.087  51.960  1.00  0.00     0.320 HD
BRANCH  23  25
HETATM   25  C12 UNL     1      17.704   1.557  50.639  1.00  0.00     0.211 A 
HETATM   26  C13 UNL     1      17.848   2.197  49.278  1.00  0.00     0.060 C 
HETATM   27  C14 UNL     1      17.733   0.095  50.574  1.00  0.00     0.020 A 
HETATM   28  C15 UNL     1      16.545  -0.434  50.877  1.00  0.00     0.000 A 
HETATM   29  C16 UNL     1      15.615   0.648  51.174  1.00  0.00     0.022 A 
HETATM   30  C17 UNL     1      16.268   1.793  51.040  1.00  0.00     0.053 A 
HETATM   31 CL1  UNL     1      15.675   3.426  51.268  1.00  0.00    -0.086 Cl
ENDBRANCH  23  25
ENDBRANCH  11  23
BRANCH   1  32
HETATM   32  C2  UNL     1      28.886   1.429  54.048  1.00  0.00     0.268 C 
HETATM   33  C1  UNL     1      28.517   0.204  54.880  1.00  0.00     0.037 C 
ENDBRANCH   1  32
TORSDOF 3
ENDMDL
MODEL 2
REMARK VINA RESULT:      -7.9      3.371      4.691
REMARK  3 active torsions:
REMARK  status: ('A' for Active; 'I' for Inactive)
REMARK    1  A    between atoms: C2_2  and  N1_3 
REMARK    2  A    between atoms: C10_13  and  N4_15 
REMARK    3  A    between atoms: N4_15  and  C12_16 
ROOT
HETATM    1  N1  UNL     1      27.357   1.137  53.923  1.00  0.00     0.088 N 
HETATM    2  C3  UNL     1      25.974   1.453  54.211  1.00  0.00     0.276 C 
HETATM    3  C4  UNL     1      25.469   2.517  53.214  1.00  0.00     0.074 C 
HETATM    4  C5  UNL     1      25.378   1.905  51.833  1.00  0.00     0.105 C 
HETATM    5  C6  UNL     1      24.021   1.262  51.646  1.00  0.00     0.030 C 
HETATM    6  C7  UNL     1      22.806   1.624  51.998  1.00  0.00     0.088 C 
HETATM    7  N2  UNL     1      21.967   2.557  52.618  1.00  0.00    -0.361 N 
HETATM    8  C8  UNL     1      20.976   3.434  52.097  1.00  0.00     0.200 C 
HETATM    9  N3  UNL     1      20.781   4.631  51.579  1.00  0.00    -0.281 NA
HETATM   10  C9  UNL     1      21.992   5.412  51.468  1.00  0.00     0.202 C 
HETATM   11  C10 UNL     1      22.163   6.014  50.061  1.00  0.00     0.221 C 
HETATM   12  C11 UNL     1      22.135   4.863  49.096  1.00  0.00     0.063 C 
HETATM   13  S1  UNL     1      23.701   6.898  49.917  1.00  0.00    -0.126 SA
HETATM   14  C18 UNL     1      25.192   5.971  50.159  1.00  0.00     0.077 C 
HETATM   15  C19 UNL     1      25.521   4.937  49.123  1.00  0.00     0.027 C 
HETATM   16  C20 UNL     1      26.817   4.205  49.542  1.00  0.00     0.118 C 
HETATM   17  N5  UNL     1      26.614   3.579  50.839  1.00  0.00    -0.205 NA
HETATM   18  O1  UNL     1      25.539   2.821  50.842  1.00  0.00    -0.290 OA
HETATM   19  C21 UNL     1      26.457   0.845  51.702  1.00  0.00     0.074 C 
HETATM   20  C22 UNL     1      27.648   1.235  52.509  1.00  0.00     0.276 C 
HETATM   21  H12 UNL     1      21.991   2.714  53.649  1.00  0.00     0.166 HD
HETATM   22  H32 UNL     1      26.765   4.272  51.560  1.00  0.00     0.153 HD
ENDROOT
BRANCH  11  23
HETATM   23  N4  UNL     1      21.012   6.873  49.915  1.00  0.00     0.123 N 
HETATM   24  H19 UNL     1      20.834   7.349  50.802  1.00  0.00     0.320 HD
BRANCH  23  25
HETATM   25  C12 UNL     1      20.954   7.681  48.755  1.00  0.00     0.211 A 
HETATM   26  C13 UNL     1      21.965   8.803  48.728  1.00  0.00     0.060 C 
HETATM   27  C14 UNL     1      20.862   6.982  47.473  1.00  0.00     0.020 A 
HETATM   28  C15 UNL     1      19.688   7.202  46.876  1.00  0.00     0.000 A 
HETATM   29  C16 UNL     1      18.891   8.079  47.724  1.00  0.00     0.022 A 
HETATM   30  C17 UNL     1      19.607   8.359  48.803  1.00  0.00     0.053 A 
HETATM   31 CL1  UNL     1      19.174   9.361  50.174  1.00  0.00    -0.086 Cl
ENDBRANCH  23  25
ENDBRANCH  11  23
BRANCH   1  32
HETATM   32  C2  UNL     1      27.714  -0.172  54.379  1.00  0.00     0.268 C 
HETATM   33  C1  UNL     1      29.141  -0.514  53.958  1.00  0.00     0.037 C 
ENDBRANCH   1  32
TORSDOF 3
ENDMDL
MODEL 3
REMARK VINA RESULT:      -7.7      1.870      3.556
REMARK  3 active torsions:
REMARK  status: ('A' for Active; 'I' for Inactive)
REMARK    1  A    between atoms: C2_2  and  N1_3 
REMARK    2  A    between atoms: C10_13  and  N4_15 
REMARK    3  A    between atoms: N4_15  and  C12_16 
ROOT
HETATM    1  N1  UNL     1      27.202  -0.328  53.113  1.00  0.00     0.088 N 
HETATM    2  C3  UNL     1      26.802   0.526  52.015  1.00  0.00     0.276 C 
HETATM    3  C4  UNL     1      25.263   0.614  51.963  1.00  0.00     0.074 C 
HETATM    4  C5  UNL     1      24.766   1.385  53.166  1.00  0.00     0.105 C 
HETATM    5  C6  UNL     1      24.739   2.865  52.852  1.00  0.00     0.030 C 
HETATM    6  C7  UNL     1      24.394   3.544  51.778  1.00  0.00     0.088 C 
HETATM    7  N2  UNL     1      23.920   3.541  50.461  1.00  0.00    -0.361 N 
HETATM    8  C8  UNL     1      22.696   3.992  49.894  1.00  0.00     0.200 C 
HETATM    9  N3  UNL     1      21.459   3.634  49.612  1.00  0.00    -0.281 NA
HETATM   10  C9  UNL     1      21.153   2.275  49.995  1.00  0.00     0.202 C 
HETATM   11  C10 UNL     1      19.849   2.185  50.810  1.00  0.00     0.221 C 
HETATM   12  C11 UNL     1      20.023   3.088  51.998  1.00  0.00     0.063 C 
HETATM   13  S1  UNL     1      19.536   0.518  51.348  1.00  0.00    -0.126 SA
HETATM   14  C18 UNL     1      20.743  -0.231  52.407  1.00  0.00     0.077 C 
HETATM   15  C19 UNL     1      20.881   0.343  53.787  1.00  0.00     0.027 C 
HETATM   16  C20 UNL     1      22.016  -0.403  54.526  1.00  0.00     0.118 C 
HETATM   17  N5  UNL     1      23.256  -0.245  53.783  1.00  0.00    -0.205 NA
HETATM   18  O1  UNL     1      23.510   1.023  53.540  1.00  0.00    -0.290 OA
HETATM   19  C21 UNL     1      25.714   1.137  54.325  1.00  0.00     0.074 C 
HETATM   20  C22 UNL     1      26.282  -0.238  54.226  1.00  0.00     0.276 C 
HETATM   21  H12 UNL     1      24.492   3.163  49.675  1.00  0.00     0.166 HD
HETATM   22  H32 UNL     1      23.279  -0.933  53.042  1.00  0.00     0.153 HD
ENDROOT
BRANCH  11  23
HETATM   23  N4  UNL     1      18.842   2.674  49.898  1.00  0.00     0.123 N 
HETATM   24  H19 UNL     1      19.112   2.436  48.942  1.00  0.00     0.320 HD
BRANCH  23  25
HETATM   25  C12 UNL     1      17.492   2.432  50.241  1.00  0.00     0.211 A 
HETATM   26  C13 UNL     1      16.953   1.109  49.751  1.00  0.00     0.060 C 
HETATM   27  C14 UNL     1      17.105   2.714  51.624  1.00  0.00     0.020 A 
HETATM   28  C15 UNL     1      16.246   3.734  51.697  1.00  0.00     0.000 A 
HETATM   29  C16 UNL     1      15.987   4.222  50.348  1.00  0.00     0.022 A 
HETATM   30  C17 UNL     1      16.696   3.483  49.506  1.00  0.00     0.053 A 
HETATM   31 CL1  UNL     1      16.791   3.599  47.760  1.00  0.00    -0.086 Cl
ENDBRANCH  23  25
ENDBRANCH  11  23
BRANCH   1  32
HETATM   32  C2  UNL     1      28.521  -0.022  53.578  1.00  0.00     0.268 C 
HETATM   33  C1  UNL     1      29.439  -1.231  53.416  1.00  0.00     0.037 C 
ENDBRANCH   1  32
TORSDOF 3
ENDMDL
MODEL 4
REMARK VINA RESULT:      -7.6      4.982      7.151
REMARK  3 active torsions:
REMARK  status: ('A' for Active; 'I' for Inactive)
REMARK    1  A    between atoms: C2_2  and  N1_3 
REMARK    2  A    between atoms: C10_13  and  N4_15 
REMARK    3  A    between atoms: N4_15  and  C12_16 
ROOT
HETATM    1  N1  UNL     1      27.722  10.625  49.268  1.00  0.00     0.088 N 
HETATM    2  C3  UNL     1      28.104   9.291  49.677  1.00  0.00     0.276 C 
HETATM    3  C4  UNL     1      26.837   8.440  49.910  1.00  0.00     0.074 C 
HETATM    4  C5  UNL     1      26.154   8.187  48.584  1.00  0.00     0.105 C 
HETATM    5  C6  UNL     1      26.724   6.941  47.943  1.00  0.00     0.030 C 
HETATM    6  C7  UNL     1      27.087   5.773  48.428  1.00  0.00     0.088 C 
HETATM    7  N2  UNL     1      27.229   4.929  49.536  1.00  0.00    -0.361 N 
HETATM    8  C8  UNL     1      26.559   3.728  49.904  1.00  0.00     0.200 C 
HETATM    9  N3  UNL     1      25.508   3.249  50.538  1.00  0.00    -0.281 NA
HETATM   10  C9  UNL     1      24.662   4.274  51.106  1.00  0.00     0.202 C 
HETATM   11  C10 UNL     1      23.182   4.074  50.732  1.00  0.00     0.221 C 
HETATM   12  C11 UNL     1      23.119   4.048  49.230  1.00  0.00     0.063 C 
HETATM   13  S1  UNL     1      22.170   5.394  51.365  1.00  0.00    -0.126 SA
HETATM   14  C18 UNL     1      22.528   7.033  50.795  1.00  0.00     0.077 C 
HETATM   15  C19 UNL     1      22.252   7.320  49.348  1.00  0.00     0.027 C 
HETATM   16  C20 UNL     1      22.681   8.773  49.038  1.00  0.00     0.118 C 
HETATM   17  N5  UNL     1      24.099   8.924  49.326  1.00  0.00    -0.205 NA
HETATM   18  O1  UNL     1      24.813   8.007  48.711  1.00  0.00    -0.290 OA
HETATM   19  C21 UNL     1      26.405   9.378  47.676  1.00  0.00     0.074 C 
HETATM   20  C22 UNL     1      26.502  10.622  48.491  1.00  0.00     0.276 C 
HETATM   21  H12 UNL     1      27.925   5.123  50.287  1.00  0.00     0.166 HD
HETATM   22  H32 UNL     1      24.211   9.097  50.316  1.00  0.00     0.153 HD
ENDROOT
BRANCH  11  23
HETATM   23  N4  UNL     1      22.853   2.793  51.310  1.00  0.00     0.123 N 
HETATM   24  H19 UNL     1      23.284   2.723  52.235  1.00  0.00     0.320 HD
BRANCH  23  25
HETATM   25  C12 UNL     1      21.506   2.373  51.220  1.00  0.00     0.211 A 
HETATM   26  C13 UNL     1      20.627   2.853  52.351  1.00  0.00     0.060 C 
HETATM   27  C14 UNL     1      20.861   2.513  49.914  1.00  0.00     0.020 A 
HETATM   28  C15 UNL     1      20.571   1.325  49.378  1.00  0.00     0.000 A 
HETATM   29  C16 UNL     1      21.006   0.281  50.296  1.00  0.00     0.022 A 
HETATM   30  C17 UNL     1      21.543   0.870  51.355  1.00  0.00     0.053 A 
HETATM   31 CL1  UNL     1      22.239   0.131  52.784  1.00  0.00    -0.086 Cl
ENDBRANCH  23  25
ENDBRANCH  11  23
BRANCH   1  32
HETATM   32  C2  UNL     1      28.752  11.270  48.510  1.00  0.00     0.268 C 
HETATM   33  C1  UNL     1      28.899  12.727  48.937  1.00  0.00     0.037 C 
ENDBRANCH   1  32
TORSDOF 3
ENDMDL
MODEL 5
REMARK VINA RESULT:      -7.5      4.448      8.655
REMARK  3 active torsions:
REMARK  status: ('A' for Active; 'I' for Inactive)
REMARK    1  A    between atoms: C2_2  and  N1_3 
REMARK    2  A    between atoms: C10_13  and  N4_15 
REMARK    3  A    between atoms: N4_15  and  C12_16 
ROOT
HETATM    1  N1  UNL     1      19.625   0.658  51.285  1.00  0.00     0.088 N 
HETATM    2  C3  UNL     1      21.045   0.452  51.105  1.00  0.00     0.276 C 
HETATM    3  C4  UNL     1      21.699   1.760  50.613  1.00  0.00     0.074 C 
HETATM    4  C5  UNL     1      21.661   2.787  51.723  1.00  0.00     0.105 C 
HETATM    5  C6  UNL     1      22.890   2.644  52.595  1.00  0.00     0.030 C 
HETATM    6  C7  UNL     1      24.155   2.405  52.323  1.00  0.00     0.088 C 
HETATM    7  N2  UNL     1      25.148   2.159  51.367  1.00  0.00    -0.361 N 
HETATM    8  C8  UNL     1      26.260   2.934  50.934  1.00  0.00     0.200 C 
HETATM    9  N3  UNL     1      26.638   3.868  50.084  1.00  0.00    -0.281 NA
HETATM   10  C9  UNL     1      25.571   4.332  49.228  1.00  0.00     0.202 C 
HETATM   11  C10 UNL     1      25.474   5.869  49.207  1.00  0.00     0.221 C 
HETATM   12  C11 UNL     1      25.293   6.306  50.634  1.00  0.00     0.063 C 
HETATM   13  S1  UNL     1      24.099   6.418  48.220  1.00  0.00    -0.126 SA
HETATM   14  C18 UNL     1      22.481   5.904  48.727  1.00  0.00     0.077 C 
HETATM   15  C19 UNL     1      21.967   6.469  50.018  1.00  0.00     0.027 C 
HETATM   16  C20 UNL     1      20.576   5.858  50.311  1.00  0.00     0.118 C 
HETATM   17  N5  UNL     1      20.699   4.412  50.401  1.00  0.00    -0.205 NA
HETATM   18  O1  UNL     1      21.634   4.063  51.258  1.00  0.00    -0.290 OA
HETATM   19  C21 UNL     1      20.421   2.544  52.564  1.00  0.00     0.074 C 
HETATM   20  C22 UNL     1      19.326   2.010  51.705  1.00  0.00     0.276 C 
HETATM   21  H12 UNL     1      25.170   1.273  50.816  1.00  0.00     0.166 HD
HETATM   22  H32 UNL     1      20.678   4.027  49.466  1.00  0.00     0.153 HD
ENDROOT
BRANCH  11  23
HETATM   23  N4  UNL     1      26.747   6.284  48.670  1.00  0.00     0.123 N 
HETATM   24  H19 UNL     1      27.014   5.652  47.912  1.00  0.00     0.320 HD
BRANCH  23  25
HETATM   25  C12 UNL     1      26.919   7.665  48.414  1.00  0.00     0.211 A 
HETATM   26  C13 UNL     1      26.453   8.107  47.048  1.00  0.00     0.060 C 
HETATM   27  C14 UNL     1      26.498   8.584  49.472  1.00  0.00     0.020 A 
HETATM   28  C15 UNL     1      27.538   9.233  50.003  1.00  0.00     0.000 A 
HETATM   29  C16 UNL     1      28.754   8.791  49.333  1.00  0.00     0.022 A 
HETATM   30  C17 UNL     1      28.411   7.893  48.421  1.00  0.00     0.053 A 
HETATM   31 CL1  UNL     1      29.441   7.012  47.309  1.00  0.00    -0.086 Cl
ENDBRANCH  23  25
ENDBRANCH  11  23
BRANCH   1  32
HETATM   32  C2  UNL     1      19.065  -0.255  52.235  1.00  0.00     0.268 C 
HETATM   33  C1  UNL     1      17.555  -0.365  52.047  1.00  0.00     0.037 C 
ENDBRANCH   1  32
TORSDOF 3
ENDMDL
MODEL 6
REMARK VINA RESULT:      -7.4      4.175      6.110
REMARK  3 active torsions:
REMARK  status: ('A' for Active; 'I' for Inactive)
REMARK    1  A    between atoms: C2_2  and  N1_3 
REMARK    2  A    between atoms: C10_13  and  N4_15 
REMARK    3  A    between atoms: N4_15  and  C12_16 
ROOT
HETATM    1  N1  UNL     1      26.597   9.644  49.258  1.00  0.00     0.088 N 
HETATM    2  C3  UNL     1      26.823   8.482  50.089  1.00  0.00     0.276 C 
HETATM    3  C4  UNL     1      25.659   7.484  49.912  1.00  0.00     0.074 C 
HETATM    4  C5  UNL     1      25.713   6.897  48.518  1.00  0.00     0.105 C 
HETATM    5  C6  UNL     1      26.602   5.673  48.512  1.00  0.00     0.030 C 
HETATM    6  C7  UNL     1      26.765   4.683  49.363  1.00  0.00     0.088 C 
HETATM    7  N2  UNL     1      26.414   4.077  50.575  1.00  0.00    -0.361 N 
HETATM    8  C8  UNL     1      25.731   2.862  50.864  1.00  0.00     0.200 C 
HETATM    9  N3  UNL     1      24.539   2.329  51.044  1.00  0.00    -0.281 NA
HETATM   10  C9  UNL     1      23.459   3.280  50.914  1.00  0.00     0.202 C 
HETATM   11  C10 UNL     1      22.356   2.775  49.966  1.00  0.00     0.221 C 
HETATM   12  C11 UNL     1      23.021   2.482  48.651  1.00  0.00     0.063 C 
HETATM   13  S1  UNL     1      21.079   3.995  49.749  1.00  0.00    -0.126 SA
HETATM   14  C18 UNL     1      21.556   5.549  49.043  1.00  0.00     0.077 C 
HETATM   15  C19 UNL     1      21.989   5.534  47.606  1.00  0.00     0.027 C 
HETATM   16  C20 UNL     1      22.417   6.963  47.199  1.00  0.00     0.118 C 
HETATM   17  N5  UNL     1      23.510   7.396  48.055  1.00  0.00    -0.205 NA
HETATM   18  O1  UNL     1      24.490   6.520  48.061  1.00  0.00    -0.290 OA
HETATM   19  C21 UNL     1      26.288   7.940  47.576  1.00  0.00     0.074 C 
HETATM   20  C22 UNL     1      25.901   9.304  48.036  1.00  0.00     0.276 C 
HETATM   21  H12 UNL     1      26.651   4.511  51.493  1.00  0.00     0.166 HD
HETATM   22  H32 UNL     1      23.122   7.752  48.919  1.00  0.00     0.153 HD
ENDROOT
BRANCH  11  23
HETATM   23  N4  UNL     1      21.875   1.575  50.610  1.00  0.00     0.123 N 
HETATM   24  H19 UNL     1      22.674   1.014  50.912  1.00  0.00     0.320 HD
BRANCH  23  25
HETATM   25  C12 UNL     1      20.830   1.724  51.551  1.00  0.00     0.211 A 
HETATM   26  C13 UNL     1      20.877   3.016  52.332  1.00  0.00     0.060 C 
HETATM   27  C14 UNL     1      19.481   1.399  51.090  1.00  0.00     0.020 A 
HETATM   28  C15 UNL     1      18.992   0.324  51.714  1.00  0.00     0.000 A 
HETATM   29  C16 UNL     1      19.992  -0.162  52.657  1.00  0.00     0.022 A 
HETATM   30  C17 UNL     1      21.049   0.633  52.571  1.00  0.00     0.053 A 
HETATM   31 CL1  UNL     1      22.559   0.547  53.458  1.00  0.00    -0.086 Cl
ENDBRANCH  23  25
ENDBRANCH  11  23
BRANCH   1  32
HETATM   32  C2  UNL     1      27.818  10.312  48.923  1.00  0.00     0.268 C 
HETATM   33  C1  UNL     1      29.020   9.465  49.332  1.00  0.00     0.037 C 
ENDBRANCH   1  32
TORSDOF 3
ENDMDL
MODEL 7
REMARK VINA RESULT:      -7.2      4.242      6.806
REMARK  3 active torsions:
REMARK  status: ('A' for Active; 'I' for Inactive)
REMARK    1  A    between atoms: C2_2  and  N1_3 
REMARK    2  A    between atoms: C10_13  and  N4_15 
REMARK    3  A    between atoms: N4_15  and  C12_16 
ROOT
HETATM    1  N1  UNL     1      26.430   8.848  46.562  1.00  0.00     0.088 N 
HETATM    2  C3  UNL     1      25.085   8.851  47.097  1.00  0.00     0.276 C 
HETATM    3  C4  UNL     1      24.825   7.529  47.850  1.00  0.00     0.074 C 
HETATM    4  C5  UNL     1      25.670   7.494  49.104  1.00  0.00     0.105 C 
HETATM    5  C6  UNL     1      24.921   8.149  50.245  1.00  0.00     0.030 C 
HETATM    6  C7  UNL     1      23.660   8.120  50.618  1.00  0.00     0.088 C 
HETATM    7  N2  UNL     1      22.358   7.650  50.404  1.00  0.00    -0.361 N 
HETATM    8  C8  UNL     1      21.539   6.757  51.149  1.00  0.00     0.200 C 
HETATM    9  N3  UNL     1      21.232   5.486  51.319  1.00  0.00    -0.281 NA
HETATM   10  C9  UNL     1      21.970   4.597  50.451  1.00  0.00     0.202 C 
HETATM   11  C10 UNL     1      22.611   3.432  51.229  1.00  0.00     0.221 C 
HETATM   12  C11 UNL     1      23.482   4.051  52.285  1.00  0.00     0.063 C 
HETATM   13  S1  UNL     1      23.588   2.399  50.158  1.00  0.00    -0.126 SA
HETATM   14  C18 UNL     1      24.960   3.157  49.333  1.00  0.00     0.077 C 
HETATM   15  C19 UNL     1      26.107   3.598  50.194  1.00  0.00     0.027 C 
HETATM   16  C20 UNL     1      27.168   4.281  49.300  1.00  0.00     0.118 C 
HETATM   17  N5  UNL     1      26.565   5.423  48.631  1.00  0.00    -0.205 NA
HETATM   18  O1  UNL     1      25.983   6.229  49.491  1.00  0.00    -0.290 OA
HETATM   19  C21 UNL     1      26.955   8.260  48.844  1.00  0.00     0.074 C 
HETATM   20  C22 UNL     1      27.345   8.118  47.412  1.00  0.00     0.276 C 
HETATM   21  H12 UNL     1      21.798   7.950  49.578  1.00  0.00     0.166 HD
HETATM   22  H32 UNL     1      26.076   5.095  47.809  1.00  0.00     0.153 HD
ENDROOT
BRANCH  11  23
HETATM   23  N4  UNL     1      21.481   2.736  51.796  1.00  0.00     0.123 N 
HETATM   24  H19 UNL     1      20.621   3.100  51.381  1.00  0.00     0.320 HD
BRANCH  23  25
HETATM   25  C12 UNL     1      21.576   1.329  51.894  1.00  0.00     0.211 A 
HETATM   26  C13 UNL     1      21.543   0.609  50.567  1.00  0.00     0.060 C 
HETATM   27  C14 UNL     1      22.606   0.801  52.790  1.00  0.00     0.020 A 
HETATM   28  C15 UNL     1      22.071   0.173  53.840  1.00  0.00     0.000 A 
HETATM   29  C16 UNL     1      20.619   0.231  53.727  1.00  0.00     0.022 A 
HETATM   30  C17 UNL     1      20.324   0.891  52.616  1.00  0.00     0.053 A 
HETATM   31 CL1  UNL     1      18.747   1.276  51.957  1.00  0.00    -0.086 Cl
ENDBRANCH  23  25
ENDBRANCH  11  23
BRANCH   1  32
HETATM   32  C2  UNL     1      26.935  10.174  46.371  1.00  0.00     0.268 C 
HETATM   33  C1  UNL     1      25.888  11.209  46.775  1.00  0.00     0.037 C 
ENDBRANCH   1  32
TORSDOF 3
ENDMDL
MODEL 8
REMARK VINA RESULT:      -7.2     10.646     14.121
REMARK  3 active torsions:
REMARK  status: ('A' for Active; 'I' for Inactive)
REMARK    1  A    between atoms: C2_2  and  N1_3 
REMARK    2  A    between atoms: C10_13  and  N4_15 
REMARK    3  A    between atoms: N4_15  and  C12_16 
ROOT
HETATM    1  N1  UNL     1      28.093  13.749  46.542  1.00  0.00     0.088 N 
HETATM    2  C3  UNL     1      27.541  12.419  46.684  1.00  0.00     0.276 C 
HETATM    3  C4  UNL     1      28.682  11.381  46.668  1.00  0.00     0.074 C 
HETATM    4  C5  UNL     1      29.504  11.523  47.930  1.00  0.00     0.105 C 
HETATM    5  C6  UNL     1      28.908  10.670  49.029  1.00  0.00     0.030 C 
HETATM    6  C7  UNL     1      28.379   9.465  49.036  1.00  0.00     0.088 C 
HETATM    7  N2  UNL     1      28.019   8.311  48.329  1.00  0.00    -0.361 N 
HETATM    8  C8  UNL     1      28.522   6.981  48.369  1.00  0.00     0.200 C 
HETATM    9  N3  UNL     1      29.434   6.173  47.865  1.00  0.00    -0.281 NA
HETATM   10  C9  UNL     1      30.290   6.811  46.891  1.00  0.00     0.202 C 
HETATM   11  C10 UNL     1      31.781   6.561  47.183  1.00  0.00     0.221 C 
HETATM   12  C11 UNL     1      32.035   7.058  48.578  1.00  0.00     0.063 C 
HETATM   13  S1  UNL     1      32.821   7.426  46.027  1.00  0.00    -0.126 SA
HETATM   14  C18 UNL     1      32.694   9.193  45.989  1.00  0.00     0.077 C 
HETATM   15  C19 UNL     1      33.178   9.933  47.201  1.00  0.00     0.027 C 
HETATM   16  C20 UNL     1      32.929  11.445  46.996  1.00  0.00     0.118 C 
HETATM   17  N5  UNL     1      31.506  11.672  46.796  1.00  0.00    -0.205 NA
HETATM   18  O1  UNL     1      30.795  11.133  47.762  1.00  0.00    -0.290 OA
HETATM   19  C21 UNL     1      29.483  12.979  48.360  1.00  0.00     0.074 C 
HETATM   20  C22 UNL     1      29.398  13.858  47.159  1.00  0.00     0.276 C 
HETATM   21  H12 UNL     1      27.253   8.320  47.623  1.00  0.00     0.166 HD
HETATM   22  H32 UNL     1      31.284  11.498  45.825  1.00  0.00     0.153 HD
ENDROOT
BRANCH  11  23
HETATM   23  N4  UNL     1      31.913   5.127  47.085  1.00  0.00     0.123 N 
HETATM   24  H19 UNL     1      31.078   4.744  46.638  1.00  0.00     0.320 HD
BRANCH  23  25
HETATM   25  C12 UNL     1      33.151   4.624  46.622  1.00  0.00     0.211 A 
HETATM   26  C13 UNL     1      33.269   4.550  45.118  1.00  0.00     0.060 C 
HETATM   27  C14 UNL     1      34.356   5.168  47.250  1.00  0.00     0.020 A 
HETATM   28  C15 UNL     1      35.003   4.240  47.960  1.00  0.00     0.000 A 
HETATM   29  C16 UNL     1      34.270   2.984  47.862  1.00  0.00     0.022 A 
HETATM   30  C17 UNL     1      33.208   3.193  47.097  1.00  0.00     0.053 A 
HETATM   31 CL1  UNL     1      31.960   2.058  46.624  1.00  0.00    -0.086 Cl
ENDBRANCH  23  25
ENDBRANCH  11  23
BRANCH   1  32
HETATM   32  C2  UNL     1      27.234  14.750  47.100  1.00  0.00     0.268 C 
HETATM   33  C1  UNL     1      26.100  14.102  47.890  1.00  0.00     0.037 C 
ENDBRANCH   1  32
TORSDOF 3
ENDMDL
MODEL 9
REMARK VINA RESULT:      -7.1      5.615      7.660
REMARK  3 active torsions:
REMARK  status: ('A' for Active; 'I' for Inactive)
REMARK    1  A    between atoms: C2_2  and  N1_3 
REMARK    2  A    between atoms: C10_13  and  N4_15 
REMARK    3  A    between atoms: N4_15  and  C12_16 
ROOT
HETATM    1  N1  UNL     1      29.684  10.444  48.824  1.00  0.00     0.088 N 
HETATM    2  C3  UNL     1      29.650   9.096  49.348  1.00  0.00     0.276 C 
HETATM    3  C4  UNL     1      28.187   8.613  49.437  1.00  0.00     0.074 C 
HETATM    4  C5  UNL     1      27.636   8.429  48.040  1.00  0.00     0.105 C 
HETATM    5  C6  UNL     1      27.940   7.029  47.549  1.00  0.00     0.030 C 
HETATM    6  C7  UNL     1      27.922   5.853  48.139  1.00  0.00     0.088 C 
HETATM    7  N2  UNL     1      27.696   5.097  49.295  1.00  0.00    -0.361 N 
HETATM    8  C8  UNL     1      26.696   4.138  49.620  1.00  0.00     0.200 C 
HETATM    9  N3  UNL     1      25.484   3.993  50.118  1.00  0.00    -0.281 NA
HETATM   10  C9  UNL     1      24.869   5.241  50.506  1.00  0.00     0.202 C 
HETATM   11  C10 UNL     1      23.448   5.388  49.932  1.00  0.00     0.221 C 
HETATM   12  C11 UNL     1      23.573   5.253  48.441  1.00  0.00     0.063 C 
HETATM   13  S1  UNL     1      22.742   6.968  50.347  1.00  0.00    -0.126 SA
HETATM   14  C18 UNL     1      23.583   8.411  49.755  1.00  0.00     0.077 C 
HETATM   15  C19 UNL     1      23.579   8.636  48.271  1.00  0.00     0.027 C 
HETATM   16  C20 UNL     1      24.407   9.903  47.956  1.00  0.00     0.118 C 
HETATM   17  N5  UNL     1      25.767   9.717  48.439  1.00  0.00    -0.205 NA
HETATM   18  O1  UNL     1      26.290   8.601  47.980  1.00  0.00    -0.290 OA
HETATM   19  C21 UNL     1      28.302   9.437  47.121  1.00  0.00     0.074 C 
HETATM   20  C22 UNL     1      28.615  10.681  47.879  1.00  0.00     0.276 C 
HETATM   21  H12 UNL     1      28.318   5.173  50.129  1.00  0.00     0.166 HD
HETATM   22  H32 UNL     1      25.793   9.939  49.425  1.00  0.00     0.153 HD
ENDROOT
BRANCH  11  23
HETATM   23  N4  UNL     1      22.726   4.285  50.519  1.00  0.00     0.123 N 
HETATM   24  H19 UNL     1      22.451   4.534  51.471  1.00  0.00     0.320 HD
BRANCH  23  25
HETATM   25  C12 UNL     1      21.730   3.672  49.724  1.00  0.00     0.211 A 
HETATM   26  C13 UNL     1      20.516   4.536  49.474  1.00  0.00     0.060 C 
HETATM   27  C14 UNL     1      22.185   2.985  48.516  1.00  0.00     0.020 A 
HETATM   28  C15 UNL     1      21.991   1.666  48.596  1.00  0.00     0.000 A 
HETATM   29  C16 UNL     1      21.381   1.363  49.884  1.00  0.00     0.022 A 
HETATM   30  C17 UNL     1      21.227   2.505  50.539  1.00  0.00     0.053 A 
HETATM   31 CL1  UNL     1      20.551   2.771  52.134  1.00  0.00    -0.086 Cl
ENDBRANCH  23  25
ENDBRANCH  11  23
BRANCH   1  32
HETATM   32  C2  UNL     1      30.934  10.743  48.192  1.00  0.00     0.268 C 
HETATM   33  C1  UNL     1      30.926  12.165  47.637  1.00  0.00     0.037 C 
ENDBRANCH   1  32
TORSDOF 3
ENDMDL
