MODEL 1
REMARK VINA RESULT:      -7.6      0.000      0.000
REMARK  5 active torsions:
REMARK  status: ('A' for Active; 'I' for Inactive)
REMARK    1  A    between atoms: C2_2  and  C3_3 
REMARK    2  A    between atoms: C10_11  and  C11_12 
REMARK    3  A    between atoms: C11_12  and  C12_13 
REMARK    4  A    between atoms: C12_13  and  C13_14 
REMARK    5  A    between atoms: C13_14  and  C14_15 
ROOT
HETATM    1  C3  UNL     1      23.086   0.666  52.532  1.00  0.00     0.015 C 
HETATM    2  C4  UNL     1      22.249  -0.391  52.597  1.00  0.00     0.025 C 
HETATM    3  C5  UNL     1      22.351  -1.389  53.654  1.00  0.00     0.002 C 
HETATM    4  C6  UNL     1      23.241  -1.341  54.649  1.00  0.00     0.022 C 
HETATM    5  C7  UNL     1      24.172  -0.207  54.711  1.00  0.00     0.237 A 
HETATM    6  N1  UNL     1      25.420  -0.394  55.340  1.00  0.00    -0.271 NA
HETATM    7  C8  UNL     1      26.560   0.065  55.025  1.00  0.00     0.130 A 
HETATM    8  C9  UNL     1      26.610   0.897  53.832  1.00  0.00     0.052 A 
HETATM    9  C10 UNL     1      27.804   1.466  53.448  1.00  0.00     0.054 A 
HETATM   10  N2  UNL     1      27.828   2.240  52.349  1.00  0.00    -0.245 NA
HETATM   11  C15 UNL     1      26.715   2.464  51.631  1.00  0.00     0.235 A 
HETATM   12  N3  UNL     1      25.574   1.890  52.039  1.00  0.00    -0.223 NA
HETATM   13  C16 UNL     1      25.448   1.104  53.118  1.00  0.00     0.147 A 
HETATM   14  N4  UNL     1      24.169   0.523  53.474  1.00  0.00    -0.307 N 
ENDROOT
BRANCH   9  15
HETATM   15  C11 UNL     1      29.073   1.279  54.177  1.00  0.00     0.087 C 
BRANCH  15  16
HETATM   16  C12 UNL     1      29.908   0.190  53.646  1.00  0.00    -0.020 C 
BRANCH  16  17
HETATM   17  C13 UNL     1      29.816  -1.111  53.595  1.00  0.00     0.009 C 
BRANCH  17  18
HETATM   18  C14 UNL     1      28.824  -2.068  53.187  1.00  0.00    -0.018 A 
HETATM   19  O1  UNL     1      28.680  -3.429  53.256  1.00  0.00     0.000 OA
HETATM   20  H15 UNL     1      29.447  -4.096  53.215  1.00  0.00     0.000 HD
HETATM   21  P1  UNL     1      27.354  -2.422  52.471  1.00  0.00    -0.063 P 
HETATM   22  H16 UNL     1      26.514  -1.377  51.930  1.00  0.00     0.067 HD
ENDBRANCH  17  18
ENDBRANCH  16  17
ENDBRANCH  15  16
ENDBRANCH   9  15
BRANCH   1  23
HETATM   23  C2  UNL     1      23.055   1.739  51.524  1.00  0.00     0.053 C 
HETATM   24  C1  UNL     1      22.290   1.380  50.270  1.00  0.00     0.011 C 
ENDBRANCH   1  23
TORSDOF 5
ENDMDL
MODEL 2
REMARK VINA RESULT:      -7.4      1.065      2.956
REMARK  5 active torsions:
REMARK  status: ('A' for Active; 'I' for Inactive)
REMARK    1  A    between atoms: C2_2  and  C3_3 
REMARK    2  A    between atoms: C10_11  and  C11_12 
REMARK    3  A    between atoms: C11_12  and  C12_13 
REMARK    4  A    between atoms: C12_13  and  C13_14 
REMARK    5  A    between atoms: C13_14  and  C14_15 
ROOT
HETATM    1  C3  UNL     1      22.730   0.799  52.795  1.00  0.00     0.015 C 
HETATM    2  C4  UNL     1      21.842   1.681  52.289  1.00  0.00     0.025 C 
HETATM    3  C5  UNL     1      22.235   2.701  51.324  1.00  0.00     0.002 C 
HETATM    4  C6  UNL     1      23.472   2.840  50.841  1.00  0.00     0.022 C 
HETATM    5  C7  UNL     1      24.513   1.902  51.281  1.00  0.00     0.237 A 
HETATM    6  N1  UNL     1      25.856   2.332  51.267  1.00  0.00    -0.271 NA
HETATM    7  C8  UNL     1      26.789   2.089  52.091  1.00  0.00     0.130 A 
HETATM    8  C9  UNL     1      26.439   1.259  53.234  1.00  0.00     0.052 A 
HETATM    9  C10 UNL     1      27.408   0.917  54.149  1.00  0.00     0.054 A 
HETATM   10  N2  UNL     1      27.067   0.140  55.193  1.00  0.00    -0.245 NA
HETATM   11  C15 UNL     1      25.808  -0.302  55.349  1.00  0.00     0.235 A 
HETATM   12  N3  UNL     1      24.895   0.054  54.434  1.00  0.00    -0.223 NA
HETATM   13  C16 UNL     1      25.136   0.823  53.363  1.00  0.00     0.147 A 
HETATM   14  N4  UNL     1      24.078   1.160  52.432  1.00  0.00    -0.307 N 
ENDROOT
BRANCH   9  15
HETATM   15  C11 UNL     1      28.814   1.353  54.056  1.00  0.00     0.087 C 
BRANCH  15  16
HETATM   16  C12 UNL     1      29.776   0.243  53.967  1.00  0.00    -0.020 C 
BRANCH  16  17
HETATM   17  C13 UNL     1      29.787  -0.933  53.402  1.00  0.00     0.009 C 
BRANCH  17  18
HETATM   18  C14 UNL     1      28.822  -1.963  53.126  1.00  0.00    -0.018 A 
HETATM   19  O1  UNL     1      28.719  -3.308  53.364  1.00  0.00     0.000 OA
HETATM   20  H15 UNL     1      29.506  -3.952  53.399  1.00  0.00     0.000 HD
HETATM   21  P1  UNL     1      27.359  -2.446  52.473  1.00  0.00    -0.063 P 
HETATM   22  H16 UNL     1      26.485  -1.501  51.815  1.00  0.00     0.067 HD
ENDBRANCH  17  18
ENDBRANCH  16  17
ENDBRANCH  15  16
ENDBRANCH   9  15
BRANCH   1  23
HETATM   23  C2  UNL     1      22.434  -0.279  53.753  1.00  0.00     0.053 C 
HETATM   24  C1  UNL     1      21.245   0.000  54.643  1.00  0.00     0.011 C 
ENDBRANCH   1  23
TORSDOF 5
ENDMDL
MODEL 3
REMARK VINA RESULT:      -7.4      2.025      2.854
REMARK  5 active torsions:
REMARK  status: ('A' for Active; 'I' for Inactive)
REMARK    1  A    between atoms: C2_2  and  C3_3 
REMARK    2  A    between atoms: C10_11  and  C11_12 
REMARK    3  A    between atoms: C11_12  and  C12_13 
REMARK    4  A    between atoms: C12_13  and  C13_14 
REMARK    5  A    between atoms: C13_14  and  C14_15 
ROOT
HETATM    1  C3  UNL     1      20.712   0.850  53.291  1.00  0.00     0.015 C 
HETATM    2  C4  UNL     1      19.999  -0.273  53.525  1.00  0.00     0.025 C 
HETATM    3  C5  UNL     1      20.620  -1.484  54.047  1.00  0.00     0.002 C 
HETATM    4  C6  UNL     1      21.914  -1.588  54.363  1.00  0.00     0.022 C 
HETATM    5  C7  UNL     1      22.779  -0.412  54.199  1.00  0.00     0.237 A 
HETATM    6  N1  UNL     1      24.155  -0.616  53.967  1.00  0.00    -0.271 NA
HETATM    7  C8  UNL     1      24.949   0.024  53.212  1.00  0.00     0.130 A 
HETATM    8  C9  UNL     1      24.371   1.123  52.454  1.00  0.00     0.052 A 
HETATM    9  C10 UNL     1      25.177   1.891  51.645  1.00  0.00     0.054 A 
HETATM   10  N2  UNL     1      24.626   2.909  50.961  1.00  0.00    -0.245 NA
HETATM   11  C15 UNL     1      23.315   3.184  51.058  1.00  0.00     0.235 A 
HETATM   12  N3  UNL     1      22.565   2.411  51.857  1.00  0.00    -0.223 NA
HETATM   13  C16 UNL     1      23.020   1.376  52.578  1.00  0.00     0.147 A 
HETATM   14  N4  UNL     1      22.127   0.595  53.409  1.00  0.00    -0.307 N 
ENDROOT
BRANCH   9  15
HETATM   15  C11 UNL     1      26.626   1.665  51.480  1.00  0.00     0.087 C 
BRANCH  15  16
HETATM   16  C12 UNL     1      27.445   2.255  52.550  1.00  0.00    -0.020 C 
BRANCH  16  17
HETATM   17  C13 UNL     1      28.269   1.794  53.451  1.00  0.00     0.009 C 
BRANCH  17  18
HETATM   18  C14 UNL     1      28.709   0.498  53.891  1.00  0.00    -0.018 A 
HETATM   19  O1  UNL     1      28.399  -0.351  54.922  1.00  0.00     0.000 OA
HETATM   20  H15 UNL     1      28.105  -0.054  55.849  1.00  0.00     0.000 HD
HETATM   21  P1  UNL     1      29.686  -0.847  53.703  1.00  0.00    -0.063 P 
HETATM   22  H16 UNL     1      30.627  -0.941  52.608  1.00  0.00     0.067 HD
ENDBRANCH  17  18
ENDBRANCH  16  17
ENDBRANCH  15  16
ENDBRANCH   9  15
BRANCH   1  23
HETATM   23  C2  UNL     1      20.181   2.127  52.788  1.00  0.00     0.053 C 
HETATM   24  C1  UNL     1      19.015   1.975  51.838  1.00  0.00     0.011 C 
ENDBRANCH   1  23
TORSDOF 5
ENDMDL
MODEL 4
REMARK VINA RESULT:      -7.4      3.836      5.504
REMARK  5 active torsions:
REMARK  status: ('A' for Active; 'I' for Inactive)
REMARK    1  A    between atoms: C2_2  and  C3_3 
REMARK    2  A    between atoms: C10_11  and  C11_12 
REMARK    3  A    between atoms: C11_12  and  C12_13 
REMARK    4  A    between atoms: C12_13  and  C13_14 
REMARK    5  A    between atoms: C13_14  and  C14_15 
ROOT
HETATM    1  C3  UNL     1      23.797  -0.234  53.446  1.00  0.00     0.015 C 
HETATM    2  C4  UNL     1      22.648  -0.355  54.145  1.00  0.00     0.025 C 
HETATM    3  C5  UNL     1      21.384   0.171  53.642  1.00  0.00     0.002 C 
HETATM    4  C6  UNL     1      21.241   0.781  52.463  1.00  0.00     0.022 C 
HETATM    5  C7  UNL     1      22.415   0.924  51.593  1.00  0.00     0.237 A 
HETATM    6  N1  UNL     1      22.449   1.997  50.679  1.00  0.00    -0.271 NA
HETATM    7  C8  UNL     1      23.427   2.722  50.322  1.00  0.00     0.130 A 
HETATM    8  C9  UNL     1      24.708   2.429  50.949  1.00  0.00     0.052 A 
HETATM    9  C10 UNL     1      25.825   3.145  50.583  1.00  0.00     0.054 A 
HETATM   10  N2  UNL     1      27.001   2.852  51.165  1.00  0.00    -0.245 NA
HETATM   11  C15 UNL     1      27.098   1.879  52.087  1.00  0.00     0.235 A 
HETATM   12  N3  UNL     1      25.985   1.206  52.414  1.00  0.00    -0.223 NA
HETATM   13  C16 UNL     1      24.770   1.424  51.892  1.00  0.00     0.147 A 
HETATM   14  N4  UNL     1      23.624   0.646  52.318  1.00  0.00    -0.307 N 
ENDROOT
BRANCH   9  15
HETATM   15  C11 UNL     1      25.813   4.226  49.578  1.00  0.00     0.087 C 
BRANCH  15  16
HETATM   16  C12 UNL     1      27.098   4.407  48.885  1.00  0.00    -0.020 C 
BRANCH  16  17
HETATM   17  C13 UNL     1      27.774   5.428  48.434  1.00  0.00     0.009 C 
BRANCH  17  18
HETATM   18  C14 UNL     1      29.147   5.854  48.448  1.00  0.00    -0.018 A 
HETATM   19  O1  UNL     1      30.219   5.701  49.288  1.00  0.00     0.000 OA
HETATM   20  H15 UNL     1      30.156   5.625  50.300  1.00  0.00     0.000 HD
HETATM   21  P1  UNL     1      30.422   6.673  47.738  1.00  0.00    -0.063 P 
HETATM   22  H16 UNL     1      30.259   7.361  46.477  1.00  0.00     0.067 HD
ENDBRANCH  17  18
ENDBRANCH  16  17
ENDBRANCH  15  16
ENDBRANCH   9  15
BRANCH   1  23
HETATM   23  C2  UNL     1      25.117  -0.746  53.851  1.00  0.00     0.053 C 
HETATM   24  C1  UNL     1      25.372  -0.676  55.339  1.00  0.00     0.011 C 
ENDBRANCH   1  23
TORSDOF 5
ENDMDL
MODEL 5
REMARK VINA RESULT:      -7.2      4.768      6.509
REMARK  5 active torsions:
REMARK  status: ('A' for Active; 'I' for Inactive)
REMARK    1  A    between atoms: C2_2  and  C3_3 
REMARK    2  A    between atoms: C10_11  and  C11_12 
REMARK    3  A    between atoms: C11_12  and  C12_13 
REMARK    4  A    between atoms: C12_13  and  C13_14 
REMARK    5  A    between atoms: C13_14  and  C14_15 
ROOT
HETATM    1  C3  UNL     1      23.948   0.777  52.948  1.00  0.00     0.015 C 
HETATM    2  C4  UNL     1      24.440  -0.468  53.122  1.00  0.00     0.025 C 
HETATM    3  C5  UNL     1      25.849  -0.775  52.906  1.00  0.00     0.002 C 
HETATM    4  C6  UNL     1      26.768   0.127  52.552  1.00  0.00     0.022 C 
HETATM    5  C7  UNL     1      26.357   1.527  52.384  1.00  0.00     0.237 A 
HETATM    6  N1  UNL     1      27.096   2.344  51.504  1.00  0.00    -0.271 NA
HETATM    7  C8  UNL     1      26.691   3.246  50.709  1.00  0.00     0.130 A 
HETATM    8  C9  UNL     1      25.254   3.475  50.674  1.00  0.00     0.052 A 
HETATM    9  C10 UNL     1      24.742   4.466  49.868  1.00  0.00     0.054 A 
HETATM   10  N2  UNL     1      23.413   4.670  49.858  1.00  0.00    -0.245 NA
HETATM   11  C15 UNL     1      22.590   3.928  50.617  1.00  0.00     0.235 A 
HETATM   12  N3  UNL     1      23.130   2.974  51.389  1.00  0.00    -0.223 NA
HETATM   13  C16 UNL     1      24.439   2.695  51.467  1.00  0.00     0.147 A 
HETATM   14  N4  UNL     1      24.926   1.635  52.328  1.00  0.00    -0.307 N 
ENDROOT
BRANCH   9  15
HETATM   15  C11 UNL     1      25.570   5.330  49.004  1.00  0.00     0.087 C 
BRANCH  15  16
HETATM   16  C12 UNL     1      25.407   6.767  49.270  1.00  0.00    -0.020 C 
BRANCH  16  17
HETATM   17  C13 UNL     1      25.880   7.609  50.148  1.00  0.00     0.009 C 
BRANCH  17  18
HETATM   18  C14 UNL     1      26.917   8.603  50.182  1.00  0.00    -0.018 A 
HETATM   19  O1  UNL     1      27.502   9.387  51.142  1.00  0.00     0.000 OA
HETATM   20  H15 UNL     1      27.023   9.752  51.962  1.00  0.00     0.000 HD
HETATM   21  P1  UNL     1      28.076   9.521  49.399  1.00  0.00    -0.063 P 
HETATM   22  H16 UNL     1      28.296   9.393  47.975  1.00  0.00     0.067 HD
ENDBRANCH  17  18
ENDBRANCH  16  17
ENDBRANCH  15  16
ENDBRANCH   9  15
BRANCH   1  23
HETATM   23  C2  UNL     1      22.552   1.196  53.160  1.00  0.00     0.053 C 
HETATM   24  C1  UNL     1      21.690   0.146  53.822  1.00  0.00     0.011 C 
ENDBRANCH   1  23
TORSDOF 5
ENDMDL
MODEL 6
REMARK VINA RESULT:      -7.1      4.054      5.684
REMARK  5 active torsions:
REMARK  status: ('A' for Active; 'I' for Inactive)
REMARK    1  A    between atoms: C2_2  and  C3_3 
REMARK    2  A    between atoms: C10_11  and  C11_12 
REMARK    3  A    between atoms: C11_12  and  C12_13 
REMARK    4  A    between atoms: C12_13  and  C13_14 
REMARK    5  A    between atoms: C13_14  and  C14_15 
ROOT
HETATM    1  C3  UNL     1      23.436   0.414  53.440  1.00  0.00     0.015 C 
HETATM    2  C4  UNL     1      23.847  -0.651  54.162  1.00  0.00     0.025 C 
HETATM    3  C5  UNL     1      25.223  -0.781  54.624  1.00  0.00     0.002 C 
HETATM    4  C6  UNL     1      26.177   0.129  54.407  1.00  0.00     0.022 C 
HETATM    5  C7  UNL     1      25.833   1.354  53.676  1.00  0.00     0.237 A 
HETATM    6  N1  UNL     1      26.849   2.017  52.957  1.00  0.00    -0.271 NA
HETATM    7  C8  UNL     1      26.791   2.605  51.834  1.00  0.00     0.130 A 
HETATM    8  C9  UNL     1      25.498   2.592  51.167  1.00  0.00     0.052 A 
HETATM    9  C10 UNL     1      25.345   3.244  49.965  1.00  0.00     0.054 A 
HETATM   10  N2  UNL     1      24.139   3.230  49.369  1.00  0.00    -0.245 NA
HETATM   11  C15 UNL     1      23.095   2.595  49.927  1.00  0.00     0.235 A 
HETATM   12  N3  UNL     1      23.288   1.971  51.099  1.00  0.00    -0.223 NA
HETATM   13  C16 UNL     1      24.448   1.929  51.769  1.00  0.00     0.147 A 
HETATM   14  N4  UNL     1      24.557   1.221  53.028  1.00  0.00    -0.307 N 
ENDROOT
BRANCH   9  15
HETATM   15  C11 UNL     1      26.433   3.969  49.282  1.00  0.00     0.087 C 
BRANCH  15  16
HETATM   16  C12 UNL     1      26.179   5.410  49.123  1.00  0.00    -0.020 C 
BRANCH  16  17
HETATM   17  C13 UNL     1      25.802   6.379  49.911  1.00  0.00     0.009 C 
BRANCH  17  18
HETATM   18  C14 UNL     1      24.567   6.821  50.498  1.00  0.00    -0.018 A 
HETATM   19  O1  UNL     1      24.202   7.695  51.489  1.00  0.00     0.000 OA
HETATM   20  H15 UNL     1      24.753   7.890  52.322  1.00  0.00     0.000 HD
HETATM   21  P1  UNL     1      22.896   6.770  50.580  1.00  0.00    -0.063 P 
HETATM   22  H16 UNL     1      22.130   5.913  49.703  1.00  0.00     0.067 HD
ENDBRANCH  17  18
ENDBRANCH  16  17
ENDBRANCH  15  16
ENDBRANCH   9  15
BRANCH   1  23
HETATM   23  C2  UNL     1      22.070   0.652  52.945  1.00  0.00     0.053 C 
HETATM   24  C1  UNL     1      20.985   0.221  53.906  1.00  0.00     0.011 C 
ENDBRANCH   1  23
TORSDOF 5
ENDMDL
MODEL 7
REMARK VINA RESULT:      -7.0      3.861      6.175
REMARK  5 active torsions:
REMARK  status: ('A' for Active; 'I' for Inactive)
REMARK    1  A    between atoms: C2_2  and  C3_3 
REMARK    2  A    between atoms: C10_11  and  C11_12 
REMARK    3  A    between atoms: C11_12  and  C12_13 
REMARK    4  A    between atoms: C12_13  and  C13_14 
REMARK    5  A    between atoms: C13_14  and  C14_15 
ROOT
HETATM    1  C3  UNL     1      24.858  -0.612  53.839  1.00  0.00     0.015 C 
HETATM    2  C4  UNL     1      24.572  -1.129  55.053  1.00  0.00     0.025 C 
HETATM    3  C5  UNL     1      23.199  -1.301  55.511  1.00  0.00     0.002 C 
HETATM    4  C6  UNL     1      22.120  -0.999  54.783  1.00  0.00     0.022 C 
HETATM    5  C7  UNL     1      22.309  -0.477  53.424  1.00  0.00     0.237 A 
HETATM    6  N1  UNL     1      21.308   0.352  52.876  1.00  0.00    -0.271 NA
HETATM    7  C8  UNL     1      21.425   1.376  52.137  1.00  0.00     0.130 A 
HETATM    8  C9  UNL     1      22.783   1.779  51.805  1.00  0.00     0.052 A 
HETATM    9  C10 UNL     1      22.990   2.856  50.973  1.00  0.00     0.054 A 
HETATM   10  N2  UNL     1      24.253   3.207  50.670  1.00  0.00    -0.245 NA
HETATM   11  C15 UNL     1      25.301   2.526  51.162  1.00  0.00     0.235 A 
HETATM   12  N3  UNL     1      25.055   1.484  51.969  1.00  0.00    -0.223 NA
HETATM   13  C16 UNL     1      23.836   1.058  52.330  1.00  0.00     0.147 A 
HETATM   14  N4  UNL     1      23.673  -0.077  53.215  1.00  0.00    -0.307 N 
ENDROOT
BRANCH   9  15
HETATM   15  C11 UNL     1      21.901   3.658  50.384  1.00  0.00     0.087 C 
BRANCH  15  16
HETATM   16  C12 UNL     1      21.661   4.934  51.078  1.00  0.00    -0.020 C 
BRANCH  16  17
HETATM   17  C13 UNL     1      22.208   6.118  51.059  1.00  0.00     0.009 C 
BRANCH  17  18
HETATM   18  C14 UNL     1      23.544   6.647  51.094  1.00  0.00    -0.018 A 
HETATM   19  O1  UNL     1      24.501   6.848  52.055  1.00  0.00     0.000 OA
HETATM   20  H15 UNL     1      24.307   7.074  53.027  1.00  0.00     0.000 HD
HETATM   21  P1  UNL     1      24.860   7.324  50.314  1.00  0.00    -0.063 P 
HETATM   22  H16 UNL     1      24.833   7.585  48.891  1.00  0.00     0.067 HD
ENDBRANCH  17  18
ENDBRANCH  16  17
ENDBRANCH  15  16
ENDBRANCH   9  15
BRANCH   1  23
HETATM   23  C2  UNL     1      26.203  -0.417  53.273  1.00  0.00     0.053 C 
HETATM   24  C1  UNL     1      26.756  -1.637  52.572  1.00  0.00     0.011 C 
ENDBRANCH   1  23
TORSDOF 5
ENDMDL
MODEL 8
REMARK VINA RESULT:      -6.9      4.104      7.133
REMARK  5 active torsions:
REMARK  status: ('A' for Active; 'I' for Inactive)
REMARK    1  A    between atoms: C2_2  and  C3_3 
REMARK    2  A    between atoms: C10_11  and  C11_12 
REMARK    3  A    between atoms: C11_12  and  C12_13 
REMARK    4  A    between atoms: C12_13  and  C13_14 
REMARK    5  A    between atoms: C13_14  and  C14_15 
ROOT
HETATM    1  C3  UNL     1      26.218   2.214  51.538  1.00  0.00     0.015 C 
HETATM    2  C4  UNL     1      26.559   2.753  50.348  1.00  0.00     0.025 C 
HETATM    3  C5  UNL     1      25.659   3.637  49.618  1.00  0.00     0.002 C 
HETATM    4  C6  UNL     1      24.454   4.010  50.056  1.00  0.00     0.022 C 
HETATM    5  C7  UNL     1      23.996   3.526  51.365  1.00  0.00     0.237 A 
HETATM    6  N1  UNL     1      22.609   3.410  51.593  1.00  0.00    -0.271 NA
HETATM    7  C8  UNL     1      21.969   2.524  52.235  1.00  0.00     0.130 A 
HETATM    8  C9  UNL     1      22.762   1.451  52.816  1.00  0.00     0.052 A 
HETATM    9  C10 UNL     1      22.143   0.474  53.562  1.00  0.00     0.054 A 
HETATM   10  N2  UNL     1      22.894  -0.503  54.100  1.00  0.00    -0.245 NA
HETATM   11  C15 UNL     1      24.226  -0.535  53.921  1.00  0.00     0.235 A 
HETATM   12  N3  UNL     1      24.788   0.435  53.187  1.00  0.00    -0.223 NA
HETATM   13  C16 UNL     1      24.126   1.449  52.611  1.00  0.00     0.147 A 
HETATM   14  N4  UNL     1      24.825   2.448  51.829  1.00  0.00    -0.307 N 
ENDROOT
BRANCH   9  15
HETATM   15  C11 UNL     1      20.689   0.431  53.813  1.00  0.00     0.087 C 
BRANCH  15  16
HETATM   16  C12 UNL     1      20.078  -0.879  53.540  1.00  0.00    -0.020 C 
BRANCH  16  17
HETATM   17  C13 UNL     1      18.862  -1.354  53.538  1.00  0.00     0.009 C 
BRANCH  17  18
HETATM   18  C14 UNL     1      17.589  -0.948  53.009  1.00  0.00    -0.018 A 
HETATM   19  O1  UNL     1      16.313  -0.823  53.494  1.00  0.00     0.000 OA
HETATM   20  H15 UNL     1      15.908  -1.413  54.217  1.00  0.00     0.000 HD
HETATM   21  P1  UNL     1      16.650  -0.406  51.733  1.00  0.00    -0.063 P 
HETATM   22  H16 UNL     1      17.228  -0.164  50.430  1.00  0.00     0.067 HD
ENDBRANCH  17  18
ENDBRANCH  16  17
ENDBRANCH  15  16
ENDBRANCH   9  15
BRANCH   1  23
HETATM   23  C2  UNL     1      27.058   1.332  52.365  1.00  0.00     0.053 C 
HETATM   24  C1  UNL     1      28.051   2.068  53.234  1.00  0.00     0.011 C 
ENDBRANCH   1  23
TORSDOF 5
ENDMDL
MODEL 9
REMARK VINA RESULT:      -6.7      3.810      7.018
REMARK  5 active torsions:
REMARK  status: ('A' for Active; 'I' for Inactive)
REMARK    1  A    between atoms: C2_2  and  C3_3 
REMARK    2  A    between atoms: C10_11  and  C11_12 
REMARK    3  A    between atoms: C11_12  and  C12_13 
REMARK    4  A    between atoms: C12_13  and  C13_14 
REMARK    5  A    between atoms: C13_14  and  C14_15 
ROOT
HETATM    1  C3  UNL     1      26.208   2.358  51.468  1.00  0.00     0.015 C 
HETATM    2  C4  UNL     1      26.605   2.922  50.307  1.00  0.00     0.025 C 
HETATM    3  C5  UNL     1      25.752   3.847  49.571  1.00  0.00     0.002 C 
HETATM    4  C6  UNL     1      24.540   4.236  49.977  1.00  0.00     0.022 C 
HETATM    5  C7  UNL     1      24.025   3.727  51.253  1.00  0.00     0.237 A 
HETATM    6  N1  UNL     1      22.628   3.637  51.428  1.00  0.00    -0.271 NA
HETATM    7  C8  UNL     1      21.944   2.748  52.020  1.00  0.00     0.130 A 
HETATM    8  C9  UNL     1      22.692   1.641  52.598  1.00  0.00     0.052 A 
HETATM    9  C10 UNL     1      22.024   0.658  53.293  1.00  0.00     0.054 A 
HETATM   10  N2  UNL     1      22.733  -0.351  53.829  1.00  0.00    -0.245 NA
HETATM   11  C15 UNL     1      24.068  -0.410  53.697  1.00  0.00     0.235 A 
HETATM   12  N3  UNL     1      24.679   0.568  53.013  1.00  0.00    -0.223 NA
HETATM   13  C16 UNL     1      24.062   1.612  52.443  1.00  0.00     0.147 A 
HETATM   14  N4  UNL     1      24.812   2.617  51.715  1.00  0.00    -0.307 N 
ENDROOT
BRANCH   9  15
HETATM   15  C11 UNL     1      20.562   0.643  53.490  1.00  0.00     0.087 C 
BRANCH  15  16
HETATM   16  C12 UNL     1      19.828  -0.081  52.440  1.00  0.00    -0.020 C 
BRANCH  16  17
HETATM   17  C13 UNL     1      19.025   0.255  51.468  1.00  0.00     0.009 C 
BRANCH  17  18
HETATM   18  C14 UNL     1      19.063   1.162  50.354  1.00  0.00    -0.018 A 
HETATM   19  O1  UNL     1      19.715   1.217  49.149  1.00  0.00     0.000 OA
HETATM   20  H15 UNL     1      20.647   0.850  48.977  1.00  0.00     0.000 HD
HETATM   21  P1  UNL     1      18.559   2.573  49.611  1.00  0.00    -0.063 P 
HETATM   22  H16 UNL     1      17.611   3.459  50.251  1.00  0.00     0.067 HD
ENDBRANCH  17  18
ENDBRANCH  16  17
ENDBRANCH  15  16
ENDBRANCH   9  15
BRANCH   1  23
HETATM   23  C2  UNL     1      26.997   1.433  52.298  1.00  0.00     0.053 C 
HETATM   24  C1  UNL     1      27.978   2.121  53.221  1.00  0.00     0.011 C 
ENDBRANCH   1  23
TORSDOF 5
ENDMDL
