MODEL 1
REMARK VINA RESULT:      -8.6      0.000      0.000
REMARK  2 active torsions:
REMARK  status: ('A' for Active; 'I' for Inactive)
REMARK       I    between atoms: C1_2  and  N1_3 
REMARK       I    between atoms: C1_2  and  N2_5 
REMARK    1  A    between atoms: N2_5  and  C2_6 
REMARK    2  A    between atoms: C7_13  and  C8_14 
ROOT
HETATM    1  C2  UNL     1      24.829   3.566  51.009  1.00  0.00     0.037 A 
HETATM    2  C3  UNL     1      23.540   3.672  50.529  1.00  0.00     0.032 A 
HETATM    3  C4  UNL     1      22.676   2.649  50.894  1.00  0.00     0.035 A 
HETATM    4  C5  UNL     1      23.115   1.614  51.686  1.00  0.00     0.070 A 
HETATM    5  N3  UNL     1      22.271   0.632  52.032  1.00  0.00    -0.241 NA
HETATM    6  C6  UNL     1      22.702  -0.382  52.808  1.00  0.00     0.234 A 
HETATM    7  N4  UNL     1      23.989  -0.449  53.263  1.00  0.00    -0.240 NA
HETATM    8  C7  UNL     1      24.881   0.505  52.950  1.00  0.00     0.082 A 
HETATM    9  C13 UNL     1      24.402   1.523  52.157  1.00  0.00     0.025 A 
HETATM   10  C14 UNL     1      25.287   2.533  51.805  1.00  0.00     0.045 A 
ENDROOT
BRANCH   1  11
HETATM   11  N2  UNL     1      25.730   4.627  50.632  1.00  0.00    -0.307 N 
HETATM   12  C1  UNL     1      26.666   4.183  49.633  1.00  0.00     0.348 C 
HETATM   13  O1  UNL     1      26.452   2.961  49.343  1.00  0.00    -0.245 OA
HETATM   14  N1  UNL     1      27.643   5.073  49.121  1.00  0.00    -0.173 N 
HETATM   15  F1  UNL     1      28.552   4.722  48.184  1.00  0.00    -0.097 F 
HETATM   16  H1  UNL     1      27.632   6.029  49.505  1.00  0.00     0.204 HD
HETATM   17  H2  UNL     1      25.735   5.601  51.008  1.00  0.00     0.170 HD
ENDBRANCH   1  11
BRANCH   8  18
HETATM   18  C8  UNL     1      26.234   0.399  53.451  1.00  0.00     0.006 C 
HETATM   19  C9  UNL     1      26.921   0.850  54.490  1.00  0.00    -0.011 C 
HETATM   20  C10 UNL     1      27.899   0.058  54.877  1.00  0.00     0.037 C 
HETATM   21  C11 UNL     1      28.285  -0.588  53.614  1.00  0.00     0.035 C 
HETATM   22 CL1  UNL     1      29.775  -1.463  53.291  1.00  0.00    -0.084 Cl
HETATM   23  C12 UNL     1      27.279  -0.381  52.754  1.00  0.00     0.038 C 
ENDBRANCH   8  18
TORSDOF 2
ENDMDL
MODEL 2
REMARK VINA RESULT:      -8.3      1.482      1.830
REMARK  2 active torsions:
REMARK  status: ('A' for Active; 'I' for Inactive)
REMARK       I    between atoms: C1_2  and  N1_3 
REMARK       I    between atoms: C1_2  and  N2_5 
REMARK    1  A    between atoms: N2_5  and  C2_6 
REMARK    2  A    between atoms: C7_13  and  C8_14 
ROOT
HETATM    1  C2  UNL     1      23.660   3.301  52.112  1.00  0.00     0.037 A 
HETATM    2  C3  UNL     1      22.319   3.608  52.004  1.00  0.00     0.032 A 
HETATM    3  C4  UNL     1      21.440   2.586  52.334  1.00  0.00     0.035 A 
HETATM    4  C5  UNL     1      21.916   1.360  52.739  1.00  0.00     0.070 A 
HETATM    5  N3  UNL     1      21.057   0.380  53.055  1.00  0.00    -0.241 NA
HETATM    6  C6  UNL     1      21.523  -0.820  53.452  1.00  0.00     0.234 A 
HETATM    7  N4  UNL     1      22.861  -1.082  53.546  1.00  0.00    -0.240 NA
HETATM    8  C7  UNL     1      23.770  -0.140  53.242  1.00  0.00     0.082 A 
HETATM    9  C13 UNL     1      23.254   1.071  52.842  1.00  0.00     0.025 A 
HETATM   10  C14 UNL     1      24.155   2.076  52.517  1.00  0.00     0.045 A 
ENDROOT
BRANCH   1  11
HETATM   11  N2  UNL     1      24.576   4.361  51.770  1.00  0.00    -0.307 N 
HETATM   12  C1  UNL     1      25.119   4.173  50.450  1.00  0.00     0.348 C 
HETATM   13  O1  UNL     1      24.644   3.112  49.927  1.00  0.00    -0.245 OA
HETATM   14  N1  UNL     1      26.043   5.105  49.916  1.00  0.00    -0.173 N 
HETATM   15  F1  UNL     1      26.591   4.989  48.685  1.00  0.00    -0.097 F 
HETATM   16  H1  UNL     1      26.288   5.901  50.524  1.00  0.00     0.204 HD
HETATM   17  H2  UNL     1      24.837   5.174  52.370  1.00  0.00     0.170 HD
ENDBRANCH   1  11
BRANCH   8  18
HETATM   18  C8  UNL     1      25.178  -0.456  53.354  1.00  0.00     0.006 C 
HETATM   19  C9  UNL     1      26.057  -1.205  52.707  1.00  0.00    -0.011 C 
HETATM   20  C10 UNL     1      27.293  -0.753  52.755  1.00  0.00     0.037 C 
HETATM   21  C11 UNL     1      27.315  -0.063  54.053  1.00  0.00     0.035 C 
HETATM   22 CL1  UNL     1      28.737   0.434  54.958  1.00  0.00    -0.084 Cl
HETATM   23  C12 UNL     1      26.037   0.116  54.413  1.00  0.00     0.038 C 
ENDBRANCH   8  18
TORSDOF 2
ENDMDL
MODEL 3
REMARK VINA RESULT:      -8.2      3.960      5.736
REMARK  2 active torsions:
REMARK  status: ('A' for Active; 'I' for Inactive)
REMARK       I    between atoms: C1_2  and  N1_3 
REMARK       I    between atoms: C1_2  and  N2_5 
REMARK    1  A    between atoms: N2_5  and  C2_6 
REMARK    2  A    between atoms: C7_13  and  C8_14 
ROOT
HETATM    1  C2  UNL     1      25.241  -0.163  54.465  1.00  0.00     0.037 A 
HETATM    2  C3  UNL     1      25.005  -1.049  55.495  1.00  0.00     0.032 A 
HETATM    3  C4  UNL     1      23.701  -1.512  55.605  1.00  0.00     0.035 A 
HETATM    4  C5  UNL     1      22.735  -1.089  54.722  1.00  0.00     0.070 A 
HETATM    5  N3  UNL     1      21.478  -1.542  54.838  1.00  0.00    -0.241 NA
HETATM    6  C6  UNL     1      20.532  -1.128  53.972  1.00  0.00     0.234 A 
HETATM    7  N4  UNL     1      20.808  -0.248  52.964  1.00  0.00    -0.240 NA
HETATM    8  C7  UNL     1      22.048   0.242  52.797  1.00  0.00     0.082 A 
HETATM    9  C13 UNL     1      22.985  -0.206  53.700  1.00  0.00     0.025 A 
HETATM   10  C14 UNL     1      24.282   0.272  53.569  1.00  0.00     0.045 A 
ENDROOT
BRANCH   1  11
HETATM   11  N2  UNL     1      26.594   0.319  54.348  1.00  0.00    -0.307 N 
HETATM   12  C1  UNL     1      27.433  -0.643  53.682  1.00  0.00     0.348 C 
HETATM   13  O1  UNL     1      26.754  -1.674  53.368  1.00  0.00    -0.245 OA
HETATM   14  N1  UNL     1      28.805  -0.367  53.463  1.00  0.00    -0.173 N 
HETATM   15  F1  UNL     1      29.648  -1.225  52.845  1.00  0.00    -0.097 F 
HETATM   16  H1  UNL     1      29.146   0.543  53.805  1.00  0.00     0.204 HD
HETATM   17  H2  UNL     1      26.959   1.237  54.687  1.00  0.00     0.170 HD
ENDBRANCH   1  11
BRANCH   8  18
HETATM   18  C8  UNL     1      22.301   1.171  51.718  1.00  0.00     0.006 C 
HETATM   19  C9  UNL     1      22.946   2.317  51.556  1.00  0.00    -0.011 C 
HETATM   20  C10 UNL     1      23.426   2.501  50.344  1.00  0.00     0.037 C 
HETATM   21  C11 UNL     1      22.462   1.759  49.518  1.00  0.00     0.035 C 
HETATM   22 CL1  UNL     1      22.240   1.896  47.781  1.00  0.00    -0.084 Cl
HETATM   23  C12 UNL     1      21.784   0.957  50.349  1.00  0.00     0.038 C 
ENDBRANCH   8  18
TORSDOF 2
ENDMDL
MODEL 4
REMARK VINA RESULT:      -8.1      3.524      5.370
REMARK  2 active torsions:
REMARK  status: ('A' for Active; 'I' for Inactive)
REMARK       I    between atoms: C1_2  and  N1_3 
REMARK       I    between atoms: C1_2  and  N2_5 
REMARK    1  A    between atoms: N2_5  and  C2_6 
REMARK    2  A    between atoms: C7_13  and  C8_14 
ROOT
HETATM    1  C2  UNL     1      25.827   0.412  53.874  1.00  0.00     0.037 A 
HETATM    2  C3  UNL     1      24.890  -0.480  54.354  1.00  0.00     0.032 A 
HETATM    3  C4  UNL     1      23.665  -0.476  53.700  1.00  0.00     0.035 A 
HETATM    4  C5  UNL     1      23.441   0.378  52.644  1.00  0.00     0.070 A 
HETATM    5  N3  UNL     1      22.255   0.373  52.020  1.00  0.00    -0.241 NA
HETATM    6  C6  UNL     1      22.035   1.209  50.986  1.00  0.00     0.234 A 
HETATM    7  N4  UNL     1      22.992   2.076  50.542  1.00  0.00    -0.240 NA
HETATM    8  C7  UNL     1      24.201   2.128  51.127  1.00  0.00     0.082 A 
HETATM    9  C13 UNL     1      24.385   1.259  52.178  1.00  0.00     0.025 A 
HETATM   10  C14 UNL     1      25.618   1.276  52.816  1.00  0.00     0.045 A 
ENDROOT
BRANCH   1  11
HETATM   11  N2  UNL     1      27.099   0.410  54.551  1.00  0.00    -0.307 N 
HETATM   12  C1  UNL     1      28.087  -0.319  53.800  1.00  0.00     0.348 C 
HETATM   13  O1  UNL     1      27.573  -0.775  52.726  1.00  0.00    -0.245 OA
HETATM   14  N1  UNL     1      29.411  -0.443  54.288  1.00  0.00    -0.173 N 
HETATM   15  F1  UNL     1      30.387  -1.114  53.635  1.00  0.00    -0.097 F 
HETATM   16  H1  UNL     1      29.607   0.012  55.192  1.00  0.00     0.204 HD
HETATM   17  H2  UNL     1      27.318   0.866  55.465  1.00  0.00     0.170 HD
ENDBRANCH   1  11
BRANCH   8  18
HETATM   18  C8  UNL     1      25.188   3.061  50.628  1.00  0.00     0.006 C 
HETATM   19  C9  UNL     1      26.445   3.013  50.215  1.00  0.00    -0.011 C 
HETATM   20  C10 UNL     1      26.753   3.921  49.312  1.00  0.00     0.037 C 
HETATM   21  C11 UNL     1      25.849   5.024  49.668  1.00  0.00     0.035 C 
HETATM   22 CL1  UNL     1      25.977   6.699  49.153  1.00  0.00    -0.084 Cl
HETATM   23  C12 UNL     1      24.904   4.503  50.462  1.00  0.00     0.038 C 
ENDBRANCH   8  18
TORSDOF 2
ENDMDL
MODEL 5
REMARK VINA RESULT:      -8.0      3.805      5.627
REMARK  2 active torsions:
REMARK  status: ('A' for Active; 'I' for Inactive)
REMARK       I    between atoms: C1_2  and  N1_3 
REMARK       I    between atoms: C1_2  and  N2_5 
REMARK    1  A    between atoms: N2_5  and  C2_6 
REMARK    2  A    between atoms: C7_13  and  C8_14 
ROOT
HETATM    1  C2  UNL     1      25.074  -0.691  54.169  1.00  0.00     0.037 A 
HETATM    2  C3  UNL     1      24.481  -1.408  55.188  1.00  0.00     0.032 A 
HETATM    3  C4  UNL     1      23.111  -1.230  55.331  1.00  0.00     0.035 A 
HETATM    4  C5  UNL     1      22.427  -0.383  54.490  1.00  0.00     0.070 A 
HETATM    5  N3  UNL     1      21.105  -0.219  54.638  1.00  0.00    -0.241 NA
HETATM    6  C6  UNL     1      20.434   0.610  53.814  1.00  0.00     0.234 A 
HETATM    7  N4  UNL     1      21.061   1.301  52.816  1.00  0.00    -0.240 NA
HETATM    8  C7  UNL     1      22.384   1.178  52.618  1.00  0.00     0.082 A 
HETATM    9  C13 UNL     1      23.032   0.323  53.479  1.00  0.00     0.025 A 
HETATM   10  C14 UNL     1      24.401   0.162  53.316  1.00  0.00     0.045 A 
ENDROOT
BRANCH   1  11
HETATM   11  N2  UNL     1      26.496  -0.875  54.018  1.00  0.00    -0.307 N 
HETATM   12  C1  UNL     1      27.226   0.223  54.595  1.00  0.00     0.348 C 
HETATM   13  O1  UNL     1      26.418   1.075  55.091  1.00  0.00    -0.245 OA
HETATM   14  N1  UNL     1      28.642   0.242  54.555  1.00  0.00    -0.173 N 
HETATM   15  F1  UNL     1      29.389   1.241  55.076  1.00  0.00    -0.097 F 
HETATM   16  H1  UNL     1      29.094  -0.563  54.097  1.00  0.00     0.204 HD
HETATM   17  H2  UNL     1      26.973  -1.682  53.558  1.00  0.00     0.170 HD
ENDBRANCH   1  11
BRANCH   8  18
HETATM   18  C8  UNL     1      23.011   1.927  51.551  1.00  0.00     0.006 C 
HETATM   19  C9  UNL     1      23.096   1.848  50.232  1.00  0.00    -0.011 C 
HETATM   20  C10 UNL     1      23.235   3.011  49.628  1.00  0.00     0.037 C 
HETATM   21  C11 UNL     1      23.955   3.796  50.642  1.00  0.00     0.035 C 
HETATM   22 CL1  UNL     1      24.824   5.301  50.386  1.00  0.00    -0.084 Cl
HETATM   23  C12 UNL     1      23.818   3.141  51.802  1.00  0.00     0.038 C 
ENDBRANCH   8  18
TORSDOF 2
ENDMDL
MODEL 6
REMARK VINA RESULT:      -7.8      3.587      5.256
REMARK  2 active torsions:
REMARK  status: ('A' for Active; 'I' for Inactive)
REMARK       I    between atoms: C1_2  and  N1_3 
REMARK       I    between atoms: C1_2  and  N2_5 
REMARK    1  A    between atoms: N2_5  and  C2_6 
REMARK    2  A    between atoms: C7_13  and  C8_14 
ROOT
HETATM    1  C2  UNL     1      22.477   1.115  53.173  1.00  0.00     0.037 A 
HETATM    2  C3  UNL     1      21.800   2.163  52.583  1.00  0.00     0.032 A 
HETATM    3  C4  UNL     1      22.541   2.936  51.698  1.00  0.00     0.035 A 
HETATM    4  C5  UNL     1      23.862   2.640  51.452  1.00  0.00     0.070 A 
HETATM    5  N3  UNL     1      24.567   3.393  50.595  1.00  0.00    -0.241 NA
HETATM    6  C6  UNL     1      25.860   3.103  50.354  1.00  0.00     0.234 A 
HETATM    7  N4  UNL     1      26.492   2.054  50.960  1.00  0.00    -0.240 NA
HETATM    8  C7  UNL     1      25.839   1.264  51.828  1.00  0.00     0.082 A 
HETATM    9  C13 UNL     1      24.521   1.592  52.046  1.00  0.00     0.025 A 
HETATM   10  C14 UNL     1      23.802   0.805  52.937  1.00  0.00     0.045 A 
ENDROOT
BRANCH   1  11
HETATM   11  N2  UNL     1      21.710   0.312  54.092  1.00  0.00    -0.307 N 
HETATM   12  C1  UNL     1      20.730  -0.481  53.398  1.00  0.00     0.348 C 
HETATM   13  O1  UNL     1      20.797  -0.262  52.144  1.00  0.00    -0.245 OA
HETATM   14  N1  UNL     1      19.868  -1.345  54.116  1.00  0.00    -0.173 N 
HETATM   15  F1  UNL     1      18.925  -2.116  53.527  1.00  0.00    -0.097 F 
HETATM   16  H1  UNL     1      19.992  -1.363  55.139  1.00  0.00     0.204 HD
HETATM   17  H2  UNL     1      21.821   0.279  55.130  1.00  0.00     0.170 HD
ENDBRANCH   1  11
BRANCH   8  18
HETATM   18  C8  UNL     1      26.543   0.163  52.449  1.00  0.00     0.006 C 
HETATM   19  C9  UNL     1      26.330  -1.127  52.660  1.00  0.00    -0.011 C 
HETATM   20  C10 UNL     1      27.427  -1.855  52.705  1.00  0.00     0.037 C 
HETATM   21  C11 UNL     1      28.410  -0.894  53.227  1.00  0.00     0.035 C 
HETATM   22 CL1  UNL     1      29.981  -1.267  53.919  1.00  0.00    -0.084 Cl
HETATM   23  C12 UNL     1      27.875   0.324  53.071  1.00  0.00     0.038 C 
ENDBRANCH   8  18
TORSDOF 2
ENDMDL
MODEL 7
REMARK VINA RESULT:      -7.7      3.807      5.615
REMARK  2 active torsions:
REMARK  status: ('A' for Active; 'I' for Inactive)
REMARK       I    between atoms: C1_2  and  N1_3 
REMARK       I    between atoms: C1_2  and  N2_5 
REMARK    1  A    between atoms: N2_5  and  C2_6 
REMARK    2  A    between atoms: C7_13  and  C8_14 
ROOT
HETATM    1  C2  UNL     1      25.847   1.124  51.931  1.00  0.00     0.037 A 
HETATM    2  C3  UNL     1      26.453   2.149  51.234  1.00  0.00     0.032 A 
HETATM    3  C4  UNL     1      25.609   3.163  50.800  1.00  0.00     0.035 A 
HETATM    4  C5  UNL     1      24.261   3.111  51.070  1.00  0.00     0.070 A 
HETATM    5  N3  UNL     1      23.456   4.096  50.647  1.00  0.00    -0.241 NA
HETATM    6  C6  UNL     1      22.135   4.045  50.911  1.00  0.00     0.234 A 
HETATM    7  N4  UNL     1      21.576   3.010  51.606  1.00  0.00    -0.240 NA
HETATM    8  C7  UNL     1      22.331   1.994  52.056  1.00  0.00     0.082 A 
HETATM    9  C13 UNL     1      23.673   2.083  51.766  1.00  0.00     0.025 A 
HETATM   10  C14 UNL     1      24.495   1.057  52.210  1.00  0.00     0.045 A 
ENDROOT
BRANCH   1  11
HETATM   11  N2  UNL     1      26.721   0.070  52.382  1.00  0.00    -0.307 N 
HETATM   12  C1  UNL     1      27.322   0.399  53.648  1.00  0.00     0.348 C 
HETATM   13  O1  UNL     1      26.921   1.544  54.039  1.00  0.00    -0.245 OA
HETATM   14  N1  UNL     1      28.218  -0.503  54.272  1.00  0.00    -0.173 N 
HETATM   15  F1  UNL     1      28.818  -0.257  55.459  1.00  0.00    -0.097 F 
HETATM   16  H1  UNL     1      28.400  -1.384  53.769  1.00  0.00     0.204 HD
HETATM   17  H2  UNL     1      26.918  -0.828  51.888  1.00  0.00     0.170 HD
ENDBRANCH   1  11
BRANCH   8  18
HETATM   18  C8  UNL     1      21.701   0.916  52.788  1.00  0.00     0.006 C 
HETATM   19  C9  UNL     1      21.923   0.247  53.909  1.00  0.00    -0.011 C 
HETATM   20  C10 UNL     1      20.833  -0.206  54.493  1.00  0.00     0.037 C 
HETATM   21  C11 UNL     1      19.940  -0.425  53.345  1.00  0.00     0.035 C 
HETATM   22 CL1  UNL     1      18.470  -1.387  53.323  1.00  0.00    -0.084 Cl
HETATM   23  C12 UNL     1      20.466   0.253  52.316  1.00  0.00     0.038 C 
ENDBRANCH   8  18
TORSDOF 2
ENDMDL
MODEL 8
REMARK VINA RESULT:      -7.6      3.508      4.814
REMARK  2 active torsions:
REMARK  status: ('A' for Active; 'I' for Inactive)
REMARK       I    between atoms: C1_2  and  N1_3 
REMARK       I    between atoms: C1_2  and  N2_5 
REMARK    1  A    between atoms: N2_5  and  C2_6 
REMARK    2  A    between atoms: C7_13  and  C8_14 
ROOT
HETATM    1  C2  UNL     1      24.387   2.512  51.041  1.00  0.00     0.037 A 
HETATM    2  C3  UNL     1      25.677   2.842  50.676  1.00  0.00     0.032 A 
HETATM    3  C4  UNL     1      26.680   2.078  51.257  1.00  0.00     0.035 A 
HETATM    4  C5  UNL     1      26.367   1.065  52.133  1.00  0.00     0.070 A 
HETATM    5  N3  UNL     1      27.344   0.334  52.687  1.00  0.00    -0.241 NA
HETATM    6  C6  UNL     1      27.037  -0.659  53.545  1.00  0.00     0.234 A 
HETATM    7  N4  UNL     1      25.745  -0.953  53.878  1.00  0.00    -0.240 NA
HETATM    8  C7  UNL     1      24.722  -0.256  53.355  1.00  0.00     0.082 A 
HETATM    9  C13 UNL     1      25.077   0.748  52.484  1.00  0.00     0.025 A 
HETATM   10  C14 UNL     1      24.055   1.498  51.918  1.00  0.00     0.045 A 
ENDROOT
BRANCH   1  11
HETATM   11  N2  UNL     1      23.343   3.304  50.440  1.00  0.00    -0.307 N 
HETATM   12  C1  UNL     1      22.963   4.398  51.294  1.00  0.00     0.348 C 
HETATM   13  O1  UNL     1      23.655   4.379  52.365  1.00  0.00    -0.245 OA
HETATM   14  N1  UNL     1      21.950   5.304  50.892  1.00  0.00    -0.173 N 
HETATM   15  F1  UNL     1      21.545   6.351  51.645  1.00  0.00    -0.097 F 
HETATM   16  H1  UNL     1      21.520   5.125  49.973  1.00  0.00     0.204 HD
HETATM   17  H2  UNL     1      22.895   3.140  49.511  1.00  0.00     0.170 HD
ENDBRANCH   1  11
BRANCH   8  18
HETATM   18  C8  UNL     1      23.368  -0.598  53.733  1.00  0.00     0.006 C 
HETATM   19  C9  UNL     1      22.740  -1.005  54.825  1.00  0.00    -0.011 C 
HETATM   20  C10 UNL     1      21.482  -0.624  54.900  1.00  0.00     0.037 C 
HETATM   21  C11 UNL     1      21.100  -0.555  53.481  1.00  0.00     0.035 C 
HETATM   22 CL1  UNL     1      19.468  -0.503  52.831  1.00  0.00    -0.084 Cl
HETATM   23  C12 UNL     1      22.240  -0.540  52.778  1.00  0.00     0.038 C 
ENDBRANCH   8  18
TORSDOF 2
ENDMDL
MODEL 9
REMARK VINA RESULT:      -7.5      3.003      4.850
REMARK  2 active torsions:
REMARK  status: ('A' for Active; 'I' for Inactive)
REMARK       I    between atoms: C1_2  and  N1_3 
REMARK       I    between atoms: C1_2  and  N2_5 
REMARK    1  A    between atoms: N2_5  and  C2_6 
REMARK    2  A    between atoms: C7_13  and  C8_14 
ROOT
HETATM    1  C2  UNL     1      25.543   2.067  52.962  1.00  0.00     0.037 A 
HETATM    2  C3  UNL     1      26.641   1.587  53.645  1.00  0.00     0.032 A 
HETATM    3  C4  UNL     1      26.417   0.467  54.434  1.00  0.00     0.035 A 
HETATM    4  C5  UNL     1      25.164  -0.098  54.503  1.00  0.00     0.070 A 
HETATM    5  N3  UNL     1      24.959  -1.179  55.269  1.00  0.00    -0.241 NA
HETATM    6  C6  UNL     1      23.732  -1.733  55.336  1.00  0.00     0.234 A 
HETATM    7  N4  UNL     1      22.671  -1.225  54.642  1.00  0.00    -0.240 NA
HETATM    8  C7  UNL     1      22.813  -0.143  53.858  1.00  0.00     0.082 A 
HETATM    9  C13 UNL     1      24.080   0.392  53.816  1.00  0.00     0.025 A 
HETATM   10  C14 UNL     1      24.279   1.512  53.020  1.00  0.00     0.045 A 
ENDROOT
BRANCH   1  11
HETATM   11  N2  UNL     1      25.773   3.230  52.142  1.00  0.00    -0.307 N 
HETATM   12  C1  UNL     1      26.422   2.875  50.907  1.00  0.00     0.348 C 
HETATM   13  O1  UNL     1      26.625   1.617  50.864  1.00  0.00    -0.245 OA
HETATM   14  N1  UNL     1      26.741   3.872  49.952  1.00  0.00    -0.173 N 
HETATM   15  F1  UNL     1      27.350   3.608  48.774  1.00  0.00    -0.097 F 
HETATM   16  H1  UNL     1      26.481   4.838  50.200  1.00  0.00     0.204 HD
HETATM   17  H2  UNL     1      25.517   4.215  52.375  1.00  0.00     0.170 HD
ENDBRANCH   1  11
BRANCH   8  18
HETATM   18  C8  UNL     1      21.665   0.365  53.139  1.00  0.00     0.006 C 
HETATM   19  C9  UNL     1      20.595   1.094  53.414  1.00  0.00    -0.011 C 
HETATM   20  C10 UNL     1      20.150   1.806  52.399  1.00  0.00     0.037 C 
HETATM   21  C11 UNL     1      20.538   0.975  51.250  1.00  0.00     0.035 C 
HETATM   22 CL1  UNL     1      19.925   1.096  49.608  1.00  0.00    -0.084 Cl
HETATM   23  C12 UNL     1      21.453   0.105  51.698  1.00  0.00     0.038 C 
ENDBRANCH   8  18
TORSDOF 2
ENDMDL
