MODEL 1
REMARK VINA RESULT:      -7.0      0.000      0.000
REMARK  9 active torsions:
REMARK  status: ('A' for Active; 'I' for Inactive)
REMARK    1  A    between atoms: O1_2  and  C2_3 
REMARK    2  A    between atoms: C2_3  and  C3_5 
REMARK    3  A    between atoms: C3_5  and  C4_6 
REMARK    4  A    between atoms: C5_8  and  S1_9 
REMARK    5  A    between atoms: S1_9  and  S2_10 
REMARK    6  A    between atoms: S2_10  and  C6_11 
REMARK    7  A    between atoms: C7_12  and  C8_13 
REMARK    8  A    between atoms: C8_13  and  C9_14 
REMARK    9  A    between atoms: C9_14  and  O4_16 
ROOT
HETATM    1  C6  UNL     1      21.215   1.502  52.391  1.00  0.00     0.090 A 
HETATM    2  C7  UNL     1      20.566   0.625  53.239  1.00  0.00    -0.002 A 
HETATM    3  C11 UNL     1      19.421   0.143  52.633  1.00  0.00     0.000 A 
HETATM    4  C12 UNL     1      18.473  -0.747  53.100  1.00  0.00     0.014 A 
HETATM    5  C13 UNL     1      17.428  -1.049  52.278  1.00  0.00     0.001 A 
HETATM    6  C14 UNL     1      17.360  -0.464  51.034  1.00  0.00     0.002 A 
HETATM    7  C15 UNL     1      18.318   0.434  50.563  1.00  0.00     0.030 A 
HETATM    8  C16 UNL     1      19.389   0.749  51.395  1.00  0.00     0.045 A 
HETATM    9  N1  UNL     1      20.463   1.562  51.252  1.00  0.00    -0.344 N 
HETATM   10  C17 UNL     1      20.712   2.349  50.040  1.00  0.00     0.157 C 
ENDROOT
BRANCH   1  11
HETATM   11  S2  UNL     1      22.715   2.464  52.527  1.00  0.00    -0.034 SA
BRANCH  11  12
HETATM   12  S1  UNL     1      24.409   1.342  51.876  1.00  0.00    -0.061 SA
BRANCH  12  13
HETATM   13  C5  UNL     1      25.573   1.375  53.261  1.00  0.00     0.077 C 
HETATM   14  C4  UNL     1      26.559   0.494  53.387  1.00  0.00     0.028 C 
HETATM   15 CL1  UNL     1      26.760  -0.766  52.172  1.00  0.00    -0.088 Cl
BRANCH  14  16
HETATM   16  C3  UNL     1      27.518   0.497  54.501  1.00  0.00     0.162 C 
BRANCH  16  17
HETATM   17  C2  UNL     1      28.779   1.196  54.107  1.00  0.00     0.263 C 
HETATM   18  O2  UNL     1      28.898   2.381  54.522  1.00  0.00    -0.265 OA
BRANCH  17  19
HETATM   19  O1  UNL     1      29.622   0.410  53.336  1.00  0.00    -0.326 OA
HETATM   20  C1  UNL     1      29.979  -0.863  53.835  1.00  0.00     0.213 C 
ENDBRANCH  17  19
ENDBRANCH  16  17
ENDBRANCH  14  16
ENDBRANCH  12  13
ENDBRANCH  11  12
ENDBRANCH   1  11
BRANCH   2  21
HETATM   21  C8  UNL     1      21.142   0.341  54.579  1.00  0.00     0.153 C 
BRANCH  21  22
HETATM   22  C9  UNL     1      21.793  -0.989  54.634  1.00  0.00     0.262 C 
HETATM   23  O3  UNL     1      21.260  -2.125  54.804  1.00  0.00    -0.265 OA
BRANCH  22  24
HETATM   24  O4  UNL     1      23.176  -0.936  54.471  1.00  0.00    -0.326 OA
HETATM   25  C10 UNL     1      24.059  -1.313  55.538  1.00  0.00     0.213 C 
ENDBRANCH  22  24
ENDBRANCH  21  22
ENDBRANCH   2  21
TORSDOF 9
ENDMDL
MODEL 2
REMARK VINA RESULT:      -6.9      4.355      5.786
REMARK  9 active torsions:
REMARK  status: ('A' for Active; 'I' for Inactive)
REMARK    1  A    between atoms: O1_2  and  C2_3 
REMARK    2  A    between atoms: C2_3  and  C3_5 
REMARK    3  A    between atoms: C3_5  and  C4_6 
REMARK    4  A    between atoms: C5_8  and  S1_9 
REMARK    5  A    between atoms: S1_9  and  S2_10 
REMARK    6  A    between atoms: S2_10  and  C6_11 
REMARK    7  A    between atoms: C7_12  and  C8_13 
REMARK    8  A    between atoms: C8_13  and  C9_14 
REMARK    9  A    between atoms: C9_14  and  O4_16 
ROOT
HETATM    1  C6  UNL     1      23.756   1.974  52.387  1.00  0.00     0.090 A 
HETATM    2  C7  UNL     1      24.083   0.745  52.929  1.00  0.00    -0.002 A 
HETATM    3  C11 UNL     1      22.942   0.117  53.395  1.00  0.00     0.000 A 
HETATM    4  C12 UNL     1      22.790  -1.111  54.007  1.00  0.00     0.014 A 
HETATM    5  C13 UNL     1      21.529  -1.485  54.370  1.00  0.00     0.001 A 
HETATM    6  C14 UNL     1      20.476  -0.637  54.117  1.00  0.00     0.002 A 
HETATM    7  C15 UNL     1      20.632   0.604  53.499  1.00  0.00     0.030 A 
HETATM    8  C16 UNL     1      21.914   0.996  53.124  1.00  0.00     0.045 A 
HETATM    9  N1  UNL     1      22.403   2.106  52.521  1.00  0.00    -0.344 N 
HETATM   10  C17 UNL     1      21.555   3.227  52.106  1.00  0.00     0.157 C 
ENDROOT
BRANCH   1  11
HETATM   11  S2  UNL     1      24.712   3.276  51.621  1.00  0.00    -0.034 SA
BRANCH  11  12
HETATM   12  S1  UNL     1      24.393   3.324  49.512  1.00  0.00    -0.061 SA
BRANCH  12  13
HETATM   13  C5  UNL     1      24.364   5.077  49.067  1.00  0.00     0.077 C 
HETATM   14  C4  UNL     1      25.466   5.759  48.774  1.00  0.00     0.028 C 
HETATM   15 CL1  UNL     1      27.028   4.946  48.814  1.00  0.00    -0.088 Cl
BRANCH  14  16
HETATM   16  C3  UNL     1      25.471   7.183  48.409  1.00  0.00     0.162 C 
BRANCH  16  17
HETATM   17  C2  UNL     1      25.333   8.038  49.627  1.00  0.00     0.263 C 
HETATM   18  O2  UNL     1      24.195   8.551  49.806  1.00  0.00    -0.265 OA
BRANCH  17  19
HETATM   19  O1  UNL     1      26.500   8.123  50.370  1.00  0.00    -0.326 OA
HETATM   20  C1  UNL     1      27.391   9.182  50.084  1.00  0.00     0.213 C 
ENDBRANCH  17  19
ENDBRANCH  16  17
ENDBRANCH  14  16
ENDBRANCH  12  13
ENDBRANCH  11  12
ENDBRANCH   1  11
BRANCH   2  21
HETATM   21  C8  UNL     1      25.501   0.301  52.935  1.00  0.00     0.153 C 
BRANCH  21  22
HETATM   22  C9  UNL     1      26.140   0.499  54.256  1.00  0.00     0.262 C 
HETATM   23  O3  UNL     1      26.180  -0.294  55.244  1.00  0.00    -0.265 OA
BRANCH  22  24
HETATM   24  O4  UNL     1      26.771   1.734  54.388  1.00  0.00    -0.326 OA
HETATM   25  C10 UNL     1      27.871   2.094  53.540  1.00  0.00     0.213 C 
ENDBRANCH  22  24
ENDBRANCH  21  22
ENDBRANCH   2  21
TORSDOF 9
ENDMDL
MODEL 3
REMARK VINA RESULT:      -6.5      4.320      5.759
REMARK  9 active torsions:
REMARK  status: ('A' for Active; 'I' for Inactive)
REMARK    1  A    between atoms: O1_2  and  C2_3 
REMARK    2  A    between atoms: C2_3  and  C3_5 
REMARK    3  A    between atoms: C3_5  and  C4_6 
REMARK    4  A    between atoms: C5_8  and  S1_9 
REMARK    5  A    between atoms: S1_9  and  S2_10 
REMARK    6  A    between atoms: S2_10  and  C6_11 
REMARK    7  A    between atoms: C7_12  and  C8_13 
REMARK    8  A    between atoms: C8_13  and  C9_14 
REMARK    9  A    between atoms: C9_14  and  O4_16 
ROOT
HETATM    1  C6  UNL     1      23.857   1.511  52.049  1.00  0.00     0.090 A 
HETATM    2  C7  UNL     1      24.304   0.804  53.148  1.00  0.00    -0.002 A 
HETATM    3  C11 UNL     1      23.298  -0.021  53.619  1.00  0.00     0.000 A 
HETATM    4  C12 UNL     1      23.293  -0.898  54.685  1.00  0.00     0.014 A 
HETATM    5  C13 UNL     1      22.145  -1.595  54.926  1.00  0.00     0.001 A 
HETATM    6  C14 UNL     1      21.055  -1.398  54.110  1.00  0.00     0.002 A 
HETATM    7  C15 UNL     1      21.062  -0.512  53.033  1.00  0.00     0.030 A 
HETATM    8  C16 UNL     1      22.229   0.204  52.778  1.00  0.00     0.045 A 
HETATM    9  N1  UNL     1      22.565   1.121  51.839  1.00  0.00    -0.344 N 
HETATM   10  C17 UNL     1      21.637   1.573  50.798  1.00  0.00     0.157 C 
ENDROOT
BRANCH   1  11
HETATM   11  S2  UNL     1      24.613   2.722  50.972  1.00  0.00    -0.034 SA
BRANCH  11  12
HETATM   12  S1  UNL     1      23.827   4.672  51.338  1.00  0.00    -0.061 SA
BRANCH  12  13
HETATM   13  C5  UNL     1      24.865   5.800  50.377  1.00  0.00     0.077 C 
HETATM   14  C4  UNL     1      24.718   5.966  49.067  1.00  0.00     0.028 C 
HETATM   15 CL1  UNL     1      23.471   5.063  48.210  1.00  0.00    -0.088 Cl
BRANCH  14  16
HETATM   16  C3  UNL     1      25.546   6.876  48.263  1.00  0.00     0.162 C 
BRANCH  16  17
HETATM   17  C2  UNL     1      26.991   6.715  48.611  1.00  0.00     0.263 C 
HETATM   18  O2  UNL     1      27.510   5.614  48.286  1.00  0.00    -0.265 OA
BRANCH  17  19
HETATM   19  O1  UNL     1      27.528   7.826  49.243  1.00  0.00    -0.326 OA
HETATM   20  C1  UNL     1      28.516   8.567  48.555  1.00  0.00     0.213 C 
ENDBRANCH  17  19
ENDBRANCH  16  17
ENDBRANCH  14  16
ENDBRANCH  12  13
ENDBRANCH  11  12
ENDBRANCH   1  11
BRANCH   2  21
HETATM   21  C8  UNL     1      25.693   1.007  53.636  1.00  0.00     0.153 C 
BRANCH  21  22
HETATM   22  C9  UNL     1      26.600  -0.078  53.198  1.00  0.00     0.262 C 
HETATM   23  O3  UNL     1      26.773  -0.544  52.032  1.00  0.00    -0.265 OA
BRANCH  22  24
HETATM   24  O4  UNL     1      27.344  -0.632  54.237  1.00  0.00    -0.326 OA
HETATM   25  C10 UNL     1      28.534   0.012  54.718  1.00  0.00     0.213 C 
ENDBRANCH  22  24
ENDBRANCH  21  22
ENDBRANCH   2  21
TORSDOF 9
ENDMDL
MODEL 4
REMARK VINA RESULT:      -6.3      3.560      6.366
REMARK  9 active torsions:
REMARK  status: ('A' for Active; 'I' for Inactive)
REMARK    1  A    between atoms: O1_2  and  C2_3 
REMARK    2  A    between atoms: C2_3  and  C3_5 
REMARK    3  A    between atoms: C3_5  and  C4_6 
REMARK    4  A    between atoms: C5_8  and  S1_9 
REMARK    5  A    between atoms: S1_9  and  S2_10 
REMARK    6  A    between atoms: S2_10  and  C6_11 
REMARK    7  A    between atoms: C7_12  and  C8_13 
REMARK    8  A    between atoms: C8_13  and  C9_14 
REMARK    9  A    between atoms: C9_14  and  O4_16 
ROOT
HETATM    1  C6  UNL     1      22.517   1.876  52.582  1.00  0.00     0.090 A 
HETATM    2  C7  UNL     1      22.903   0.577  52.851  1.00  0.00    -0.002 A 
HETATM    3  C11 UNL     1      24.236   0.547  53.219  1.00  0.00     0.000 A 
HETATM    4  C12 UNL     1      25.038  -0.520  53.572  1.00  0.00     0.014 A 
HETATM    5  C13 UNL     1      26.337  -0.256  53.893  1.00  0.00     0.001 A 
HETATM    6  C14 UNL     1      26.790   1.043  53.851  1.00  0.00     0.002 A 
HETATM    7  C15 UNL     1      25.978   2.120  53.494  1.00  0.00     0.030 A 
HETATM    8  C16 UNL     1      24.650   1.862  53.165  1.00  0.00     0.045 A 
HETATM    9  N1  UNL     1      23.621   2.655  52.784  1.00  0.00    -0.344 N 
HETATM   10  C17 UNL     1      23.746   4.108  52.634  1.00  0.00     0.157 C 
ENDROOT
BRANCH   1  11
HETATM   11  S2  UNL     1      20.975   2.622  52.068  1.00  0.00    -0.034 SA
BRANCH  11  12
HETATM   12  S1  UNL     1      20.627   2.310  49.987  1.00  0.00    -0.061 SA
BRANCH  12  13
HETATM   13  C5  UNL     1      21.206   3.816  49.168  1.00  0.00     0.077 C 
HETATM   14  C4  UNL     1      22.480   4.006  48.840  1.00  0.00     0.028 C 
HETATM   15 CL1  UNL     1      23.669   2.759  49.208  1.00  0.00    -0.088 Cl
BRANCH  14  16
HETATM   16  C3  UNL     1      22.977   5.219  48.174  1.00  0.00     0.162 C 
BRANCH  16  17
HETATM   17  C2  UNL     1      23.838   6.012  49.104  1.00  0.00     0.263 C 
HETATM   18  O2  UNL     1      25.082   5.863  48.954  1.00  0.00    -0.265 OA
BRANCH  17  19
HETATM   19  O1  UNL     1      23.113   6.792  49.990  1.00  0.00    -0.326 OA
HETATM   20  C1  UNL     1      23.828   7.651  50.855  1.00  0.00     0.213 C 
ENDBRANCH  17  19
ENDBRANCH  16  17
ENDBRANCH  14  16
ENDBRANCH  12  13
ENDBRANCH  11  12
ENDBRANCH   1  11
BRANCH   2  21
HETATM   21  C8  UNL     1      21.913  -0.523  52.721  1.00  0.00     0.153 C 
BRANCH  21  22
HETATM   22  C9  UNL     1      21.185  -0.769  53.987  1.00  0.00     0.262 C 
HETATM   23  O3  UNL     1      21.592  -1.357  55.033  1.00  0.00    -0.265 OA
BRANCH  22  24
HETATM   24  O4  UNL     1      19.884  -0.270  53.985  1.00  0.00    -0.326 OA
HETATM   25  C10 UNL     1      18.978  -0.578  52.915  1.00  0.00     0.213 C 
ENDBRANCH  22  24
ENDBRANCH  21  22
ENDBRANCH   2  21
TORSDOF 9
ENDMDL
MODEL 5
REMARK VINA RESULT:      -6.3      3.186      6.875
REMARK  9 active torsions:
REMARK  status: ('A' for Active; 'I' for Inactive)
REMARK    1  A    between atoms: O1_2  and  C2_3 
REMARK    2  A    between atoms: C2_3  and  C3_5 
REMARK    3  A    between atoms: C3_5  and  C4_6 
REMARK    4  A    between atoms: C5_8  and  S1_9 
REMARK    5  A    between atoms: S1_9  and  S2_10 
REMARK    6  A    between atoms: S2_10  and  C6_11 
REMARK    7  A    between atoms: C7_12  and  C8_13 
REMARK    8  A    between atoms: C8_13  and  C9_14 
REMARK    9  A    between atoms: C9_14  and  O4_16 
ROOT
HETATM    1  C6  UNL     1      23.355   2.330  52.077  1.00  0.00     0.090 A 
HETATM    2  C7  UNL     1      24.050   1.235  52.554  1.00  0.00    -0.002 A 
HETATM    3  C11 UNL     1      23.206   0.423  53.288  1.00  0.00     0.000 A 
HETATM    4  C12 UNL     1      23.461  -0.765  53.944  1.00  0.00     0.014 A 
HETATM    5  C13 UNL     1      22.424  -1.361  54.601  1.00  0.00     0.001 A 
HETATM    6  C14 UNL     1      21.185  -0.763  54.584  1.00  0.00     0.002 A 
HETATM    7  C15 UNL     1      20.928   0.436  53.920  1.00  0.00     0.030 A 
HETATM    8  C16 UNL     1      21.979   1.053  53.246  1.00  0.00     0.045 A 
HETATM    9  N1  UNL     1      22.071   2.194  52.522  1.00  0.00    -0.344 N 
HETATM   10  C17 UNL     1      20.931   3.088  52.294  1.00  0.00     0.157 C 
ENDROOT
BRANCH   1  11
HETATM   11  S2  UNL     1      23.814   3.742  51.081  1.00  0.00    -0.034 SA
BRANCH  11  12
HETATM   12  S1  UNL     1      23.782   3.259  49.003  1.00  0.00    -0.061 SA
BRANCH  12  13
HETATM   13  C5  UNL     1      22.076   3.532  48.469  1.00  0.00     0.077 C 
HETATM   14  C4  UNL     1      21.145   2.586  48.538  1.00  0.00     0.028 C 
HETATM   15 CL1  UNL     1      21.566   0.996  49.170  1.00  0.00    -0.088 Cl
BRANCH  14  16
HETATM   16  C3  UNL     1      19.752   2.780  48.111  1.00  0.00     0.162 C 
BRANCH  16  17
HETATM   17  C2  UNL     1      18.866   3.001  49.294  1.00  0.00     0.263 C 
HETATM   18  O2  UNL     1      18.314   1.969  49.762  1.00  0.00    -0.265 OA
BRANCH  17  19
HETATM   19  O1  UNL     1      18.800   4.329  49.687  1.00  0.00    -0.326 OA
HETATM   20  C1  UNL     1      18.467   5.293  48.708  1.00  0.00     0.213 C 
ENDBRANCH  17  19
ENDBRANCH  16  17
ENDBRANCH  14  16
ENDBRANCH  12  13
ENDBRANCH  11  12
ENDBRANCH   1  11
BRANCH   2  21
HETATM   21  C8  UNL     1      25.495   1.089  52.236  1.00  0.00     0.153 C 
BRANCH  21  22
HETATM   22  C9  UNL     1      26.357   1.677  53.287  1.00  0.00     0.262 C 
HETATM   23  O3  UNL     1      26.196   1.661  54.544  1.00  0.00    -0.265 OA
BRANCH  22  24
HETATM   24  O4  UNL     1      27.483   2.323  52.783  1.00  0.00    -0.326 OA
HETATM   25  C10 UNL     1      28.687   2.419  53.559  1.00  0.00     0.213 C 
ENDBRANCH  22  24
ENDBRANCH  21  22
ENDBRANCH   2  21
TORSDOF 9
ENDMDL
MODEL 6
REMARK VINA RESULT:      -6.2      3.597      6.732
REMARK  9 active torsions:
REMARK  status: ('A' for Active; 'I' for Inactive)
REMARK    1  A    between atoms: O1_2  and  C2_3 
REMARK    2  A    between atoms: C2_3  and  C3_5 
REMARK    3  A    between atoms: C3_5  and  C4_6 
REMARK    4  A    between atoms: C5_8  and  S1_9 
REMARK    5  A    between atoms: S1_9  and  S2_10 
REMARK    6  A    between atoms: S2_10  and  C6_11 
REMARK    7  A    between atoms: C7_12  and  C8_13 
REMARK    8  A    between atoms: C8_13  and  C9_14 
REMARK    9  A    between atoms: C9_14  and  O4_16 
ROOT
HETATM    1  C6  UNL     1      22.311   1.967  52.375  1.00  0.00     0.090 A 
HETATM    2  C7  UNL     1      22.839   0.718  52.634  1.00  0.00    -0.002 A 
HETATM    3  C11 UNL     1      24.217   0.754  52.518  1.00  0.00     0.000 A 
HETATM    4  C12 UNL     1      25.151  -0.248  52.686  1.00  0.00     0.014 A 
HETATM    5  C13 UNL     1      26.464   0.074  52.504  1.00  0.00     0.001 A 
HETATM    6  C14 UNL     1      26.800   1.364  52.166  1.00  0.00     0.002 A 
HETATM    7  C15 UNL     1      25.855   2.376  51.996  1.00  0.00     0.030 A 
HETATM    8  C16 UNL     1      24.512   2.059  52.179  1.00  0.00     0.045 A 
HETATM    9  N1  UNL     1      23.371   2.783  52.094  1.00  0.00    -0.344 N 
HETATM   10  C17 UNL     1      23.354   4.208  51.752  1.00  0.00     0.157 C 
ENDROOT
BRANCH   1  11
HETATM   11  S2  UNL     1      20.647   2.621  52.350  1.00  0.00    -0.034 SA
BRANCH  11  12
HETATM   12  S1  UNL     1      19.430   1.569  50.948  1.00  0.00    -0.061 SA
BRANCH  12  13
HETATM   13  C5  UNL     1      19.462   2.562  49.437  1.00  0.00     0.077 C 
HETATM   14  C4  UNL     1      20.321   2.334  48.449  1.00  0.00     0.028 C 
HETATM   15 CL1  UNL     1      21.483   1.017  48.595  1.00  0.00    -0.088 Cl
BRANCH  14  16
HETATM   16  C3  UNL     1      20.369   3.125  47.211  1.00  0.00     0.162 C 
BRANCH  16  17
HETATM   17  C2  UNL     1      21.767   3.566  46.924  1.00  0.00     0.263 C 
HETATM   18  O2  UNL     1      22.155   3.410  45.735  1.00  0.00    -0.265 OA
BRANCH  17  19
HETATM   19  O1  UNL     1      22.416   4.083  48.035  1.00  0.00    -0.326 OA
HETATM   20  C1  UNL     1      22.879   5.417  47.970  1.00  0.00     0.213 C 
ENDBRANCH  17  19
ENDBRANCH  16  17
ENDBRANCH  14  16
ENDBRANCH  12  13
ENDBRANCH  11  12
ENDBRANCH   1  11
BRANCH   2  21
HETATM   21  C8  UNL     1      21.929  -0.406  52.978  1.00  0.00     0.153 C 
BRANCH  21  22
HETATM   22  C9  UNL     1      21.613  -0.443  54.425  1.00  0.00     0.262 C 
HETATM   23  O3  UNL     1      20.917   0.369  55.104  1.00  0.00    -0.265 OA
BRANCH  22  24
HETATM   24  O4  UNL     1      22.174  -1.532  55.087  1.00  0.00    -0.326 OA
HETATM   25  C10 UNL     1      23.484  -1.447  55.669  1.00  0.00     0.213 C 
ENDBRANCH  22  24
ENDBRANCH  21  22
ENDBRANCH   2  21
TORSDOF 9
ENDMDL
MODEL 7
REMARK VINA RESULT:      -6.1      4.167      6.433
REMARK  9 active torsions:
REMARK  status: ('A' for Active; 'I' for Inactive)
REMARK    1  A    between atoms: O1_2  and  C2_3 
REMARK    2  A    between atoms: C2_3  and  C3_5 
REMARK    3  A    between atoms: C3_5  and  C4_6 
REMARK    4  A    between atoms: C5_8  and  S1_9 
REMARK    5  A    between atoms: S1_9  and  S2_10 
REMARK    6  A    between atoms: S2_10  and  C6_11 
REMARK    7  A    between atoms: C7_12  and  C8_13 
REMARK    8  A    between atoms: C8_13  and  C9_14 
REMARK    9  A    between atoms: C9_14  and  O4_16 
ROOT
HETATM    1  C6  UNL     1      24.224   1.268  52.149  1.00  0.00     0.090 A 
HETATM    2  C7  UNL     1      24.489   0.523  53.281  1.00  0.00    -0.002 A 
HETATM    3  C11 UNL     1      23.352  -0.160  53.673  1.00  0.00     0.000 A 
HETATM    4  C12 UNL     1      23.151  -1.017  54.738  1.00  0.00     0.014 A 
HETATM    5  C13 UNL     1      21.908  -1.557  54.889  1.00  0.00     0.001 A 
HETATM    6  C14 UNL     1      20.919  -1.233  53.989  1.00  0.00     0.002 A 
HETATM    7  C15 UNL     1      21.124  -0.368  52.914  1.00  0.00     0.030 A 
HETATM    8  C16 UNL     1      22.389   0.190  52.750  1.00  0.00     0.045 A 
HETATM    9  N1  UNL     1      22.912   1.045  51.839  1.00  0.00    -0.344 N 
HETATM   10  C17 UNL     1      22.134   1.599  50.727  1.00  0.00     0.157 C 
ENDROOT
BRANCH   1  11
HETATM   11  S2  UNL     1      25.211   2.359  51.132  1.00  0.00    -0.034 SA
BRANCH  11  12
HETATM   12  S1  UNL     1      24.478   4.361  51.218  1.00  0.00    -0.061 SA
BRANCH  12  13
HETATM   13  C5  UNL     1      23.992   4.771  49.525  1.00  0.00     0.077 C 
HETATM   14  C4  UNL     1      23.818   6.023  49.114  1.00  0.00     0.028 C 
HETATM   15 CL1  UNL     1      24.060   7.351  50.247  1.00  0.00    -0.088 Cl
BRANCH  14  16
HETATM   16  C3  UNL     1      23.424   6.385  47.745  1.00  0.00     0.162 C 
BRANCH  16  17
HETATM   17  C2  UNL     1      22.139   5.717  47.374  1.00  0.00     0.263 C 
HETATM   18  O2  UNL     1      21.111   6.148  47.963  1.00  0.00    -0.265 OA
BRANCH  17  19
HETATM   19  O1  UNL     1      22.296   4.718  46.426  1.00  0.00    -0.326 OA
HETATM   20  C1  UNL     1      21.814   3.427  46.739  1.00  0.00     0.213 C 
ENDBRANCH  17  19
ENDBRANCH  16  17
ENDBRANCH  14  16
ENDBRANCH  12  13
ENDBRANCH  11  12
ENDBRANCH   1  11
BRANCH   2  21
HETATM   21  C8  UNL     1      25.850   0.553  53.876  1.00  0.00     0.153 C 
BRANCH  21  22
HETATM   22  C9  UNL     1      26.676  -0.594  53.432  1.00  0.00     0.262 C 
HETATM   23  O3  UNL     1      26.472  -1.391  52.468  1.00  0.00    -0.265 OA
BRANCH  22  24
HETATM   24  O4  UNL     1      27.820  -0.785  54.203  1.00  0.00    -0.326 OA
HETATM   25  C10 UNL     1      28.471   0.322  54.845  1.00  0.00     0.213 C 
ENDBRANCH  22  24
ENDBRANCH  21  22
ENDBRANCH   2  21
TORSDOF 9
ENDMDL
MODEL 8
REMARK VINA RESULT:      -6.1      2.781      4.118
REMARK  9 active torsions:
REMARK  status: ('A' for Active; 'I' for Inactive)
REMARK    1  A    between atoms: O1_2  and  C2_3 
REMARK    2  A    between atoms: C2_3  and  C3_5 
REMARK    3  A    between atoms: C3_5  and  C4_6 
REMARK    4  A    between atoms: C5_8  and  S1_9 
REMARK    5  A    between atoms: S1_9  and  S2_10 
REMARK    6  A    between atoms: S2_10  and  C6_11 
REMARK    7  A    between atoms: C7_12  and  C8_13 
REMARK    8  A    between atoms: C8_13  and  C9_14 
REMARK    9  A    between atoms: C9_14  and  O4_16 
ROOT
HETATM    1  C6  UNL     1      20.340   1.219  52.295  1.00  0.00     0.090 A 
HETATM    2  C7  UNL     1      19.202   1.048  51.530  1.00  0.00    -0.002 A 
HETATM    3  C11 UNL     1      18.469  -0.023  52.008  1.00  0.00     0.000 A 
HETATM    4  C12 UNL     1      17.275  -0.554  51.562  1.00  0.00     0.014 A 
HETATM    5  C13 UNL     1      16.772  -1.630  52.231  1.00  0.00     0.001 A 
HETATM    6  C14 UNL     1      17.463  -2.136  53.308  1.00  0.00     0.002 A 
HETATM    7  C15 UNL     1      18.669  -1.598  53.758  1.00  0.00     0.030 A 
HETATM    8  C16 UNL     1      19.192  -0.499  53.082  1.00  0.00     0.045 A 
HETATM    9  N1  UNL     1      20.311   0.245  53.252  1.00  0.00    -0.344 N 
HETATM   10  C17 UNL     1      21.287  -0.014  54.315  1.00  0.00     0.157 C 
ENDROOT
BRANCH   1  11
HETATM   11  S2  UNL     1      21.697   2.382  52.242  1.00  0.00    -0.034 SA
BRANCH  11  12
HETATM   12  S1  UNL     1      23.484   1.446  51.546  1.00  0.00    -0.061 SA
BRANCH  12  13
HETATM   13  C5  UNL     1      24.570   1.343  52.988  1.00  0.00     0.077 C 
HETATM   14  C4  UNL     1      25.894   1.410  52.893  1.00  0.00     0.028 C 
HETATM   15 CL1  UNL     1      26.643   1.604  51.310  1.00  0.00    -0.088 Cl
BRANCH  14  16
HETATM   16  C3  UNL     1      26.800   1.330  54.048  1.00  0.00     0.162 C 
BRANCH  16  17
HETATM   17  C2  UNL     1      26.897  -0.077  54.542  1.00  0.00     0.263 C 
HETATM   18  O2  UNL     1      26.173  -0.357  55.535  1.00  0.00    -0.265 OA
BRANCH  17  19
HETATM   19  O1  UNL     1      27.783  -0.854  53.811  1.00  0.00    -0.326 OA
HETATM   20  C1  UNL     1      29.164  -0.578  53.935  1.00  0.00     0.213 C 
ENDBRANCH  17  19
ENDBRANCH  16  17
ENDBRANCH  14  16
ENDBRANCH  12  13
ENDBRANCH  11  12
ENDBRANCH   1  11
BRANCH   2  21
HETATM   21  C8  UNL     1      18.940   1.966  50.391  1.00  0.00     0.153 C 
BRANCH  21  22
HETATM   22  C9  UNL     1      18.169   3.161  50.806  1.00  0.00     0.262 C 
HETATM   23  O3  UNL     1      18.053   3.666  51.962  1.00  0.00    -0.265 OA
BRANCH  22  24
HETATM   24  O4  UNL     1      17.501   3.782  49.754  1.00  0.00    -0.326 OA
HETATM   25  C10 UNL     1      17.993   5.005  49.186  1.00  0.00     0.213 C 
ENDBRANCH  22  24
ENDBRANCH  21  22
ENDBRANCH   2  21
TORSDOF 9
ENDMDL
MODEL 9
REMARK VINA RESULT:      -6.0      5.381      6.405
REMARK  9 active torsions:
REMARK  status: ('A' for Active; 'I' for Inactive)
REMARK    1  A    between atoms: O1_2  and  C2_3 
REMARK    2  A    between atoms: C2_3  and  C3_5 
REMARK    3  A    between atoms: C3_5  and  C4_6 
REMARK    4  A    between atoms: C5_8  and  S1_9 
REMARK    5  A    between atoms: S1_9  and  S2_10 
REMARK    6  A    between atoms: S2_10  and  C6_11 
REMARK    7  A    between atoms: C7_12  and  C8_13 
REMARK    8  A    between atoms: C8_13  and  C9_14 
REMARK    9  A    between atoms: C9_14  and  O4_16 
ROOT
HETATM    1  C6  UNL     1      24.114   2.710  50.550  1.00  0.00     0.090 A 
HETATM    2  C7  UNL     1      23.920   2.325  51.863  1.00  0.00    -0.002 A 
HETATM    3  C11 UNL     1      22.749   1.598  51.973  1.00  0.00     0.000 A 
HETATM    4  C12 UNL     1      22.162   1.018  53.081  1.00  0.00     0.014 A 
HETATM    5  C13 UNL     1      20.987   0.351  52.897  1.00  0.00     0.001 A 
HETATM    6  C14 UNL     1      20.441   0.283  51.636  1.00  0.00     0.002 A 
HETATM    7  C15 UNL     1      21.035   0.868  50.518  1.00  0.00     0.030 A 
HETATM    8  C16 UNL     1      22.235   1.552  50.694  1.00  0.00     0.045 A 
HETATM    9  N1  UNL     1      23.053   2.218  49.844  1.00  0.00    -0.344 N 
HETATM   10  C17 UNL     1      22.779   2.348  48.410  1.00  0.00     0.157 C 
ENDROOT
BRANCH   1  11
HETATM   11  S2  UNL     1      25.390   3.645  49.716  1.00  0.00    -0.034 SA
BRANCH  11  12
HETATM   12  S1  UNL     1      24.660   5.550  49.091  1.00  0.00    -0.061 SA
BRANCH  12  13
HETATM   13  C5  UNL     1      25.998   6.718  49.437  1.00  0.00     0.077 C 
HETATM   14  C4  UNL     1      25.798   7.867  50.073  1.00  0.00     0.028 C 
HETATM   15 CL1  UNL     1      24.174   8.293  50.608  1.00  0.00    -0.088 Cl
BRANCH  14  16
HETATM   16  C3  UNL     1      26.866   8.834  50.366  1.00  0.00     0.162 C 
BRANCH  16  17
HETATM   17  C2  UNL     1      27.055   9.771  49.218  1.00  0.00     0.263 C 
HETATM   18  O2  UNL     1      26.145  10.629  49.060  1.00  0.00    -0.265 OA
BRANCH  17  19
HETATM   19  O1  UNL     1      28.223   9.537  48.508  1.00  0.00    -0.326 OA
HETATM   20  C1  UNL     1      29.352   9.076  49.222  1.00  0.00     0.213 C 
ENDBRANCH  17  19
ENDBRANCH  16  17
ENDBRANCH  14  16
ENDBRANCH  12  13
ENDBRANCH  11  12
ENDBRANCH   1  11
BRANCH   2  21
HETATM   21  C8  UNL     1      24.917   2.711  52.895  1.00  0.00     0.153 C 
BRANCH  21  22
HETATM   22  C9  UNL     1      25.962   1.676  53.074  1.00  0.00     0.262 C 
HETATM   23  O3  UNL     1      26.054   0.540  52.519  1.00  0.00    -0.265 OA
BRANCH  22  24
HETATM   24  O4  UNL     1      26.955   2.042  53.979  1.00  0.00    -0.326 OA
HETATM   25  C10 UNL     1      28.292   2.318  53.535  1.00  0.00     0.213 C 
ENDBRANCH  22  24
ENDBRANCH  21  22
ENDBRANCH   2  21
TORSDOF 9
ENDMDL
