MODEL 1
REMARK VINA RESULT:      -7.4      0.000      0.000
REMARK  5 active torsions:
REMARK  status: ('A' for Active; 'I' for Inactive)
REMARK    1  A    between atoms: N1_7  and  C7_8 
REMARK    2  A    between atoms: C7_8  and  C8_9 
REMARK    3  A    between atoms: C10_12  and  C11_13 
REMARK    4  A    between atoms: C14_16  and  O1_17 
REMARK    5  A    between atoms: C15_18  and  O2_19 
ROOT
HETATM    1  C8  UNL     1      25.179   1.892  52.372  1.00  0.00     0.041 C 
HETATM    2  C9  UNL     1      26.157   2.459  51.524  1.00  0.00     0.097 C 
HETATM    3  N2  UNL     1      26.967   2.923  50.795  1.00  0.00    -0.192 NA
HETATM    4  C10 UNL     1      25.599   0.866  53.091  1.00  0.00     0.031 C 
ENDROOT
BRANCH   1   5
HETATM    5  C7  UNL     1      23.766   2.336  52.535  1.00  0.00     0.173 C 
BRANCH   5   6
HETATM    6  N1  UNL     1      23.017   1.943  51.360  1.00  0.00    -0.378 N 
HETATM    7  C2  UNL     1      23.131   2.524  50.048  1.00  0.00     0.103 A 
HETATM    8  C1  UNL     1      23.011   4.019  50.119  1.00  0.00     0.037 C 
HETATM    9  C3  UNL     1      22.166   1.880  49.133  1.00  0.00    -0.002 A 
HETATM   10  C4  UNL     1      21.298   0.896  49.368  1.00  0.00    -0.001 A 
HETATM   11  C5  UNL     1      21.305   0.387  50.736  1.00  0.00     0.017 A 
HETATM   12  C6  UNL     1      22.107   0.869  51.673  1.00  0.00     0.086 A 
ENDBRANCH   5   6
ENDBRANCH   1   5
BRANCH   4  13
HETATM   13  C11 UNL     1      26.828   0.103  53.275  1.00  0.00    -0.032 A 
HETATM   14  C12 UNL     1      27.859   0.848  53.855  1.00  0.00     0.014 A 
HETATM   15  C13 UNL     1      29.098   0.260  54.097  1.00  0.00     0.040 A 
HETATM   16  C14 UNL     1      29.269  -1.072  53.747  1.00  0.00     0.098 A 
HETATM   17  C15 UNL     1      28.230  -1.797  53.173  1.00  0.00     0.099 A 
HETATM   18  C16 UNL     1      26.999  -1.213  52.932  1.00  0.00     0.051 A 
BRANCH  16  19
HETATM   19  O1  UNL     1      30.455  -1.756  53.938  1.00  0.00    -0.358 OA
HETATM   20  H14 UNL     1      31.327  -1.210  53.814  1.00  0.00     0.217 HD
ENDBRANCH  16  19
BRANCH  17  21
HETATM   21  O2  UNL     1      28.319  -3.137  52.796  1.00  0.00    -0.358 OA
HETATM   22  H15 UNL     1      29.151  -3.447  52.282  1.00  0.00     0.217 HD
ENDBRANCH  17  21
ENDBRANCH   4  13
TORSDOF 5
ENDMDL
MODEL 2
REMARK VINA RESULT:      -7.4      3.032      4.789
REMARK  5 active torsions:
REMARK  status: ('A' for Active; 'I' for Inactive)
REMARK    1  A    between atoms: N1_7  and  C7_8 
REMARK    2  A    between atoms: C7_8  and  C8_9 
REMARK    3  A    between atoms: C10_12  and  C11_13 
REMARK    4  A    between atoms: C14_16  and  O1_17 
REMARK    5  A    between atoms: C15_18  and  O2_19 
ROOT
HETATM    1  C8  UNL     1      23.406   2.644  51.304  1.00  0.00     0.041 C 
HETATM    2  C9  UNL     1      23.617   3.472  52.430  1.00  0.00     0.097 C 
HETATM    3  N2  UNL     1      23.816   4.166  53.368  1.00  0.00    -0.192 NA
HETATM    4  C10 UNL     1      23.290   1.357  51.580  1.00  0.00     0.031 C 
ENDROOT
BRANCH   1   5
HETATM    5  C7  UNL     1      23.296   3.073  49.882  1.00  0.00     0.173 C 
BRANCH   5   6
HETATM    6  N1  UNL     1      24.406   3.950  49.573  1.00  0.00    -0.378 N 
HETATM    7  C2  UNL     1      24.318   5.351  49.255  1.00  0.00     0.103 A 
HETATM    8  C1  UNL     1      23.309   5.584  48.169  1.00  0.00     0.037 C 
HETATM    9  C3  UNL     1      25.664   5.880  48.958  1.00  0.00    -0.002 A 
HETATM   10  C4  UNL     1      26.845   5.259  48.972  1.00  0.00    -0.001 A 
HETATM   11  C5  UNL     1      26.788   3.845  49.333  1.00  0.00     0.017 A 
HETATM   12  C6  UNL     1      25.653   3.226  49.618  1.00  0.00     0.086 A 
ENDBRANCH   5   6
ENDBRANCH   1   5
BRANCH   4  13
HETATM   13  C11 UNL     1      23.321   0.492  52.754  1.00  0.00    -0.032 A 
HETATM   14  C12 UNL     1      22.049   0.187  53.248  1.00  0.00     0.014 A 
HETATM   15  C13 UNL     1      21.909  -0.630  54.367  1.00  0.00     0.040 A 
HETATM   16  C14 UNL     1      23.061  -1.122  54.965  1.00  0.00     0.098 A 
HETATM   17  C15 UNL     1      24.317  -0.807  54.458  1.00  0.00     0.099 A 
HETATM   18  C16 UNL     1      24.456   0.004  53.346  1.00  0.00     0.051 A 
BRANCH  16  19
HETATM   19  O1  UNL     1      23.043  -1.937  56.081  1.00  0.00    -0.358 OA
HETATM   20  H14 UNL     1      22.581  -2.858  55.971  1.00  0.00     0.217 HD
ENDBRANCH  16  19
BRANCH  17  21
HETATM   21  O2  UNL     1      25.521  -1.262  54.996  1.00  0.00    -0.358 OA
HETATM   22  H15 UNL     1      25.493  -2.018  55.689  1.00  0.00     0.217 HD
ENDBRANCH  17  21
ENDBRANCH   4  13
TORSDOF 5
ENDMDL
MODEL 3
REMARK VINA RESULT:      -7.3      2.901      4.638
REMARK  5 active torsions:
REMARK  status: ('A' for Active; 'I' for Inactive)
REMARK    1  A    between atoms: N1_7  and  C7_8 
REMARK    2  A    between atoms: C7_8  and  C8_9 
REMARK    3  A    between atoms: C10_12  and  C11_13 
REMARK    4  A    between atoms: C14_16  and  O1_17 
REMARK    5  A    between atoms: C15_18  and  O2_19 
ROOT
HETATM    1  C8  UNL     1      25.242   3.305  50.681  1.00  0.00     0.041 C 
HETATM    2  C9  UNL     1      24.353   3.304  51.779  1.00  0.00     0.097 C 
HETATM    3  N2  UNL     1      23.614   3.323  52.705  1.00  0.00    -0.192 NA
HETATM    4  C10 UNL     1      26.370   2.647  50.883  1.00  0.00     0.031 C 
ENDROOT
BRANCH   1   5
HETATM    5  C7  UNL     1      25.030   3.950  49.354  1.00  0.00     0.173 C 
BRANCH   5   6
HETATM    6  N1  UNL     1      25.576   5.290  49.397  1.00  0.00    -0.378 N 
HETATM    7  C2  UNL     1      26.639   5.801  48.571  1.00  0.00     0.103 A 
HETATM    8  C1  UNL     1      27.827   4.883  48.612  1.00  0.00     0.037 C 
HETATM    9  C3  UNL     1      26.937   7.197  48.950  1.00  0.00    -0.002 A 
HETATM   10  C4  UNL     1      26.364   7.969  49.874  1.00  0.00    -0.001 A 
HETATM   11  C5  UNL     1      25.285   7.330  50.622  1.00  0.00     0.017 A 
HETATM   12  C6  UNL     1      24.908   6.079  50.404  1.00  0.00     0.086 A 
ENDBRANCH   5   6
ENDBRANCH   1   5
BRANCH   4  13
HETATM   13  C11 UNL     1      27.005   1.888  51.953  1.00  0.00    -0.032 A 
HETATM   14  C12 UNL     1      26.685   0.527  51.930  1.00  0.00     0.014 A 
HETATM   15  C13 UNL     1      27.213  -0.334  52.888  1.00  0.00     0.040 A 
HETATM   16  C14 UNL     1      28.056   0.199  53.852  1.00  0.00     0.098 A 
HETATM   17  C15 UNL     1      28.364   1.555  53.858  1.00  0.00     0.099 A 
HETATM   18  C16 UNL     1      27.839   2.412  52.907  1.00  0.00     0.051 A 
BRANCH  16  19
HETATM   19  O1  UNL     1      28.634  -0.559  54.852  1.00  0.00    -0.358 OA
HETATM   20  H14 UNL     1      28.858  -0.065  55.735  1.00  0.00     0.217 HD
ENDBRANCH  16  19
BRANCH  17  21
HETATM   21  O2  UNL     1      29.203   2.169  54.788  1.00  0.00    -0.358 OA
HETATM   22  H15 UNL     1      30.172   1.841  54.865  1.00  0.00     0.217 HD
ENDBRANCH  17  21
ENDBRANCH   4  13
TORSDOF 5
ENDMDL
MODEL 4
REMARK VINA RESULT:      -7.3      1.299      1.966
REMARK  5 active torsions:
REMARK  status: ('A' for Active; 'I' for Inactive)
REMARK    1  A    between atoms: N1_7  and  C7_8 
REMARK    2  A    between atoms: C7_8  and  C8_9 
REMARK    3  A    between atoms: C10_12  and  C11_13 
REMARK    4  A    between atoms: C14_16  and  O1_17 
REMARK    5  A    between atoms: C15_18  and  O2_19 
ROOT
HETATM    1  C8  UNL     1      23.748   1.232  52.757  1.00  0.00     0.041 C 
HETATM    2  C9  UNL     1      23.340   0.080  53.466  1.00  0.00     0.097 C 
HETATM    3  N2  UNL     1      22.997  -0.874  54.079  1.00  0.00    -0.192 NA
HETATM    4  C10 UNL     1      25.046   1.302  52.517  1.00  0.00     0.031 C 
ENDROOT
BRANCH   1   5
HETATM    5  C7  UNL     1      22.879   2.336  52.260  1.00  0.00     0.173 C 
BRANCH   5   6
HETATM    6  N1  UNL     1      22.714   2.189  50.830  1.00  0.00    -0.378 N 
HETATM    7  C2  UNL     1      23.412   2.933  49.814  1.00  0.00     0.103 A 
HETATM    8  C1  UNL     1      23.317   4.408  50.079  1.00  0.00     0.037 C 
HETATM    9  C3  UNL     1      22.931   2.525  48.478  1.00  0.00    -0.002 A 
HETATM   10  C4  UNL     1      22.021   1.609  48.145  1.00  0.00    -0.001 A 
HETATM   11  C5  UNL     1      21.408   0.916  49.275  1.00  0.00     0.017 A 
HETATM   12  C6  UNL     1      21.728   1.179  50.533  1.00  0.00     0.086 A 
ENDBRANCH   5   6
ENDBRANCH   1   5
BRANCH   4  13
HETATM   13  C11 UNL     1      26.241   0.511  52.783  1.00  0.00    -0.032 A 
HETATM   14  C12 UNL     1      27.330   1.280  53.205  1.00  0.00     0.014 A 
HETATM   15  C13 UNL     1      28.547   0.670  53.499  1.00  0.00     0.040 A 
HETATM   16  C14 UNL     1      28.639  -0.707  53.360  1.00  0.00     0.098 A 
HETATM   17  C15 UNL     1      27.544  -1.455  52.941  1.00  0.00     0.099 A 
HETATM   18  C16 UNL     1      26.334  -0.850  52.648  1.00  0.00     0.051 A 
BRANCH  16  19
HETATM   19  O1  UNL     1      29.795  -1.417  53.621  1.00  0.00    -0.358 OA
HETATM   20  H14 UNL     1      30.689  -0.921  53.447  1.00  0.00     0.217 HD
ENDBRANCH  16  19
BRANCH  17  21
HETATM   21  O2  UNL     1      27.551  -2.841  52.779  1.00  0.00    -0.358 OA
HETATM   22  H15 UNL     1      26.824  -3.270  52.196  1.00  0.00     0.217 HD
ENDBRANCH  17  21
ENDBRANCH   4  13
TORSDOF 5
ENDMDL
MODEL 5
REMARK VINA RESULT:      -7.2      1.388      2.192
REMARK  5 active torsions:
REMARK  status: ('A' for Active; 'I' for Inactive)
REMARK    1  A    between atoms: N1_7  and  C7_8 
REMARK    2  A    between atoms: C7_8  and  C8_9 
REMARK    3  A    between atoms: C10_12  and  C11_13 
REMARK    4  A    between atoms: C14_16  and  O1_17 
REMARK    5  A    between atoms: C15_18  and  O2_19 
ROOT
HETATM    1  C8  UNL     1      25.016   3.081  51.425  1.00  0.00     0.041 C 
HETATM    2  C9  UNL     1      26.003   3.304  50.439  1.00  0.00     0.097 C 
HETATM    3  N2  UNL     1      26.821   3.475  49.599  1.00  0.00    -0.192 NA
HETATM    4  C10 UNL     1      25.406   2.323  52.435  1.00  0.00     0.031 C 
ENDROOT
BRANCH   1   5
HETATM    5  C7  UNL     1      23.624   3.612  51.438  1.00  0.00     0.173 C 
BRANCH   5   6
HETATM    6  N1  UNL     1      22.709   2.523  51.165  1.00  0.00    -0.378 N 
HETATM    7  C2  UNL     1      22.642   1.754  49.950  1.00  0.00     0.103 A 
HETATM    8  C1  UNL     1      22.555   2.660  48.756  1.00  0.00     0.037 C 
HETATM    9  C3  UNL     1      21.548   0.767  50.044  1.00  0.00    -0.002 A 
HETATM   10  C4  UNL     1      20.708   0.522  51.051  1.00  0.00    -0.001 A 
HETATM   11  C5  UNL     1      20.903   1.361  52.230  1.00  0.00     0.017 A 
HETATM   12  C6  UNL     1      21.837   2.297  52.293  1.00  0.00     0.086 A 
ENDBRANCH   5   6
ENDBRANCH   1   5
BRANCH   4  13
HETATM   13  C11 UNL     1      26.606   1.609  52.855  1.00  0.00    -0.032 A 
HETATM   14  C12 UNL     1      26.561   0.241  52.573  1.00  0.00     0.014 A 
HETATM   15  C13 UNL     1      27.633  -0.581  52.912  1.00  0.00     0.040 A 
HETATM   16  C14 UNL     1      28.730  -0.000  53.532  1.00  0.00     0.098 A 
HETATM   17  C15 UNL     1      28.757   1.364  53.802  1.00  0.00     0.099 A 
HETATM   18  C16 UNL     1      27.692   2.180  53.466  1.00  0.00     0.051 A 
BRANCH  16  19
HETATM   19  O1  UNL     1      29.847  -0.718  53.915  1.00  0.00    -0.358 OA
HETATM   20  H14 UNL     1      30.277  -0.452  54.821  1.00  0.00     0.217 HD
ENDBRANCH  16  19
BRANCH  17  21
HETATM   21  O2  UNL     1      29.820   2.025  54.417  1.00  0.00    -0.358 OA
HETATM   22  H15 UNL     1      30.351   1.530  55.143  1.00  0.00     0.217 HD
ENDBRANCH  17  21
ENDBRANCH   4  13
TORSDOF 5
ENDMDL
MODEL 6
REMARK VINA RESULT:      -7.1      1.575      2.338
REMARK  5 active torsions:
REMARK  status: ('A' for Active; 'I' for Inactive)
REMARK    1  A    between atoms: N1_7  and  C7_8 
REMARK    2  A    between atoms: C7_8  and  C8_9 
REMARK    3  A    between atoms: C10_12  and  C11_13 
REMARK    4  A    between atoms: C14_16  and  O1_17 
REMARK    5  A    between atoms: C15_18  and  O2_19 
ROOT
HETATM    1  C8  UNL     1      24.142   1.144  52.079  1.00  0.00     0.041 C 
HETATM    2  C9  UNL     1      23.653   0.291  53.094  1.00  0.00     0.097 C 
HETATM    3  N2  UNL     1      23.243  -0.406  53.959  1.00  0.00    -0.192 NA
HETATM    4  C10 UNL     1      25.440   1.044  51.851  1.00  0.00     0.031 C 
ENDROOT
BRANCH   1   5
HETATM    5  C7  UNL     1      23.355   2.108  51.259  1.00  0.00     0.173 C 
BRANCH   5   6
HETATM    6  N1  UNL     1      21.962   1.715  51.290  1.00  0.00    -0.378 N 
HETATM    7  C2  UNL     1      21.343   0.715  50.459  1.00  0.00     0.103 A 
HETATM    8  C1  UNL     1      21.659   0.960  49.012  1.00  0.00     0.037 C 
HETATM    9  C3  UNL     1      19.900   0.640  50.762  1.00  0.00    -0.002 A 
HETATM   10  C4  UNL     1      19.181   1.321  51.655  1.00  0.00    -0.001 A 
HETATM   11  C5  UNL     1      19.941   2.287  52.443  1.00  0.00     0.017 A 
HETATM   12  C6  UNL     1      21.241   2.476  52.281  1.00  0.00     0.086 A 
ENDBRANCH   5   6
ENDBRANCH   1   5
BRANCH   4  13
HETATM   13  C11 UNL     1      26.574   0.284  52.363  1.00  0.00    -0.032 A 
HETATM   14  C12 UNL     1      27.580   1.090  52.905  1.00  0.00     0.014 A 
HETATM   15  C13 UNL     1      28.731   0.514  53.435  1.00  0.00     0.040 A 
HETATM   16  C14 UNL     1      28.843  -0.869  53.407  1.00  0.00     0.098 A 
HETATM   17  C15 UNL     1      27.831  -1.654  52.864  1.00  0.00     0.099 A 
HETATM   18  C16 UNL     1      26.687  -1.082  52.336  1.00  0.00     0.051 A 
BRANCH  16  19
HETATM   19  O1  UNL     1      29.940  -1.548  53.901  1.00  0.00    -0.358 OA
HETATM   20  H14 UNL     1      29.929  -1.766  54.914  1.00  0.00     0.217 HD
ENDBRANCH  16  19
BRANCH  17  21
HETATM   21  O2  UNL     1      27.863  -3.047  52.800  1.00  0.00    -0.358 OA
HETATM   22  H15 UNL     1      28.204  -3.567  53.615  1.00  0.00     0.217 HD
ENDBRANCH  17  21
ENDBRANCH   4  13
TORSDOF 5
ENDMDL
MODEL 7
REMARK VINA RESULT:      -7.1      2.212      3.989
REMARK  5 active torsions:
REMARK  status: ('A' for Active; 'I' for Inactive)
REMARK    1  A    between atoms: N1_7  and  C7_8 
REMARK    2  A    between atoms: C7_8  and  C8_9 
REMARK    3  A    between atoms: C10_12  and  C11_13 
REMARK    4  A    between atoms: C14_16  and  O1_17 
REMARK    5  A    between atoms: C15_18  and  O2_19 
ROOT
HETATM    1  C8  UNL     1      24.570   2.390  51.187  1.00  0.00     0.041 C 
HETATM    2  C9  UNL     1      23.814   1.803  52.227  1.00  0.00     0.097 C 
HETATM    3  N2  UNL     1      23.179   1.331  53.108  1.00  0.00    -0.192 NA
HETATM    4  C10 UNL     1      25.872   2.178  51.264  1.00  0.00     0.031 C 
ENDROOT
BRANCH   1   5
HETATM    5  C7  UNL     1      24.052   3.190  50.042  1.00  0.00     0.173 C 
BRANCH   5   6
HETATM    6  N1  UNL     1      24.395   4.581  50.255  1.00  0.00    -0.378 N 
HETATM    7  C2  UNL     1      23.860   5.439  51.280  1.00  0.00     0.103 A 
HETATM    8  C1  UNL     1      22.360   5.392  51.280  1.00  0.00     0.037 C 
HETATM    9  C3  UNL     1      24.424   6.797  51.136  1.00  0.00    -0.002 A 
HETATM   10  C4  UNL     1      25.310   7.261  50.254  1.00  0.00    -0.001 A 
HETATM   11  C5  UNL     1      25.784   6.276  49.286  1.00  0.00     0.017 A 
HETATM   12  C6  UNL     1      25.364   5.021  49.281  1.00  0.00     0.086 A 
ENDBRANCH   5   6
ENDBRANCH   1   5
BRANCH   4  13
HETATM   13  C11 UNL     1      26.808   1.492  52.147  1.00  0.00    -0.032 A 
HETATM   14  C12 UNL     1      26.700   0.099  52.091  1.00  0.00     0.014 A 
HETATM   15  C13 UNL     1      27.527  -0.700  52.876  1.00  0.00     0.040 A 
HETATM   16  C14 UNL     1      28.448  -0.074  53.704  1.00  0.00     0.098 A 
HETATM   17  C15 UNL     1      28.541   1.314  53.744  1.00  0.00     0.099 A 
HETATM   18  C16 UNL     1      27.719   2.108  52.965  1.00  0.00     0.051 A 
BRANCH  16  19
HETATM   19  O1  UNL     1      29.315  -0.765  54.527  1.00  0.00    -0.358 OA
HETATM   20  H14 UNL     1      30.217  -0.301  54.741  1.00  0.00     0.217 HD
ENDBRANCH  16  19
BRANCH  17  21
HETATM   21  O2  UNL     1      29.439   2.020  54.544  1.00  0.00    -0.358 OA
HETATM   22  H15 UNL     1      29.115   2.372  55.452  1.00  0.00     0.217 HD
ENDBRANCH  17  21
ENDBRANCH   4  13
TORSDOF 5
ENDMDL
MODEL 8
REMARK VINA RESULT:      -7.0      3.410      6.612
REMARK  5 active torsions:
REMARK  status: ('A' for Active; 'I' for Inactive)
REMARK    1  A    between atoms: N1_7  and  C7_8 
REMARK    2  A    between atoms: C7_8  and  C8_9 
REMARK    3  A    between atoms: C10_12  and  C11_13 
REMARK    4  A    between atoms: C14_16  and  O1_17 
REMARK    5  A    between atoms: C15_18  and  O2_19 
ROOT
HETATM    1  C8  UNL     1      24.802   2.192  52.043  1.00  0.00     0.041 C 
HETATM    2  C9  UNL     1      24.166   3.357  52.527  1.00  0.00     0.097 C 
HETATM    3  N2  UNL     1      23.643   4.331  52.952  1.00  0.00    -0.192 NA
HETATM    4  C10 UNL     1      24.022   1.127  51.972  1.00  0.00     0.031 C 
ENDROOT
BRANCH   1   5
HETATM    5  C7  UNL     1      26.221   2.056  51.611  1.00  0.00     0.173 C 
BRANCH   5   6
HETATM    6  N1  UNL     1      26.890   1.127  52.496  1.00  0.00    -0.378 N 
HETATM    7  C2  UNL     1      27.577   1.462  53.717  1.00  0.00     0.103 A 
HETATM    8  C1  UNL     1      28.560   2.572  53.483  1.00  0.00     0.037 C 
HETATM    9  C3  UNL     1      28.166   0.243  54.307  1.00  0.00    -0.002 A 
HETATM   10  C4  UNL     1      28.115  -1.019  53.880  1.00  0.00    -0.001 A 
HETATM   11  C5  UNL     1      27.368  -1.217  52.642  1.00  0.00     0.017 A 
HETATM   12  C6  UNL     1      26.790  -0.220  51.989  1.00  0.00     0.086 A 
ENDBRANCH   5   6
ENDBRANCH   1   5
BRANCH   4  13
HETATM   13  C11 UNL     1      22.637   0.776  52.261  1.00  0.00    -0.032 A 
HETATM   14  C12 UNL     1      21.833   0.714  51.119  1.00  0.00     0.014 A 
HETATM   15  C13 UNL     1      20.483   0.391  51.229  1.00  0.00     0.040 A 
HETATM   16  C14 UNL     1      19.972   0.137  52.494  1.00  0.00     0.098 A 
HETATM   17  C15 UNL     1      20.789   0.203  53.618  1.00  0.00     0.099 A 
HETATM   18  C16 UNL     1      22.130   0.524  53.510  1.00  0.00     0.051 A 
BRANCH  16  19
HETATM   19  O1  UNL     1      18.649  -0.189  52.722  1.00  0.00    -0.358 OA
HETATM   20  H14 UNL     1      17.961   0.580  52.623  1.00  0.00     0.217 HD
ENDBRANCH  16  19
BRANCH  17  21
HETATM   21  O2  UNL     1      20.356  -0.040  54.921  1.00  0.00    -0.358 OA
HETATM   22  H15 UNL     1      20.904  -0.679  55.508  1.00  0.00     0.217 HD
ENDBRANCH  17  21
ENDBRANCH   4  13
TORSDOF 5
ENDMDL
MODEL 9
REMARK VINA RESULT:      -6.9      2.195      3.759
REMARK  5 active torsions:
REMARK  status: ('A' for Active; 'I' for Inactive)
REMARK    1  A    between atoms: N1_7  and  C7_8 
REMARK    2  A    between atoms: C7_8  and  C8_9 
REMARK    3  A    between atoms: C10_12  and  C11_13 
REMARK    4  A    between atoms: C14_16  and  O1_17 
REMARK    5  A    between atoms: C15_18  and  O2_19 
ROOT
HETATM    1  C8  UNL     1      25.150   3.005  50.362  1.00  0.00     0.041 C 
HETATM    2  C9  UNL     1      26.340   3.516  49.797  1.00  0.00     0.097 C 
HETATM    3  N2  UNL     1      27.335   3.930  49.306  1.00  0.00    -0.192 NA
HETATM    4  C10 UNL     1      25.331   2.188  51.385  1.00  0.00     0.031 C 
ENDROOT
BRANCH   1   5
HETATM    5  C7  UNL     1      23.754   3.299  49.934  1.00  0.00     0.173 C 
BRANCH   5   6
HETATM    6  N1  UNL     1      23.542   4.730  49.990  1.00  0.00    -0.378 N 
HETATM    7  C2  UNL     1      23.507   5.537  51.182  1.00  0.00     0.103 A 
HETATM    8  C1  UNL     1      22.560   4.952  52.189  1.00  0.00     0.037 C 
HETATM    9  C3  UNL     1      23.222   6.942  50.824  1.00  0.00    -0.002 A 
HETATM   10  C4  UNL     1      23.033   7.492  49.624  1.00  0.00    -0.001 A 
HETATM   11  C5  UNL     1      23.117   6.561  48.503  1.00  0.00     0.017 A 
HETATM   12  C6  UNL     1      23.357   5.269  48.664  1.00  0.00     0.086 A 
ENDBRANCH   5   6
ENDBRANCH   1   5
BRANCH   4  13
HETATM   13  C11 UNL     1      26.445   1.625  52.138  1.00  0.00    -0.032 A 
HETATM   14  C12 UNL     1      26.507   0.229  52.072  1.00  0.00     0.014 A 
HETATM   15  C13 UNL     1      27.515  -0.460  52.740  1.00  0.00     0.040 A 
HETATM   16  C14 UNL     1      28.444   0.276  53.462  1.00  0.00     0.098 A 
HETATM   17  C15 UNL     1      28.367   1.664  53.514  1.00  0.00     0.099 A 
HETATM   18  C16 UNL     1      27.365   2.350  52.851  1.00  0.00     0.051 A 
BRANCH  16  19
HETATM   19  O1  UNL     1      29.484  -0.301  54.165  1.00  0.00    -0.358 OA
HETATM   20  H14 UNL     1      29.445  -1.330  54.282  1.00  0.00     0.217 HD
ENDBRANCH  16  19
BRANCH  17  21
HETATM   21  O2  UNL     1      29.259   2.477  54.212  1.00  0.00    -0.358 OA
HETATM   22  H15 UNL     1      30.110   2.053  54.597  1.00  0.00     0.217 HD
ENDBRANCH  17  21
ENDBRANCH   4  13
TORSDOF 5
ENDMDL
