MODEL 1
REMARK VINA RESULT:      -7.2      0.000      0.000
REMARK  6 active torsions:
REMARK  status: ('A' for Active; 'I' for Inactive)
REMARK    1  A    between atoms: N1_7  and  C6_8 
REMARK    2  A    between atoms: C6_8  and  C7_9 
REMARK    3  A    between atoms: C7_9  and  C9_11 
REMARK    4  A    between atoms: C9_11  and  C10_12 
REMARK    5  A    between atoms: C11_13  and  O2_14 
REMARK    6  A    between atoms: O2_14  and  C12_15 
ROOT
HETATM    1  C9  UNL     1      24.711   2.417  51.670  1.00  0.00     0.035 C 
ENDROOT
BRANCH   1   2
HETATM    2  C7  UNL     1      23.416   1.677  51.436  1.00  0.00     0.003 C 
HETATM    3  C8  UNL     1      22.761   2.275  50.240  1.00  0.00     0.012 C 
BRANCH   2   4
HETATM    4  C6  UNL     1      22.569   1.626  52.676  1.00  0.00     0.127 C 
BRANCH   4   5
HETATM    5  N1  UNL     1      22.337   0.282  53.135  1.00  0.00    -0.381 N 
HETATM    6  C2  UNL     1      20.994  -0.236  53.025  1.00  0.00     0.021 C 
HETATM    7  C1  UNL     1      20.133   0.095  52.075  1.00  0.00     0.040 C 
HETATM    8  C3  UNL     1      20.502  -1.226  54.049  1.00  0.00     0.223 C 
HETATM    9  O1  UNL     1      21.320  -1.102  55.167  1.00  0.00    -0.384 OA
HETATM   10  C4  UNL     1      22.649  -1.331  54.949  1.00  0.00     0.187 C 
HETATM   11  C5  UNL     1      23.234  -0.688  53.726  1.00  0.00     0.149 C 
ENDBRANCH   4   5
ENDBRANCH   2   4
ENDBRANCH   1   2
BRANCH   1  12
HETATM   12  C10 UNL     1      24.958   2.558  53.128  1.00  0.00    -0.002 C 
HETATM   13  C11 UNL     1      26.063   2.068  53.661  1.00  0.00     0.138 C 
BRANCH  13  14
HETATM   14  O2  UNL     1      26.897   1.450  52.744  1.00  0.00    -0.323 OA
BRANCH  14  15
HETATM   15  C12 UNL     1      27.970   0.654  53.104  1.00  0.00     0.080 A 
HETATM   16  C13 UNL     1      29.190   1.007  53.637  1.00  0.00     0.038 A 
HETATM   17  C14 UNL     1      30.125   0.028  53.925  1.00  0.00     0.003 A 
HETATM   18  C15 UNL     1      29.864  -1.286  53.689  1.00  0.00     0.001 A 
HETATM   19  C16 UNL     1      28.641  -1.685  53.150  1.00  0.00     0.009 A 
HETATM   20  C17 UNL     1      27.716  -0.697  52.869  1.00  0.00    -0.028 A 
HETATM   21  C18 UNL     1      26.446  -1.232  52.300  1.00  0.00     0.051 C 
ENDBRANCH  14  15
ENDBRANCH  13  14
ENDBRANCH   1  12
TORSDOF 6
ENDMDL
MODEL 2
REMARK VINA RESULT:      -7.0      2.068      6.825
REMARK  6 active torsions:
REMARK  status: ('A' for Active; 'I' for Inactive)
REMARK    1  A    between atoms: N1_7  and  C6_8 
REMARK    2  A    between atoms: C6_8  and  C7_9 
REMARK    3  A    between atoms: C7_9  and  C9_11 
REMARK    4  A    between atoms: C9_11  and  C10_12 
REMARK    5  A    between atoms: C11_13  and  O2_14 
REMARK    6  A    between atoms: O2_14  and  C12_15 
ROOT
HETATM    1  C9  UNL     1      24.365   0.098  53.041  1.00  0.00     0.035 C 
ENDROOT
BRANCH   1   2
HETATM    2  C7  UNL     1      25.382  -0.828  53.664  1.00  0.00     0.003 C 
HETATM    3  C8  UNL     1      25.694  -0.309  55.025  1.00  0.00     0.012 C 
BRANCH   2   4
HETATM    4  C6  UNL     1      26.569  -1.039  52.768  1.00  0.00     0.127 C 
BRANCH   4   5
HETATM    5  N1  UNL     1      27.520   0.039  52.843  1.00  0.00    -0.381 N 
HETATM    6  C2  UNL     1      28.784  -0.232  53.484  1.00  0.00     0.021 C 
HETATM    7  C1  UNL     1      29.399  -1.405  53.475  1.00  0.00     0.040 C 
HETATM    8  C3  UNL     1      29.484   0.876  54.229  1.00  0.00     0.223 C 
HETATM    9  O1  UNL     1      28.528   1.844  54.518  1.00  0.00    -0.384 OA
HETATM   10  C4  UNL     1      27.894   2.385  53.434  1.00  0.00     0.187 C 
HETATM   11  C5  UNL     1      27.438   1.411  52.388  1.00  0.00     0.149 C 
ENDBRANCH   4   5
ENDBRANCH   2   4
ENDBRANCH   1   2
BRANCH   1  12
HETATM   12  C10 UNL     1      22.993  -0.323  53.427  1.00  0.00    -0.002 C 
HETATM   13  C11 UNL     1      21.950   0.393  53.046  1.00  0.00     0.138 C 
BRANCH  13  14
HETATM   14  O2  UNL     1      22.285   1.507  52.294  1.00  0.00    -0.323 OA
BRANCH  14  15
HETATM   15  C12 UNL     1      22.166   1.561  50.916  1.00  0.00     0.080 A 
HETATM   16  C13 UNL     1      21.298   0.893  50.080  1.00  0.00     0.038 A 
HETATM   17  C14 UNL     1      21.360   1.106  48.713  1.00  0.00     0.003 A 
HETATM   18  C15 UNL     1      22.265   1.966  48.174  1.00  0.00     0.001 A 
HETATM   19  C16 UNL     1      23.160   2.662  48.987  1.00  0.00     0.009 A 
HETATM   20  C17 UNL     1      23.088   2.440  50.349  1.00  0.00    -0.028 A 
HETATM   21  C18 UNL     1      24.086   3.233  51.122  1.00  0.00     0.051 C 
ENDBRANCH  14  15
ENDBRANCH  13  14
ENDBRANCH   1  12
TORSDOF 6
ENDMDL
MODEL 3
REMARK VINA RESULT:      -7.0      3.344      6.007
REMARK  6 active torsions:
REMARK  status: ('A' for Active; 'I' for Inactive)
REMARK    1  A    between atoms: N1_7  and  C6_8 
REMARK    2  A    between atoms: C6_8  and  C7_9 
REMARK    3  A    between atoms: C7_9  and  C9_11 
REMARK    4  A    between atoms: C9_11  and  C10_12 
REMARK    5  A    between atoms: C11_13  and  O2_14 
REMARK    6  A    between atoms: O2_14  and  C12_15 
ROOT
HETATM    1  C9  UNL     1      23.465   2.752  51.557  1.00  0.00     0.035 C 
ENDROOT
BRANCH   1   2
HETATM    2  C7  UNL     1      24.074   1.614  52.340  1.00  0.00     0.003 C 
HETATM    3  C8  UNL     1      22.976   0.676  52.706  1.00  0.00     0.012 C 
BRANCH   2   4
HETATM    4  C6  UNL     1      24.907   2.108  53.489  1.00  0.00     0.127 C 
BRANCH   4   5
HETATM    5  N1  UNL     1      26.262   1.626  53.439  1.00  0.00    -0.381 N 
HETATM    6  C2  UNL     1      26.591   0.481  54.254  1.00  0.00     0.021 C 
HETATM    7  C1  UNL     1      25.752  -0.497  54.557  1.00  0.00     0.040 C 
HETATM    8  C3  UNL     1      27.982   0.359  54.823  1.00  0.00     0.223 C 
HETATM    9  O1  UNL     1      28.549   1.629  54.800  1.00  0.00    -0.384 OA
HETATM   10  C4  UNL     1      28.636   2.209  53.566  1.00  0.00     0.187 C 
HETATM   11  C5  UNL     1      27.414   2.102  52.702  1.00  0.00     0.149 C 
ENDBRANCH   4   5
ENDBRANCH   2   4
ENDBRANCH   1   2
BRANCH   1  12
HETATM   12  C10 UNL     1      23.653   4.030  52.292  1.00  0.00    -0.002 C 
HETATM   13  C11 UNL     1      24.176   5.075  51.676  1.00  0.00     0.138 C 
BRANCH  13  14
HETATM   14  O2  UNL     1      24.502   4.835  50.351  1.00  0.00    -0.323 OA
BRANCH  14  15
HETATM   15  C12 UNL     1      25.564   5.442  49.705  1.00  0.00     0.080 A 
HETATM   16  C13 UNL     1      25.793   6.775  49.446  1.00  0.00     0.038 A 
HETATM   17  C14 UNL     1      26.942   7.159  48.775  1.00  0.00     0.003 A 
HETATM   18  C15 UNL     1      27.856   6.241  48.363  1.00  0.00     0.001 A 
HETATM   19  C16 UNL     1      27.662   4.881  48.606  1.00  0.00     0.009 A 
HETATM   20  C17 UNL     1      26.511   4.512  49.277  1.00  0.00    -0.028 A 
HETATM   21  C18 UNL     1      26.406   3.040  49.485  1.00  0.00     0.051 C 
ENDBRANCH  14  15
ENDBRANCH  13  14
ENDBRANCH   1  12
TORSDOF 6
ENDMDL
MODEL 4
REMARK VINA RESULT:      -7.0      2.787      5.275
REMARK  6 active torsions:
REMARK  status: ('A' for Active; 'I' for Inactive)
REMARK    1  A    between atoms: N1_7  and  C6_8 
REMARK    2  A    between atoms: C6_8  and  C7_9 
REMARK    3  A    between atoms: C7_9  and  C9_11 
REMARK    4  A    between atoms: C9_11  and  C10_12 
REMARK    5  A    between atoms: C11_13  and  O2_14 
REMARK    6  A    between atoms: O2_14  and  C12_15 
ROOT
HETATM    1  C9  UNL     1      24.531   2.713  52.936  1.00  0.00     0.035 C 
ENDROOT
BRANCH   1   2
HETATM    2  C7  UNL     1      23.734   3.407  51.856  1.00  0.00     0.003 C 
HETATM    3  C8  UNL     1      22.290   3.223  52.169  1.00  0.00     0.012 C 
BRANCH   2   4
HETATM    4  C6  UNL     1      24.155   2.970  50.482  1.00  0.00     0.127 C 
BRANCH   4   5
HETATM    5  N1  UNL     1      24.368   4.076  49.588  1.00  0.00    -0.381 N 
HETATM    6  C2  UNL     1      25.725   4.535  49.408  1.00  0.00     0.021 C 
HETATM    7  C1  UNL     1      26.798   3.761  49.467  1.00  0.00     0.040 C 
HETATM    8  C3  UNL     1      25.978   5.996  49.136  1.00  0.00     0.223 C 
HETATM    9  O1  UNL     1      24.850   6.693  49.556  1.00  0.00    -0.384 OA
HETATM   10  C4  UNL     1      23.679   6.336  48.947  1.00  0.00     0.187 C 
HETATM   11  C5  UNL     1      23.434   4.862  48.809  1.00  0.00     0.149 C 
ENDBRANCH   4   5
ENDBRANCH   2   4
ENDBRANCH   1   2
BRANCH   1  12
HETATM   12  C10 UNL     1      24.103   1.295  53.048  1.00  0.00    -0.002 C 
HETATM   13  C11 UNL     1      24.988   0.324  52.902  1.00  0.00     0.138 C 
BRANCH  13  14
HETATM   14  O2  UNL     1      26.273   0.777  52.649  1.00  0.00    -0.323 OA
BRANCH  14  15
HETATM   15  C12 UNL     1      27.411   0.047  52.944  1.00  0.00     0.080 A 
HETATM   16  C13 UNL     1      27.630  -1.311  52.872  1.00  0.00     0.038 A 
HETATM   17  C14 UNL     1      28.866  -1.828  53.221  1.00  0.00     0.003 A 
HETATM   18  C15 UNL     1      29.876  -1.019  53.637  1.00  0.00     0.001 A 
HETATM   19  C16 UNL     1      29.694   0.362  53.724  1.00  0.00     0.009 A 
HETATM   20  C17 UNL     1      28.456   0.864  53.372  1.00  0.00    -0.028 A 
HETATM   21  C18 UNL     1      28.371   2.348  53.500  1.00  0.00     0.051 C 
ENDBRANCH  14  15
ENDBRANCH  13  14
ENDBRANCH   1  12
TORSDOF 6
ENDMDL
MODEL 5
REMARK VINA RESULT:      -7.0      1.905      7.355
REMARK  6 active torsions:
REMARK  status: ('A' for Active; 'I' for Inactive)
REMARK    1  A    between atoms: N1_7  and  C6_8 
REMARK    2  A    between atoms: C6_8  and  C7_9 
REMARK    3  A    between atoms: C7_9  and  C9_11 
REMARK    4  A    between atoms: C9_11  and  C10_12 
REMARK    5  A    between atoms: C11_13  and  O2_14 
REMARK    6  A    between atoms: O2_14  and  C12_15 
ROOT
HETATM    1  C9  UNL     1      23.270   0.208  52.720  1.00  0.00     0.035 C 
ENDROOT
BRANCH   1   2
HETATM    2  C7  UNL     1      24.421   1.163  52.924  1.00  0.00     0.003 C 
HETATM    3  C8  UNL     1      23.861   2.540  52.997  1.00  0.00     0.012 C 
BRANCH   2   4
HETATM    4  C6  UNL     1      25.503   0.961  51.901  1.00  0.00     0.127 C 
BRANCH   4   5
HETATM    5  N1  UNL     1      26.823   1.030  52.469  1.00  0.00    -0.381 N 
HETATM    6  C2  UNL     1      27.334  -0.158  53.110  1.00  0.00     0.021 C 
HETATM    7  C1  UNL     1      27.037  -1.397  52.751  1.00  0.00     0.040 C 
HETATM    8  C3  UNL     1      28.274  -0.015  54.280  1.00  0.00     0.223 C 
HETATM    9  O1  UNL     1      28.109   1.270  54.786  1.00  0.00    -0.384 OA
HETATM   10  C4  UNL     1      28.359   2.284  53.904  1.00  0.00     0.187 C 
HETATM   11  C5  UNL     1      27.775   2.119  52.532  1.00  0.00     0.149 C 
ENDBRANCH   4   5
ENDBRANCH   2   4
ENDBRANCH   1   2
BRANCH   1  12
HETATM   12  C10 UNL     1      23.029  -0.569  53.963  1.00  0.00    -0.002 C 
HETATM   13  C11 UNL     1      21.846  -0.526  54.551  1.00  0.00     0.138 C 
BRANCH  13  14
HETATM   14  O2  UNL     1      20.929   0.282  53.898  1.00  0.00    -0.323 OA
BRANCH  14  15
HETATM   15  C12 UNL     1      19.756  -0.193  53.338  1.00  0.00     0.080 A 
HETATM   16  C13 UNL     1      18.967  -1.256  53.717  1.00  0.00     0.038 A 
HETATM   17  C14 UNL     1      17.820  -1.551  53.000  1.00  0.00     0.003 A 
HETATM   18  C15 UNL     1      17.453  -0.809  51.921  1.00  0.00     0.001 A 
HETATM   19  C16 UNL     1      18.225   0.277  51.506  1.00  0.00     0.009 A 
HETATM   20  C17 UNL     1      19.367   0.560  52.231  1.00  0.00    -0.028 A 
HETATM   21  C18 UNL     1      20.114   1.738  51.704  1.00  0.00     0.051 C 
ENDBRANCH  14  15
ENDBRANCH  13  14
ENDBRANCH   1  12
TORSDOF 6
ENDMDL
MODEL 6
REMARK VINA RESULT:      -6.9      2.108      3.257
REMARK  6 active torsions:
REMARK  status: ('A' for Active; 'I' for Inactive)
REMARK    1  A    between atoms: N1_7  and  C6_8 
REMARK    2  A    between atoms: C6_8  and  C7_9 
REMARK    3  A    between atoms: C7_9  and  C9_11 
REMARK    4  A    between atoms: C9_11  and  C10_12 
REMARK    5  A    between atoms: C11_13  and  O2_14 
REMARK    6  A    between atoms: O2_14  and  C12_15 
ROOT
HETATM    1  C9  UNL     1      23.233  -0.398  53.672  1.00  0.00     0.035 C 
ENDROOT
BRANCH   1   2
HETATM    2  C7  UNL     1      21.725  -0.332  53.643  1.00  0.00     0.003 C 
HETATM    3  C8  UNL     1      21.204  -1.596  54.234  1.00  0.00     0.012 C 
BRANCH   2   4
HETATM    4  C6  UNL     1      21.206  -0.002  52.272  1.00  0.00     0.127 C 
BRANCH   4   5
HETATM    5  N1  UNL     1      20.237   1.062  52.286  1.00  0.00    -0.381 N 
HETATM    6  C2  UNL     1      18.884   0.733  51.907  1.00  0.00     0.021 C 
HETATM    7  C1  UNL     1      18.304  -0.438  52.117  1.00  0.00     0.040 C 
HETATM    8  C3  UNL     1      18.040   1.775  51.217  1.00  0.00     0.223 C 
HETATM    9  O1  UNL     1      18.909   2.722  50.686  1.00  0.00    -0.384 OA
HETATM   10  C4  UNL     1      19.716   3.350  51.593  1.00  0.00     0.187 C 
HETATM   11  C5  UNL     1      20.371   2.466  52.612  1.00  0.00     0.149 C 
ENDBRANCH   4   5
ENDBRANCH   2   4
ENDBRANCH   1   2
BRANCH   1  12
HETATM   12  C10 UNL     1      23.806   0.831  53.064  1.00  0.00    -0.002 C 
HETATM   13  C11 UNL     1      25.116   0.971  52.968  1.00  0.00     0.138 C 
BRANCH  13  14
HETATM   14  O2  UNL     1      25.830  -0.103  53.474  1.00  0.00    -0.323 OA
BRANCH  14  15
HETATM   15  C12 UNL     1      27.205  -0.102  53.624  1.00  0.00     0.080 A 
HETATM   16  C13 UNL     1      28.028   0.841  54.201  1.00  0.00     0.038 A 
HETATM   17  C14 UNL     1      29.395   0.628  54.241  1.00  0.00     0.003 A 
HETATM   18  C15 UNL     1      29.948  -0.500  53.720  1.00  0.00     0.001 A 
HETATM   19  C16 UNL     1      29.149  -1.479  53.128  1.00  0.00     0.009 A 
HETATM   20  C17 UNL     1      27.786  -1.253  53.095  1.00  0.00    -0.028 A 
HETATM   21  C18 UNL     1      27.029  -2.361  52.444  1.00  0.00     0.051 C 
ENDBRANCH  14  15
ENDBRANCH  13  14
ENDBRANCH   1  12
TORSDOF 6
ENDMDL
MODEL 7
REMARK VINA RESULT:      -6.9      1.915      3.244
REMARK  6 active torsions:
REMARK  status: ('A' for Active; 'I' for Inactive)
REMARK    1  A    between atoms: N1_7  and  C6_8 
REMARK    2  A    between atoms: C6_8  and  C7_9 
REMARK    3  A    between atoms: C7_9  and  C9_11 
REMARK    4  A    between atoms: C9_11  and  C10_12 
REMARK    5  A    between atoms: C11_13  and  O2_14 
REMARK    6  A    between atoms: O2_14  and  C12_15 
ROOT
HETATM    1  C9  UNL     1      23.699   0.976  52.209  1.00  0.00     0.035 C 
ENDROOT
BRANCH   1   2
HETATM    2  C7  UNL     1      22.457   0.481  52.911  1.00  0.00     0.003 C 
HETATM    3  C8  UNL     1      22.767  -0.855  53.493  1.00  0.00     0.012 C 
BRANCH   2   4
HETATM    4  C6  UNL     1      21.252   0.528  52.015  1.00  0.00     0.127 C 
BRANCH   4   5
HETATM    5  N1  UNL     1      20.937   1.861  51.577  1.00  0.00    -0.381 N 
HETATM    6  C2  UNL     1      21.040   2.139  50.165  1.00  0.00     0.021 C 
HETATM    7  C1  UNL     1      20.810   1.259  49.203  1.00  0.00     0.040 C 
HETATM    8  C3  UNL     1      21.440   3.522  49.714  1.00  0.00     0.223 C 
HETATM    9  O1  UNL     1      22.065   4.140  50.792  1.00  0.00    -0.384 OA
HETATM   10  C4  UNL     1      21.305   4.257  51.922  1.00  0.00     0.187 C 
HETATM   11  C5  UNL     1      20.531   3.035  52.321  1.00  0.00     0.149 C 
ENDBRANCH   4   5
ENDBRANCH   2   4
ENDBRANCH   1   2
BRANCH   1  12
HETATM   12  C10 UNL     1      24.366   2.015  53.034  1.00  0.00    -0.002 C 
HETATM   13  C11 UNL     1      25.651   1.903  53.326  1.00  0.00     0.138 C 
BRANCH  13  14
HETATM   14  O2  UNL     1      26.245   0.769  52.797  1.00  0.00    -0.323 OA
BRANCH  14  15
HETATM   15  C12 UNL     1      27.534   0.370  53.102  1.00  0.00     0.080 A 
HETATM   16  C13 UNL     1      28.616   1.120  53.509  1.00  0.00     0.038 A 
HETATM   17  C14 UNL     1      29.826   0.499  53.763  1.00  0.00     0.003 A 
HETATM   18  C15 UNL     1      29.973  -0.844  53.619  1.00  0.00     0.001 A 
HETATM   19  C16 UNL     1      28.902  -1.639  53.210  1.00  0.00     0.009 A 
HETATM   20  C17 UNL     1      27.699  -1.007  52.959  1.00  0.00    -0.028 A 
HETATM   21  C18 UNL     1      26.624  -1.948  52.531  1.00  0.00     0.051 C 
ENDBRANCH  14  15
ENDBRANCH  13  14
ENDBRANCH   1  12
TORSDOF 6
ENDMDL
MODEL 8
REMARK VINA RESULT:      -6.9      1.569      2.299
REMARK  6 active torsions:
REMARK  status: ('A' for Active; 'I' for Inactive)
REMARK    1  A    between atoms: N1_7  and  C6_8 
REMARK    2  A    between atoms: C6_8  and  C7_9 
REMARK    3  A    between atoms: C7_9  and  C9_11 
REMARK    4  A    between atoms: C9_11  and  C10_12 
REMARK    5  A    between atoms: C11_13  and  O2_14 
REMARK    6  A    between atoms: O2_14  and  C12_15 
ROOT
HETATM    1  C9  UNL     1      23.836   1.011  51.970  1.00  0.00     0.035 C 
ENDROOT
BRANCH   1   2
HETATM    2  C7  UNL     1      22.597   1.595  51.336  1.00  0.00     0.003 C 
HETATM    3  C8  UNL     1      23.026   2.403  50.160  1.00  0.00     0.012 C 
BRANCH   2   4
HETATM    4  C6  UNL     1      21.745   2.321  52.339  1.00  0.00     0.127 C 
BRANCH   4   5
HETATM    5  N1  UNL     1      20.418   1.774  52.439  1.00  0.00    -0.381 N 
HETATM    6  C2  UNL     1      20.245   0.595  53.253  1.00  0.00     0.021 C 
HETATM    7  C1  UNL     1      20.956   0.311  54.333  1.00  0.00     0.040 C 
HETATM    8  C3  UNL     1      19.187  -0.411  52.874  1.00  0.00     0.223 C 
HETATM    9  O1  UNL     1      18.881  -0.200  51.534  1.00  0.00    -0.384 OA
HETATM   10  C4  UNL     1      18.418   1.049  51.228  1.00  0.00     0.187 C 
HETATM   11  C5  UNL     1      19.169   2.195  51.840  1.00  0.00     0.149 C 
ENDBRANCH   4   5
ENDBRANCH   2   4
ENDBRANCH   1   2
BRANCH   1  12
HETATM   12  C10 UNL     1      24.285   1.872  53.093  1.00  0.00    -0.002 C 
HETATM   13  C11 UNL     1      25.570   1.950  53.395  1.00  0.00     0.138 C 
BRANCH  13  14
HETATM   14  O2  UNL     1      26.380   1.174  52.581  1.00  0.00    -0.323 OA
BRANCH  14  15
HETATM   15  C12 UNL     1      27.600   0.662  52.985  1.00  0.00     0.080 A 
HETATM   16  C13 UNL     1      28.724   1.316  53.439  1.00  0.00     0.038 A 
HETATM   17  C14 UNL     1      29.847   0.588  53.794  1.00  0.00     0.003 A 
HETATM   18  C15 UNL     1      29.865  -0.768  53.703  1.00  0.00     0.001 A 
HETATM   19  C16 UNL     1      28.747  -1.468  53.249  1.00  0.00     0.009 A 
HETATM   20  C17 UNL     1      27.633  -0.729  52.898  1.00  0.00    -0.028 A 
HETATM   21  C18 UNL     1      26.498  -1.575  52.429  1.00  0.00     0.051 C 
ENDBRANCH  14  15
ENDBRANCH  13  14
ENDBRANCH   1  12
TORSDOF 6
ENDMDL
MODEL 9
REMARK VINA RESULT:      -6.9      1.926      6.107
REMARK  6 active torsions:
REMARK  status: ('A' for Active; 'I' for Inactive)
REMARK    1  A    between atoms: N1_7  and  C6_8 
REMARK    2  A    between atoms: C6_8  and  C7_9 
REMARK    3  A    between atoms: C7_9  and  C9_11 
REMARK    4  A    between atoms: C9_11  and  C10_12 
REMARK    5  A    between atoms: C11_13  and  O2_14 
REMARK    6  A    between atoms: O2_14  and  C12_15 
ROOT
HETATM    1  C9  UNL     1      24.372   3.400  51.354  1.00  0.00     0.035 C 
ENDROOT
BRANCH   1   2
HETATM    2  C7  UNL     1      25.800   3.027  51.673  1.00  0.00     0.003 C 
HETATM    3  C8  UNL     1      26.424   2.512  50.423  1.00  0.00     0.012 C 
BRANCH   2   4
HETATM    4  C6  UNL     1      25.886   2.110  52.861  1.00  0.00     0.127 C 
BRANCH   4   5
HETATM    5  N1  UNL     1      27.229   1.663  53.120  1.00  0.00    -0.381 N 
HETATM    6  C2  UNL     1      27.461   0.239  53.151  1.00  0.00     0.021 C 
HETATM    7  C1  UNL     1      26.797  -0.651  52.430  1.00  0.00     0.040 C 
HETATM    8  C3  UNL     1      28.528  -0.313  54.063  1.00  0.00     0.223 C 
HETATM    9  O1  UNL     1      28.779   0.653  55.032  1.00  0.00    -0.384 OA
HETATM   10  C4  UNL     1      29.200   1.864  54.558  1.00  0.00     0.187 C 
HETATM   11  C5  UNL     1      28.445   2.405  53.380  1.00  0.00     0.149 C 
ENDBRANCH   4   5
ENDBRANCH   2   4
ENDBRANCH   1   2
BRANCH   1  12
HETATM   12  C10 UNL     1      23.822   2.472  50.332  1.00  0.00    -0.002 C 
HETATM   13  C11 UNL     1      22.796   1.694  50.630  1.00  0.00     0.138 C 
BRANCH  13  14
HETATM   14  O2  UNL     1      22.338   1.849  51.928  1.00  0.00    -0.323 OA
BRANCH  14  15
HETATM   15  C12 UNL     1      22.162   0.794  52.805  1.00  0.00     0.080 A 
HETATM   16  C13 UNL     1      23.098   0.046  53.485  1.00  0.00     0.038 A 
HETATM   17  C14 UNL     1      22.686  -0.976  54.323  1.00  0.00     0.003 A 
HETATM   18  C15 UNL     1      21.367  -1.260  54.492  1.00  0.00     0.001 A 
HETATM   19  C16 UNL     1      20.388  -0.526  53.822  1.00  0.00     0.009 A 
HETATM   20  C17 UNL     1      20.813   0.491  52.989  1.00  0.00    -0.028 A 
HETATM   21  C18 UNL     1      19.687   1.210  52.327  1.00  0.00     0.051 C 
ENDBRANCH  14  15
ENDBRANCH  13  14
ENDBRANCH   1  12
TORSDOF 6
ENDMDL
