MODEL 1
REMARK VINA RESULT:      -9.2      0.000      0.000
REMARK  2 active torsions:
REMARK  status: ('A' for Active; 'I' for Inactive)
REMARK    1  A    between atoms: C2_2  and  C3_3 
REMARK    2  A    between atoms: C10_11  and  O1_12 
ROOT
HETATM    1  C3  UNL     1      20.742  -0.606  53.045  1.00  0.00    -0.003 C 
HETATM    2  C4  UNL     1      20.307   0.046  51.930  1.00  0.00     0.080 C 
HETATM    3  C5  UNL     1      21.326   0.521  50.975  1.00  0.00     0.020 C 
HETATM    4  C6  UNL     1      20.949   1.168  49.864  1.00  0.00     0.057 C 
HETATM    5  N1  UNL     1      21.452   1.809  48.667  1.00  0.00    -0.390 N 
HETATM    6  C7  UNL     1      21.917   3.088  49.044  1.00  0.00     0.144 C 
HETATM    7  C8  UNL     1      22.213   3.998  47.979  1.00  0.00     0.004 C 
HETATM    8  C9  UNL     1      22.499   5.050  47.187  1.00  0.00     0.031 C 
HETATM    9  C10 UNL     1      22.561   6.208  48.272  1.00  0.00     0.283 C 
HETATM   10  O2  UNL     1      23.063   5.743  49.353  1.00  0.00    -0.354 OA
HETATM   11  C12 UNL     1      23.633   5.365  50.368  1.00  0.00     0.200 C 
HETATM   12  C13 UNL     1      24.989   4.682  50.257  1.00  0.00     0.028 C 
HETATM   13  C14 UNL     1      25.389   3.403  50.584  1.00  0.00     0.056 C 
HETATM   14  C15 UNL     1      26.743   2.805  50.473  1.00  0.00     0.228 C 
HETATM   15  O3  UNL     1      27.201   2.379  51.755  1.00  0.00    -0.369 OA
HETATM   16  C16 UNL     1      26.470   1.392  52.468  1.00  0.00     0.093 A 
HETATM   17  C17 UNL     1      26.782   0.209  51.876  1.00  0.00     0.014 A 
HETATM   18  C18 UNL     1      25.996  -0.658  52.668  1.00  0.00     0.024 A 
HETATM   19  C19 UNL     1      25.379   0.161  53.565  1.00  0.00     0.021 A 
HETATM   20  C20 UNL     1      25.463   1.513  53.713  1.00  0.00     0.082 A 
HETATM   21  C21 UNL     1      26.156   2.548  53.061  1.00  0.00     0.046 A 
HETATM   22  N2  UNL     1      24.502  -0.730  54.336  1.00  0.00    -0.312 N 
HETATM   23  C22 UNL     1      23.279  -0.473  53.686  1.00  0.00     0.324 C 
HETATM   24  O4  UNL     1      23.411   0.360  52.815  1.00  0.00    -0.247 OA
HETATM   25  N3  UNL     1      21.942  -0.974  53.843  1.00  0.00    -0.316 N 
HETATM   26  N4  UNL     1      24.128   2.740  50.907  1.00  0.00    -0.265 NA
HETATM   27  C23 UNL     1      23.129   2.937  50.000  1.00  0.00     0.119 C 
HETATM   28  H7  UNL     1      21.417   1.317  47.741  1.00  0.00     0.159 HD
HETATM   29  H24 UNL     1      24.905  -1.308  55.102  1.00  0.00     0.170 HD
HETATM   30  H25 UNL     1      21.869  -1.670  54.600  1.00  0.00     0.170 HD
ENDROOT
BRANCH   1  31
HETATM   31  C2  UNL     1      19.490  -0.976  53.817  1.00  0.00     0.017 C 
HETATM   32  C1  UNL     1      18.397  -0.926  52.905  1.00  0.00     0.042 C 
ENDBRANCH   1  31
BRANCH   9  33
HETATM   33  O1  UNL     1      21.273   6.655  48.444  1.00  0.00    -0.363 OA
HETATM   34  C11 UNL     1      21.009   7.744  49.209  1.00  0.00     0.205 C 
ENDBRANCH   9  33
TORSDOF 2
ENDMDL
MODEL 2
REMARK VINA RESULT:      -8.9      2.351      7.589
REMARK  2 active torsions:
REMARK  status: ('A' for Active; 'I' for Inactive)
REMARK    1  A    between atoms: C2_2  and  C3_3 
REMARK    2  A    between atoms: C10_11  and  O1_12 
ROOT
HETATM    1  C3  UNL     1      24.241   7.023  49.941  1.00  0.00    -0.003 C 
HETATM    2  C4  UNL     1      25.324   6.213  50.112  1.00  0.00     0.080 C 
HETATM    3  C5  UNL     1      25.112   4.757  50.005  1.00  0.00     0.020 C 
HETATM    4  C6  UNL     1      26.145   3.919  50.166  1.00  0.00     0.057 C 
HETATM    5  N1  UNL     1      26.513   2.518  50.173  1.00  0.00    -0.390 N 
HETATM    6  C7  UNL     1      26.113   1.989  51.419  1.00  0.00     0.144 C 
HETATM    7  C8  UNL     1      26.614   0.689  51.750  1.00  0.00     0.004 C 
HETATM    8  C9  UNL     1      26.989  -0.471  52.323  1.00  0.00     0.031 C 
HETATM    9  C10 UNL     1      26.495  -0.220  53.812  1.00  0.00     0.283 C 
HETATM   10  O2  UNL     1      25.407   0.450  53.784  1.00  0.00    -0.354 OA
HETATM   11  C12 UNL     1      24.313   0.999  53.798  1.00  0.00     0.200 C 
HETATM   12  C13 UNL     1      23.176   0.427  52.963  1.00  0.00     0.028 C 
HETATM   13  C14 UNL     1      22.475   0.960  51.900  1.00  0.00     0.056 C 
HETATM   14  C15 UNL     1      21.352   0.354  51.141  1.00  0.00     0.228 C 
HETATM   15  O3  UNL     1      20.190   1.176  51.239  1.00  0.00    -0.369 OA
HETATM   16  C16 UNL     1      20.229   2.507  50.748  1.00  0.00     0.093 A 
HETATM   17  C17 UNL     1      20.137   2.401  49.397  1.00  0.00     0.014 A 
HETATM   18  C18 UNL     1      20.194   3.770  49.054  1.00  0.00     0.024 A 
HETATM   19  C19 UNL     1      20.306   4.419  50.247  1.00  0.00     0.021 A 
HETATM   20  C20 UNL     1      20.357   3.915  51.512  1.00  0.00     0.082 A 
HETATM   21  C21 UNL     1      20.320   2.628  52.077  1.00  0.00     0.046 A 
HETATM   22  N2  UNL     1      20.446   5.835  49.885  1.00  0.00    -0.312 N 
HETATM   23  C22 UNL     1      21.843   5.969  50.001  1.00  0.00     0.324 C 
HETATM   24  O4  UNL     1      22.355   4.932  50.365  1.00  0.00    -0.247 OA
HETATM   25  N3  UNL     1      22.762   7.054  49.791  1.00  0.00    -0.316 N 
HETATM   26  N4  UNL     1      23.214   2.185  51.605  1.00  0.00    -0.265 NA
HETATM   27  C23 UNL     1      24.567   2.034  51.529  1.00  0.00     0.119 C 
HETATM   28  H7  UNL     1      26.993   2.087  49.346  1.00  0.00     0.159 HD
HETATM   29  H24 UNL     1      19.598   6.386  49.637  1.00  0.00     0.170 HD
HETATM   30  H25 UNL     1      22.287   7.919  49.494  1.00  0.00     0.170 HD
ENDROOT
BRANCH   1  31
HETATM   31  C2  UNL     1      24.762   8.439  50.096  1.00  0.00     0.017 C 
HETATM   32  C1  UNL     1      26.183   8.368  50.147  1.00  0.00     0.042 C 
ENDBRANCH   1  31
BRANCH   9  33
HETATM   33  O1  UNL     1      27.507   0.454  54.452  1.00  0.00    -0.363 OA
HETATM   34  C11 UNL     1      28.717  -0.127  54.649  1.00  0.00     0.205 C 
ENDBRANCH   9  33
TORSDOF 2
ENDMDL
MODEL 3
REMARK VINA RESULT:      -8.6      2.928      8.267
REMARK  2 active torsions:
REMARK  status: ('A' for Active; 'I' for Inactive)
REMARK    1  A    between atoms: C2_2  and  C3_3 
REMARK    2  A    between atoms: C10_11  and  O1_12 
ROOT
HETATM    1  C3  UNL     1      26.505   7.720  48.168  1.00  0.00    -0.003 C 
HETATM    2  C4  UNL     1      27.202   6.609  48.538  1.00  0.00     0.080 C 
HETATM    3  C5  UNL     1      26.436   5.371  48.779  1.00  0.00     0.020 C 
HETATM    4  C6  UNL     1      27.076   4.252  49.146  1.00  0.00     0.057 C 
HETATM    5  N1  UNL     1      26.874   2.860  49.490  1.00  0.00    -0.390 N 
HETATM    6  C7  UNL     1      26.410   2.824  50.823  1.00  0.00     0.144 C 
HETATM    7  C8  UNL     1      26.397   1.541  51.459  1.00  0.00     0.004 C 
HETATM    8  C9  UNL     1      26.344   0.487  52.296  1.00  0.00     0.031 C 
HETATM    9  C10 UNL     1      26.116   1.238  53.677  1.00  0.00     0.283 C 
HETATM   10  O2  UNL     1      25.371   2.259  53.480  1.00  0.00    -0.354 OA
HETATM   11  C12 UNL     1      24.579   3.183  53.353  1.00  0.00     0.200 C 
HETATM   12  C13 UNL     1      23.243   2.936  52.667  1.00  0.00     0.028 C 
HETATM   13  C14 UNL     1      22.713   3.452  51.502  1.00  0.00     0.056 C 
HETATM   14  C15 UNL     1      21.382   3.185  50.899  1.00  0.00     0.228 C 
HETATM   15  O3  UNL     1      20.640   4.399  50.787  1.00  0.00    -0.369 OA
HETATM   16  C16 UNL     1      21.148   5.461  49.993  1.00  0.00     0.093 A 
HETATM   17  C17 UNL     1      20.905   5.101  48.706  1.00  0.00     0.014 A 
HETATM   18  C18 UNL     1      21.456   6.222  48.046  1.00  0.00     0.024 A 
HETATM   19  C19 UNL     1      21.912   7.022  49.050  1.00  0.00     0.021 A 
HETATM   20  C20 UNL     1      21.873   6.835  50.400  1.00  0.00     0.082 A 
HETATM   21  C21 UNL     1      21.392   5.828  51.255  1.00  0.00     0.046 A 
HETATM   22  N2  UNL     1      22.556   8.148  48.362  1.00  0.00    -0.312 N 
HETATM   23  C22 UNL     1      23.901   7.741  48.456  1.00  0.00     0.324 C 
HETATM   24  O4  UNL     1      24.003   6.696  49.062  1.00  0.00    -0.247 OA
HETATM   25  N3  UNL     1      25.145   8.299  48.001  1.00  0.00    -0.316 N 
HETATM   26  N4  UNL     1      23.839   4.186  50.929  1.00  0.00    -0.265 NA
HETATM   27  C23 UNL     1      25.017   3.499  50.905  1.00  0.00     0.119 C 
HETATM   28  H7  UNL     1      27.078   2.101  48.794  1.00  0.00     0.159 HD
HETATM   29  H24 UNL     1      21.968   8.919  47.982  1.00  0.00     0.170 HD
HETATM   30  H25 UNL     1      25.017   9.191  47.502  1.00  0.00     0.170 HD
ENDROOT
BRANCH   1  31
HETATM   31  C2  UNL     1      27.543   8.811  47.985  1.00  0.00     0.017 C 
HETATM   32  C1  UNL     1      28.671   8.223  47.346  1.00  0.00     0.042 C 
ENDBRANCH   1  31
BRANCH   9  33
HETATM   33  O1  UNL     1      27.360   1.581  54.147  1.00  0.00    -0.363 OA
HETATM   34  C11 UNL     1      28.274   0.629  54.462  1.00  0.00     0.205 C 
ENDBRANCH   9  33
TORSDOF 2
ENDMDL
MODEL 4
REMARK VINA RESULT:      -8.2      2.524      5.740
REMARK  2 active torsions:
REMARK  status: ('A' for Active; 'I' for Inactive)
REMARK    1  A    between atoms: C2_2  and  C3_3 
REMARK    2  A    between atoms: C10_11  and  O1_12 
ROOT
HETATM    1  C3  UNL     1      25.942   4.818  49.784  1.00  0.00    -0.003 C 
HETATM    2  C4  UNL     1      24.631   5.189  49.731  1.00  0.00     0.080 C 
HETATM    3  C5  UNL     1      23.732   4.671  50.780  1.00  0.00     0.020 C 
HETATM    4  C6  UNL     1      22.435   5.006  50.771  1.00  0.00     0.057 C 
HETATM    5  N1  UNL     1      21.183   4.822  51.477  1.00  0.00    -0.390 N 
HETATM    6  C7  UNL     1      20.681   3.555  51.109  1.00  0.00     0.144 C 
HETATM    7  C8  UNL     1      19.326   3.275  51.480  1.00  0.00     0.004 C 
HETATM    8  C9  UNL     1      18.081   2.790  51.649  1.00  0.00     0.031 C 
HETATM    9  C10 UNL     1      18.134   1.536  50.675  1.00  0.00     0.283 C 
HETATM   10  O2  UNL     1      19.304   1.023  50.718  1.00  0.00    -0.354 OA
HETATM   11  C12 UNL     1      20.377   0.441  50.809  1.00  0.00     0.200 C 
HETATM   12  C13 UNL     1      20.908   0.056  52.183  1.00  0.00     0.028 C 
HETATM   13  C14 UNL     1      22.041   0.456  52.862  1.00  0.00     0.056 C 
HETATM   14  C15 UNL     1      22.515   0.019  54.199  1.00  0.00     0.228 C 
HETATM   15  O3  UNL     1      23.805  -0.582  54.093  1.00  0.00    -0.369 OA
HETATM   16  C16 UNL     1      24.895   0.181  53.597  1.00  0.00     0.093 A 
HETATM   17  C17 UNL     1      25.269   0.991  54.622  1.00  0.00     0.014 A 
HETATM   18  C18 UNL     1      26.333   1.678  53.996  1.00  0.00     0.024 A 
HETATM   19  C19 UNL     1      26.388   1.154  52.739  1.00  0.00     0.021 A 
HETATM   20  C20 UNL     1      25.620   0.186  52.163  1.00  0.00     0.082 A 
HETATM   21  C21 UNL     1      24.539  -0.610  52.580  1.00  0.00     0.046 A 
HETATM   22  N2  UNL     1      27.440   1.924  52.063  1.00  0.00    -0.312 N 
HETATM   23  C22 UNL     1      26.639   2.833  51.345  1.00  0.00     0.324 C 
HETATM   24  O4  UNL     1      25.460   2.618  51.527  1.00  0.00    -0.247 OA
HETATM   25  N3  UNL     1      26.923   3.927  50.458  1.00  0.00    -0.316 N 
HETATM   26  N4  UNL     1      22.564   1.529  52.019  1.00  0.00    -0.265 NA
HETATM   27  C23 UNL     1      21.638   2.449  51.624  1.00  0.00     0.119 C 
HETATM   28  H7  UNL     1      20.813   5.569  52.114  1.00  0.00     0.159 HD
HETATM   29  H24 UNL     1      28.439   1.685  52.234  1.00  0.00     0.170 HD
HETATM   30  H25 UNL     1      27.935   4.069  50.320  1.00  0.00     0.170 HD
ENDROOT
BRANCH   1  31
HETATM   31  C2  UNL     1      26.607   5.500  48.604  1.00  0.00     0.017 C 
HETATM   32  C1  UNL     1      27.958   5.054  48.561  1.00  0.00     0.042 C 
ENDBRANCH   1  31
BRANCH   9  33
HETATM   33  O1  UNL     1      17.812   1.998  49.422  1.00  0.00    -0.363 OA
HETATM   34  C11 UNL     1      16.544   2.374  49.121  1.00  0.00     0.205 C 
ENDBRANCH   9  33
TORSDOF 2
ENDMDL
MODEL 5
REMARK VINA RESULT:      -8.2      1.821      5.065
REMARK  2 active torsions:
REMARK  status: ('A' for Active; 'I' for Inactive)
REMARK    1  A    between atoms: C2_2  and  C3_3 
REMARK    2  A    between atoms: C10_11  and  O1_12 
ROOT
HETATM    1  C3  UNL     1      25.846   0.839  53.690  1.00  0.00    -0.003 C 
HETATM    2  C4  UNL     1      25.904   2.181  53.461  1.00  0.00     0.080 C 
HETATM    3  C5  UNL     1      24.627   2.918  53.390  1.00  0.00     0.020 C 
HETATM    4  C6  UNL     1      24.632   4.239  53.166  1.00  0.00     0.057 C 
HETATM    5  N1  UNL     1      23.770   5.393  53.008  1.00  0.00    -0.390 N 
HETATM    6  C7  UNL     1      23.252   5.348  51.696  1.00  0.00     0.144 C 
HETATM    7  C8  UNL     1      22.587   6.528  51.232  1.00  0.00     0.004 C 
HETATM    8  C9  UNL     1      21.981   7.512  50.540  1.00  0.00     0.031 C 
HETATM    9  C10 UNL     1      22.040   6.900  49.075  1.00  0.00     0.283 C 
HETATM   10  O2  UNL     1      21.885   5.633  49.144  1.00  0.00    -0.354 OA
HETATM   11  C12 UNL     1      21.637   4.435  49.158  1.00  0.00     0.200 C 
HETATM   12  C13 UNL     1      20.396   3.933  49.882  1.00  0.00     0.028 C 
HETATM   13  C14 UNL     1      20.258   3.102  50.975  1.00  0.00     0.056 C 
HETATM   14  C15 UNL     1      19.006   2.630  51.620  1.00  0.00     0.228 C 
HETATM   15  O3  UNL     1      18.939   1.205  51.580  1.00  0.00    -0.369 OA
HETATM   16  C16 UNL     1      19.944   0.437  52.225  1.00  0.00     0.093 A 
HETATM   17  C17 UNL     1      19.651   0.493  53.550  1.00  0.00     0.014 A 
HETATM   18  C18 UNL     1      20.713  -0.292  54.053  1.00  0.00     0.024 A 
HETATM   19  C19 UNL     1      21.422  -0.659  52.949  1.00  0.00     0.021 A 
HETATM   20  C20 UNL     1      21.204  -0.367  51.635  1.00  0.00     0.082 A 
HETATM   21  C21 UNL     1      20.243   0.373  50.923  1.00  0.00     0.046 A 
HETATM   22  N2  UNL     1      22.569  -1.406  53.478  1.00  0.00    -0.312 N 
HETATM   23  C22 UNL     1      23.550  -0.397  53.426  1.00  0.00     0.324 C 
HETATM   24  O4  UNL     1      23.101   0.628  52.961  1.00  0.00    -0.247 OA
HETATM   25  N3  UNL     1      24.938  -0.335  53.793  1.00  0.00    -0.316 N 
HETATM   26  N4  UNL     1      21.634   2.941  51.437  1.00  0.00    -0.265 NA
HETATM   27  C23 UNL     1      22.344   4.101  51.540  1.00  0.00     0.119 C 
HETATM   28  H7  UNL     1      23.639   6.074  53.795  1.00  0.00     0.159 HD
HETATM   29  H24 UNL     1      22.446  -2.401  53.761  1.00  0.00     0.170 HD
HETATM   30  H25 UNL     1      25.284  -1.228  54.173  1.00  0.00     0.170 HD
ENDROOT
BRANCH   1  31
HETATM   31  C2  UNL     1      27.286   0.367  53.720  1.00  0.00     0.017 C 
HETATM   32  C1  UNL     1      27.381  -0.768  52.865  1.00  0.00     0.042 C 
ENDBRANCH   1  31
BRANCH   9  33
HETATM   33  O1  UNL     1      23.262   7.250  48.552  1.00  0.00    -0.363 OA
HETATM   34  C11 UNL     1      23.519   7.113  47.227  1.00  0.00     0.205 C 
ENDBRANCH   9  33
TORSDOF 2
ENDMDL
MODEL 6
REMARK VINA RESULT:      -8.1      8.581     11.624
REMARK  2 active torsions:
REMARK  status: ('A' for Active; 'I' for Inactive)
REMARK    1  A    between atoms: C2_2  and  C3_3 
REMARK    2  A    between atoms: C10_11  and  O1_12 
ROOT
HETATM    1  C3  UNL     1      27.760   6.079  48.767  1.00  0.00    -0.003 C 
HETATM    2  C4  UNL     1      28.679   5.189  48.297  1.00  0.00     0.080 C 
HETATM    3  C5  UNL     1      30.037   5.693  48.016  1.00  0.00     0.020 C 
HETATM    4  C6  UNL     1      30.976   4.856  47.552  1.00  0.00     0.057 C 
HETATM    5  N1  UNL     1      32.360   4.783  47.132  1.00  0.00    -0.390 N 
HETATM    6  C7  UNL     1      32.426   5.306  45.823  1.00  0.00     0.144 C 
HETATM    7  C8  UNL     1      33.649   5.089  45.110  1.00  0.00     0.004 C 
HETATM    8  C9  UNL     1      34.647   4.970  44.213  1.00  0.00     0.031 C 
HETATM    9  C10 UNL     1      33.893   5.430  42.893  1.00  0.00     0.283 C 
HETATM   10  O2  UNL     1      33.063   6.358  43.187  1.00  0.00    -0.354 OA
HETATM   11  C12 UNL     1      32.335   7.317  43.408  1.00  0.00     0.200 C 
HETATM   12  C13 UNL     1      32.893   8.530  44.138  1.00  0.00     0.028 C 
HETATM   13  C14 UNL     1      32.561   9.087  45.356  1.00  0.00     0.056 C 
HETATM   14  C15 UNL     1      33.133  10.295  46.003  1.00  0.00     0.228 C 
HETATM   15  O3  UNL     1      32.111  11.266  46.224  1.00  0.00    -0.369 OA
HETATM   16  C16 UNL     1      31.007  10.946  47.058  1.00  0.00     0.093 A 
HETATM   17  C17 UNL     1      31.475  11.032  48.330  1.00  0.00     0.014 A 
HETATM   18  C18 UNL     1      30.296  10.690  49.031  1.00  0.00     0.024 A 
HETATM   19  C19 UNL     1      29.369  10.470  48.058  1.00  0.00     0.021 A 
HETATM   20  C20 UNL     1      29.492  10.548  46.703  1.00  0.00     0.082 A 
HETATM   21  C21 UNL     1      30.533  10.857  45.810  1.00  0.00     0.046 A 
HETATM   22  N2  UNL     1      28.168  10.036  48.783  1.00  0.00    -0.312 N 
HETATM   23  C22 UNL     1      28.276   8.643  48.602  1.00  0.00     0.324 C 
HETATM   24  O4  UNL     1      29.244   8.362  47.929  1.00  0.00    -0.247 OA
HETATM   25  N3  UNL     1      27.492   7.518  49.032  1.00  0.00    -0.316 N 
HETATM   26  N4  UNL     1      31.635   8.107  45.920  1.00  0.00    -0.265 NA
HETATM   27  C23 UNL     1      32.058   6.813  45.847  1.00  0.00     0.119 C 
HETATM   28  H7  UNL     1      33.092   4.385  47.770  1.00  0.00     0.159 HD
HETATM   29  H24 UNL     1      27.559  10.748  49.237  1.00  0.00     0.170 HD
HETATM   30  H25 UNL     1      26.673   7.800  49.591  1.00  0.00     0.170 HD
ENDROOT
BRANCH   1  31
HETATM   31  C2  UNL     1      26.486   5.283  48.968  1.00  0.00     0.017 C 
HETATM   32  C1  UNL     1      26.863   3.955  49.316  1.00  0.00     0.042 C 
ENDBRANCH   1  31
BRANCH   9  33
HETATM   33  O1  UNL     1      33.270   4.314  42.387  1.00  0.00    -0.363 OA
HETATM   34  C11 UNL     1      32.858   4.270  41.096  1.00  0.00     0.205 C 
ENDBRANCH   9  33
TORSDOF 2
ENDMDL
MODEL 7
REMARK VINA RESULT:      -8.0      2.372      5.465
REMARK  2 active torsions:
REMARK  status: ('A' for Active; 'I' for Inactive)
REMARK    1  A    between atoms: C2_2  and  C3_3 
REMARK    2  A    between atoms: C10_11  and  O1_12 
ROOT
HETATM    1  C3  UNL     1      23.625   0.532  53.018  1.00  0.00    -0.003 C 
HETATM    2  C4  UNL     1      24.285   1.723  53.066  1.00  0.00     0.080 C 
HETATM    3  C5  UNL     1      23.517   2.944  52.756  1.00  0.00     0.020 C 
HETATM    4  C6  UNL     1      24.121   4.139  52.789  1.00  0.00     0.057 C 
HETATM    5  N1  UNL     1      23.900   5.558  52.596  1.00  0.00    -0.390 N 
HETATM    6  C7  UNL     1      23.897   5.792  51.203  1.00  0.00     0.144 C 
HETATM    7  C8  UNL     1      23.960   7.161  50.787  1.00  0.00     0.004 C 
HETATM    8  C9  UNL     1      24.074   8.336  50.139  1.00  0.00     0.031 C 
HETATM    9  C10 UNL     1      24.390   7.816  48.671  1.00  0.00     0.283 C 
HETATM   10  O2  UNL     1      23.732   6.740  48.458  1.00  0.00    -0.354 OA
HETATM   11  C12 UNL     1      23.042   5.769  48.179  1.00  0.00     0.200 C 
HETATM   12  C13 UNL     1      21.537   5.830  48.397  1.00  0.00     0.028 C 
HETATM   13  C14 UNL     1      20.711   5.101  49.229  1.00  0.00     0.056 C 
HETATM   14  C15 UNL     1      19.237   5.196  49.375  1.00  0.00     0.228 C 
HETATM   15  O3  UNL     1      18.628   3.945  49.057  1.00  0.00    -0.369 OA
HETATM   16  C16 UNL     1      18.955   2.792  49.819  1.00  0.00     0.093 A 
HETATM   17  C17 UNL     1      18.269   2.919  50.985  1.00  0.00     0.014 A 
HETATM   18  C18 UNL     1      18.687   1.733  51.628  1.00  0.00     0.024 A 
HETATM   19  C19 UNL     1      19.527   1.136  50.736  1.00  0.00     0.021 A 
HETATM   20  C20 UNL     1      19.912   1.543  49.494  1.00  0.00     0.082 A 
HETATM   21  C21 UNL     1      19.636   2.653  48.676  1.00  0.00     0.046 A 
HETATM   22  N2  UNL     1      20.023  -0.056  51.437  1.00  0.00    -0.312 N 
HETATM   23  C22 UNL     1      21.275   0.428  51.863  1.00  0.00     0.324 C 
HETATM   24  O4  UNL     1      21.460   1.564  51.481  1.00  0.00    -0.247 OA
HETATM   25  N3  UNL     1      22.352  -0.134  52.630  1.00  0.00    -0.316 N 
HETATM   26  N4  UNL     1      21.657   4.339  50.041  1.00  0.00    -0.265 NA
HETATM   27  C23 UNL     1      22.685   5.071  50.559  1.00  0.00     0.119 C 
HETATM   28  H7  UNL     1      23.786   6.198  53.418  1.00  0.00     0.159 HD
HETATM   29  H24 UNL     1      19.426  -0.908  51.483  1.00  0.00     0.170 HD
HETATM   30  H25 UNL     1      22.161  -1.102  52.926  1.00  0.00     0.170 HD
ENDROOT
BRANCH   1  31
HETATM   31  C2  UNL     1      24.652  -0.520  53.387  1.00  0.00     0.017 C 
HETATM   32  C1  UNL     1      25.849  -0.214  52.679  1.00  0.00     0.042 C 
ENDBRANCH   1  31
BRANCH   9  33
HETATM   33  O1  UNL     1      25.748   7.619  48.608  1.00  0.00    -0.363 OA
HETATM   34  C11 UNL     1      26.426   7.799  47.447  1.00  0.00     0.205 C 
ENDBRANCH   9  33
TORSDOF 2
ENDMDL
MODEL 8
REMARK VINA RESULT:      -7.9      4.136      6.739
REMARK  2 active torsions:
REMARK  status: ('A' for Active; 'I' for Inactive)
REMARK    1  A    between atoms: C2_2  and  C3_3 
REMARK    2  A    between atoms: C10_11  and  O1_12 
ROOT
HETATM    1  C3  UNL     1      20.951  -0.870  53.481  1.00  0.00    -0.003 C 
HETATM    2  C4  UNL     1      19.599  -0.999  53.589  1.00  0.00     0.080 C 
HETATM    3  C5  UNL     1      18.774  -0.499  52.472  1.00  0.00     0.020 C 
HETATM    4  C6  UNL     1      17.439  -0.602  52.531  1.00  0.00     0.057 C 
HETATM    5  N1  UNL     1      16.220  -0.315  51.804  1.00  0.00    -0.390 N 
HETATM    6  C7  UNL     1      15.947   1.060  51.975  1.00  0.00     0.144 C 
HETATM    7  C8  UNL     1      14.651   1.508  51.564  1.00  0.00     0.004 C 
HETATM    8  C9  UNL     1      13.501   2.168  51.323  1.00  0.00     0.031 C 
HETATM    9  C10 UNL     1      13.791   3.526  52.095  1.00  0.00     0.283 C 
HETATM   10  O2  UNL     1      15.029   3.820  51.975  1.00  0.00    -0.354 OA
HETATM   11  C12 UNL     1      16.182   4.189  51.797  1.00  0.00     0.200 C 
HETATM   12  C13 UNL     1      16.736   4.267  50.382  1.00  0.00     0.028 C 
HETATM   13  C14 UNL     1      17.768   3.583  49.773  1.00  0.00     0.056 C 
HETATM   14  C15 UNL     1      18.275   3.727  48.385  1.00  0.00     0.228 C 
HETATM   15  O3  UNL     1      19.650   4.107  48.399  1.00  0.00    -0.369 OA
HETATM   16  C16 UNL     1      20.608   3.252  49.006  1.00  0.00     0.093 A 
HETATM   17  C17 UNL     1      20.814   2.247  48.117  1.00  0.00     0.014 A 
HETATM   18  C18 UNL     1      21.762   1.490  48.841  1.00  0.00     0.024 A 
HETATM   19  C19 UNL     1      21.936   2.179  50.004  1.00  0.00     0.021 A 
HETATM   20  C20 UNL     1      21.357   3.339  50.425  1.00  0.00     0.082 A 
HETATM   21  C21 UNL     1      20.416   4.237  49.891  1.00  0.00     0.046 A 
HETATM   22  N2  UNL     1      22.859   1.351  50.790  1.00  0.00    -0.312 N 
HETATM   23  C22 UNL     1      21.935   0.710  51.637  1.00  0.00     0.324 C 
HETATM   24  O4  UNL     1      20.805   1.093  51.424  1.00  0.00    -0.247 OA
HETATM   25  N3  UNL     1      22.052  -0.271  52.680  1.00  0.00    -0.316 N 
HETATM   26  N4  UNL     1      18.122   2.575  50.769  1.00  0.00    -0.265 NA
HETATM   27  C23 UNL     1      17.064   1.897  51.299  1.00  0.00     0.119 C 
HETATM   28  H7  UNL     1      15.713  -1.075  51.288  1.00  0.00     0.159 HD
HETATM   29  H24 UNL     1      23.880   1.388  50.586  1.00  0.00     0.170 HD
HETATM   30  H25 UNL     1      23.028  -0.561  52.839  1.00  0.00     0.170 HD
ENDROOT
BRANCH   1  31
HETATM   31  C2  UNL     1      21.521  -1.471  54.751  1.00  0.00     0.017 C 
HETATM   32  C1  UNL     1      22.870  -1.029  54.864  1.00  0.00     0.042 C 
ENDBRANCH   1  31
BRANCH   9  33
HETATM   33  O1  UNL     1      13.427   3.319  53.403  1.00  0.00    -0.363 OA
HETATM   34  C11 UNL     1      12.781   4.281  54.109  1.00  0.00     0.205 C 
ENDBRANCH   9  33
TORSDOF 2
ENDMDL
MODEL 9
REMARK VINA RESULT:      -7.8     10.115     13.022
REMARK  2 active torsions:
REMARK  status: ('A' for Active; 'I' for Inactive)
REMARK    1  A    between atoms: C2_2  and  C3_3 
REMARK    2  A    between atoms: C10_11  and  O1_12 
ROOT
HETATM    1  C3  UNL     1      34.970   7.468  42.985  1.00  0.00    -0.003 C 
HETATM    2  C4  UNL     1      34.647   8.696  43.480  1.00  0.00     0.080 C 
HETATM    3  C5  UNL     1      34.351   8.795  44.922  1.00  0.00     0.020 C 
HETATM    4  C6  UNL     1      34.027   9.981  45.456  1.00  0.00     0.057 C 
HETATM    5  N1  UNL     1      33.667  10.635  46.697  1.00  0.00    -0.390 N 
HETATM    6  C7  UNL     1      32.305  10.351  46.937  1.00  0.00     0.144 C 
HETATM    7  C8  UNL     1      31.667  11.113  47.969  1.00  0.00     0.004 C 
HETATM    8  C9  UNL     1      30.827  11.721  48.827  1.00  0.00     0.031 C 
HETATM    9  C10 UNL     1      29.434  11.180  48.287  1.00  0.00     0.283 C 
HETATM   10  O2  UNL     1      29.581   9.975  47.886  1.00  0.00    -0.354 OA
HETATM   11  C12 UNL     1      29.656   8.790  47.589  1.00  0.00     0.200 C 
HETATM   12  C13 UNL     1      30.247   7.802  48.585  1.00  0.00     0.028 C 
HETATM   13  C14 UNL     1      31.374   7.009  48.515  1.00  0.00     0.056 C 
HETATM   14  C15 UNL     1      31.883   6.042  49.521  1.00  0.00     0.228 C 
HETATM   15  O3  UNL     1      31.946   4.733  48.958  1.00  0.00    -0.369 OA
HETATM   16  C16 UNL     1      32.775   4.493  47.830  1.00  0.00     0.093 A 
HETATM   17  C17 UNL     1      34.042   4.431  48.317  1.00  0.00     0.014 A 
HETATM   18  C18 UNL     1      34.740   4.199  47.110  1.00  0.00     0.024 A 
HETATM   19  C19 UNL     1      33.771   4.168  46.153  1.00  0.00     0.021 A 
HETATM   20  C20 UNL     1      32.422   4.318  46.273  1.00  0.00     0.082 A 
HETATM   21  C21 UNL     1      31.534   4.551  47.337  1.00  0.00     0.046 A 
HETATM   22  N2  UNL     1      34.504   4.008  44.891  1.00  0.00    -0.312 N 
HETATM   23  C22 UNL     1      34.503   5.345  44.449  1.00  0.00     0.324 C 
HETATM   24  O4  UNL     1      33.904   6.062  45.221  1.00  0.00    -0.247 OA
HETATM   25  N3  UNL     1      35.043   6.016  43.298  1.00  0.00    -0.316 N 
HETATM   26  N4  UNL     1      32.024   7.475  47.293  1.00  0.00    -0.265 NA
HETATM   27  C23 UNL     1      32.129   8.830  47.180  1.00  0.00     0.119 C 
HETATM   28  H7  UNL     1      34.374  11.199  47.229  1.00  0.00     0.159 HD
HETATM   29  H24 UNL     1      34.845   3.064  44.613  1.00  0.00     0.170 HD
HETATM   30  H25 UNL     1      35.534   5.370  42.662  1.00  0.00     0.170 HD
ENDROOT
BRANCH   1  31
HETATM   31  C2  UNL     1      35.226   7.678  41.505  1.00  0.00     0.017 C 
HETATM   32  C1  UNL     1      36.165   6.691  41.091  1.00  0.00     0.042 C 
ENDBRANCH   1  31
BRANCH   9  33
HETATM   33  O1  UNL     1      29.052  12.025  47.273  1.00  0.00    -0.363 OA
HETATM   34  C11 UNL     1      28.595  13.274  47.540  1.00  0.00     0.205 C 
ENDBRANCH   9  33
TORSDOF 2
ENDMDL
