MODEL 1
REMARK VINA RESULT:      -9.2      0.000      0.000
REMARK  3 active torsions:
REMARK  status: ('A' for Active; 'I' for Inactive)
REMARK    1  A    between atoms: C4_6  and  N3_7 
REMARK    2  A    between atoms: N3_7  and  C5_8 
REMARK    3  A    between atoms: C5_8  and  C6_9 
ROOT
HETATM    1  N1  UNL     1      28.533   0.211  54.596  1.00  0.00    -0.170 NA
HETATM    2  C1  UNL     1      27.422  -0.128  54.503  1.00  0.00     0.208 C 
HETATM    3  N2  UNL     1      26.091  -0.535  54.393  1.00  0.00    -0.148 NA
HETATM    4  C2  UNL     1      25.304   0.135  53.595  1.00  0.00     0.183 C 
HETATM    5  C3  UNL     1      25.466   1.306  52.703  1.00  0.00     0.106 C 
HETATM    6  C4  UNL     1      24.916   2.165  51.825  1.00  0.00     0.101 C 
HETATM    7  N4  UNL     1      23.607   2.275  51.284  1.00  0.00    -0.373 N 
HETATM    8  C12 UNL     1      22.661   1.223  50.955  1.00  0.00     0.148 C 
HETATM    9  C13 UNL     1      22.121   0.568  52.172  1.00  0.00    -0.004 C 
HETATM   10  C14 UNL     1      22.059   0.483  53.475  1.00  0.00     0.041 C 
HETATM   11  C15 UNL     1      21.523  -0.171  54.646  1.00  0.00     0.129 C 
HETATM   12  F1  UNL     1      20.485   0.606  54.985  1.00  0.00    -0.205 F 
HETATM   13  C16 UNL     1      22.271  -1.235  54.876  1.00  0.00     0.040 C 
HETATM   14  C17 UNL     1      23.584  -1.077  54.878  1.00  0.00     0.160 C 
HETATM   15  O1  UNL     1      24.098  -0.533  53.738  1.00  0.00    -0.303 OA
HETATM   16  H10 UNL     1      23.300   3.277  51.115  1.00  0.00     0.161 HD
ENDROOT
BRANCH   6  17
HETATM   17  N3  UNL     1      25.859   3.155  51.343  1.00  0.00    -0.372 N 
HETATM   18  H2  UNL     1      26.186   3.972  51.925  1.00  0.00     0.161 HD
BRANCH  17  19
HETATM   19  C5  UNL     1      26.395   3.053  50.016  1.00  0.00     0.159 C 
BRANCH  19  20
HETATM   20  C6  UNL     1      26.547   4.392  49.364  1.00  0.00    -0.041 A 
HETATM   21  C7  UNL     1      27.772   4.732  48.785  1.00  0.00     0.009 A 
HETATM   22  C8  UNL     1      28.017   5.927  48.166  1.00  0.00     0.001 A 
HETATM   23  C9  UNL     1      26.987   6.870  48.104  1.00  0.00     0.000 A 
HETATM   24  C10 UNL     1      25.764   6.558  48.668  1.00  0.00     0.001 A 
HETATM   25  C11 UNL     1      25.537   5.346  49.289  1.00  0.00     0.009 A 
ENDBRANCH  19  20
ENDBRANCH  17  19
ENDBRANCH   6  17
TORSDOF 3
ENDMDL
MODEL 2
REMARK VINA RESULT:      -8.6      2.814      5.469
REMARK  3 active torsions:
REMARK  status: ('A' for Active; 'I' for Inactive)
REMARK    1  A    between atoms: C4_6  and  N3_7 
REMARK    2  A    between atoms: N3_7  and  C5_8 
REMARK    3  A    between atoms: C5_8  and  C6_9 
ROOT
HETATM    1  N1  UNL     1      23.014  -1.613  55.663  1.00  0.00    -0.170 NA
HETATM    2  C1  UNL     1      22.587  -0.995  54.773  1.00  0.00     0.208 C 
HETATM    3  N2  UNL     1      22.072  -0.253  53.707  1.00  0.00    -0.148 NA
HETATM    4  C2  UNL     1      22.813   0.697  53.201  1.00  0.00     0.183 C 
HETATM    5  C3  UNL     1      24.163   1.236  53.483  1.00  0.00     0.106 C 
HETATM    6  C4  UNL     1      25.133   2.118  53.180  1.00  0.00     0.101 C 
HETATM    7  N4  UNL     1      25.230   3.132  52.189  1.00  0.00    -0.373 N 
HETATM    8  C12 UNL     1      24.698   3.145  50.837  1.00  0.00     0.148 C 
HETATM    9  C13 UNL     1      23.219   3.256  50.830  1.00  0.00    -0.004 C 
HETATM   10  C14 UNL     1      22.092   3.378  51.482  1.00  0.00     0.041 C 
HETATM   11  C15 UNL     1      20.652   3.483  51.450  1.00  0.00     0.129 C 
HETATM   12  F1  UNL     1      20.437   4.805  51.509  1.00  0.00    -0.205 F 
HETATM   13  C16 UNL     1      20.173   2.254  51.379  1.00  0.00     0.040 C 
HETATM   14  C17 UNL     1      20.648   1.356  52.225  1.00  0.00     0.160 C 
HETATM   15  O1  UNL     1      22.003   1.201  52.197  1.00  0.00    -0.303 OA
HETATM   16  H10 UNL     1      25.764   3.991  52.511  1.00  0.00     0.161 HD
ENDROOT
BRANCH   6  17
HETATM   17  N3  UNL     1      26.297   1.987  54.033  1.00  0.00    -0.372 N 
HETATM   18  H2  UNL     1      26.235   1.879  55.081  1.00  0.00     0.161 HD
BRANCH  17  19
HETATM   19  C5  UNL     1      27.614   2.001  53.463  1.00  0.00     0.159 C 
BRANCH  19  20
HETATM   20  C6  UNL     1      28.220   0.634  53.408  1.00  0.00    -0.041 A 
HETATM   21  C7  UNL     1      27.444  -0.438  52.960  1.00  0.00     0.009 A 
HETATM   22  C8  UNL     1      27.900  -1.725  52.873  1.00  0.00     0.001 A 
HETATM   23  C9  UNL     1      29.218  -1.993  53.250  1.00  0.00     0.000 A 
HETATM   24  C10 UNL     1      30.009  -0.949  53.695  1.00  0.00     0.001 A 
HETATM   25  C11 UNL     1      29.530   0.343  53.777  1.00  0.00     0.009 A 
ENDBRANCH  19  20
ENDBRANCH  17  19
ENDBRANCH   6  17
TORSDOF 3
ENDMDL
MODEL 3
REMARK VINA RESULT:      -8.6      2.862      6.252
REMARK  3 active torsions:
REMARK  status: ('A' for Active; 'I' for Inactive)
REMARK    1  A    between atoms: C4_6  and  N3_7 
REMARK    2  A    between atoms: N3_7  and  C5_8 
REMARK    3  A    between atoms: C5_8  and  C6_9 
ROOT
HETATM    1  N1  UNL     1      21.967  -0.317  54.235  1.00  0.00    -0.170 NA
HETATM    2  C1  UNL     1      22.117   0.153  53.179  1.00  0.00     0.208 C 
HETATM    3  N2  UNL     1      22.294   0.716  51.914  1.00  0.00    -0.148 NA
HETATM    4  C2  UNL     1      23.377   1.413  51.695  1.00  0.00     0.183 C 
HETATM    5  C3  UNL     1      24.561   1.792  52.499  1.00  0.00     0.106 C 
HETATM    6  C4  UNL     1      25.742   2.433  52.572  1.00  0.00     0.101 C 
HETATM    7  N4  UNL     1      26.485   3.183  51.621  1.00  0.00    -0.373 N 
HETATM    8  C12 UNL     1      26.601   2.984  50.186  1.00  0.00     0.148 C 
HETATM    9  C13 UNL     1      25.337   3.312  49.482  1.00  0.00    -0.004 C 
HETATM   10  C14 UNL     1      24.102   3.738  49.519  1.00  0.00     0.041 C 
HETATM   11  C15 UNL     1      22.880   4.049  48.813  1.00  0.00     0.129 C 
HETATM   12  F1  UNL     1      22.973   5.369  48.602  1.00  0.00    -0.205 F 
HETATM   13  C16 UNL     1      22.208   2.920  48.681  1.00  0.00     0.040 C 
HETATM   14  C17 UNL     1      22.055   2.164  49.755  1.00  0.00     0.160 C 
HETATM   15  O1  UNL     1      23.215   1.805  50.375  1.00  0.00    -0.303 OA
HETATM   16  H10 UNL     1      27.012   4.001  52.044  1.00  0.00     0.161 HD
ENDROOT
BRANCH   6  17
HETATM   17  N3  UNL     1      26.365   2.315  53.875  1.00  0.00    -0.372 N 
HETATM   18  H2  UNL     1      26.860   3.115  54.352  1.00  0.00     0.161 HD
BRANCH  17  19
HETATM   19  C5  UNL     1      26.328   1.067  54.582  1.00  0.00     0.159 C 
BRANCH  19  20
HETATM   20  C6  UNL     1      27.381   0.116  54.105  1.00  0.00    -0.041 A 
HETATM   21  C7  UNL     1      27.008  -0.972  53.312  1.00  0.00     0.009 A 
HETATM   22  C8  UNL     1      27.889  -1.899  52.826  1.00  0.00     0.001 A 
HETATM   23  C9  UNL     1      29.244  -1.757  53.134  1.00  0.00     0.000 A 
HETATM   24  C10 UNL     1      29.641  -0.688  53.916  1.00  0.00     0.001 A 
HETATM   25  C11 UNL     1      28.737   0.237  54.398  1.00  0.00     0.009 A 
ENDBRANCH  19  20
ENDBRANCH  17  19
ENDBRANCH   6  17
TORSDOF 3
ENDMDL
MODEL 4
REMARK VINA RESULT:      -8.5      2.840      5.676
REMARK  3 active torsions:
REMARK  status: ('A' for Active; 'I' for Inactive)
REMARK    1  A    between atoms: C4_6  and  N3_7 
REMARK    2  A    between atoms: N3_7  and  C5_8 
REMARK    3  A    between atoms: C5_8  and  C6_9 
ROOT
HETATM    1  N1  UNL     1      25.593   3.403  50.778  1.00  0.00    -0.170 NA
HETATM    2  C1  UNL     1      24.487   3.197  51.080  1.00  0.00     0.208 C 
HETATM    3  N2  UNL     1      23.161   2.950  51.439  1.00  0.00    -0.148 NA
HETATM    4  C2  UNL     1      22.908   1.913  52.194  1.00  0.00     0.183 C 
HETATM    5  C3  UNL     1      23.724   0.847  52.818  1.00  0.00     0.106 C 
HETATM    6  C4  UNL     1      23.776  -0.259  53.583  1.00  0.00     0.101 C 
HETATM    7  N4  UNL     1      22.773  -1.003  54.261  1.00  0.00    -0.373 N 
HETATM    8  C12 UNL     1      21.560  -0.529  54.905  1.00  0.00     0.148 C 
HETATM    9  C13 UNL     1      20.562  -0.054  53.916  1.00  0.00    -0.004 C 
HETATM   10  C14 UNL     1      20.208   0.139  52.673  1.00  0.00     0.041 C 
HETATM   11  C15 UNL     1      19.222   0.610  51.728  1.00  0.00     0.129 C 
HETATM   12  F1  UNL     1      18.563  -0.507  51.387  1.00  0.00    -0.205 F 
HETATM   13  C16 UNL     1      19.390   1.914  51.606  1.00  0.00     0.040 C 
HETATM   14  C17 UNL     1      20.618   2.362  51.401  1.00  0.00     0.160 C 
HETATM   15  O1  UNL     1      21.531   1.982  52.340  1.00  0.00    -0.303 OA
HETATM   16  H10 UNL     1      22.958  -2.048  54.277  1.00  0.00     0.161 HD
ENDROOT
BRANCH   6  17
HETATM   17  N3  UNL     1      25.123  -0.769  53.740  1.00  0.00    -0.372 N 
HETATM   18  H2  UNL     1      25.526  -1.057  54.672  1.00  0.00     0.161 HD
BRANCH  17  19
HETATM   19  C5  UNL     1      25.983  -0.900  52.599  1.00  0.00     0.159 C 
BRANCH  19  20
HETATM   20  C6  UNL     1      27.431  -0.844  52.972  1.00  0.00    -0.041 A 
HETATM   21  C7  UNL     1      28.001   0.388  53.304  1.00  0.00     0.009 A 
HETATM   22  C8  UNL     1      29.313   0.550  53.658  1.00  0.00     0.001 A 
HETATM   23  C9  UNL     1      30.139  -0.576  53.692  1.00  0.00     0.000 A 
HETATM   24  C10 UNL     1      29.599  -1.807  53.369  1.00  0.00     0.001 A 
HETATM   25  C11 UNL     1      28.273  -1.951  53.014  1.00  0.00     0.009 A 
ENDBRANCH  19  20
ENDBRANCH  17  19
ENDBRANCH   6  17
TORSDOF 3
ENDMDL
MODEL 5
REMARK VINA RESULT:      -8.3      1.867      3.656
REMARK  3 active torsions:
REMARK  status: ('A' for Active; 'I' for Inactive)
REMARK    1  A    between atoms: C4_6  and  N3_7 
REMARK    2  A    between atoms: N3_7  and  C5_8 
REMARK    3  A    between atoms: C5_8  and  C6_9 
ROOT
HETATM    1  N1  UNL     1      22.353   5.799  50.238  1.00  0.00    -0.170 NA
HETATM    2  C1  UNL     1      22.236   4.886  50.953  1.00  0.00     0.208 C 
HETATM    3  N2  UNL     1      22.094   3.792  51.810  1.00  0.00    -0.148 NA
HETATM    4  C2  UNL     1      23.150   3.068  52.067  1.00  0.00     0.183 C 
HETATM    5  C3  UNL     1      24.572   3.105  51.656  1.00  0.00     0.106 C 
HETATM    6  C4  UNL     1      25.803   2.567  51.732  1.00  0.00     0.101 C 
HETATM    7  N4  UNL     1      26.319   1.453  52.447  1.00  0.00    -0.373 N 
HETATM    8  C12 UNL     1      25.942   0.952  53.758  1.00  0.00     0.148 C 
HETATM    9  C13 UNL     1      24.592   0.339  53.745  1.00  0.00    -0.004 C 
HETATM   10  C14 UNL     1      23.518  -0.012  53.087  1.00  0.00     0.041 C 
HETATM   11  C15 UNL     1      22.203  -0.611  53.099  1.00  0.00     0.129 C 
HETATM   12  F1  UNL     1      22.437  -1.876  52.722  1.00  0.00    -0.205 F 
HETATM   13  C16 UNL     1      21.351   0.327  53.468  1.00  0.00     0.040 C 
HETATM   14  C17 UNL     1      21.423   1.500  52.863  1.00  0.00     0.160 C 
HETATM   15  O1  UNL     1      22.645   2.102  52.923  1.00  0.00    -0.303 OA
HETATM   16  H10 UNL     1      27.078   0.928  51.924  1.00  0.00     0.161 HD
ENDROOT
BRANCH   6  17
HETATM   17  N3  UNL     1      26.777   3.281  50.931  1.00  0.00    -0.372 N 
HETATM   18  H2  UNL     1      27.612   3.777  51.344  1.00  0.00     0.161 HD
BRANCH  17  19
HETATM   19  C5  UNL     1      26.634   3.339  49.504  1.00  0.00     0.159 C 
BRANCH  19  20
HETATM   20  C6  UNL     1      26.849   4.721  48.971  1.00  0.00    -0.041 A 
HETATM   21  C7  UNL     1      28.120   5.087  48.521  1.00  0.00     0.009 A 
HETATM   22  C8  UNL     1      28.424   6.322  48.016  1.00  0.00     0.001 A 
HETATM   23  C9  UNL     1      27.410   7.281  47.944  1.00  0.00     0.000 A 
HETATM   24  C10 UNL     1      26.143   6.944  48.382  1.00  0.00     0.001 A 
HETATM   25  C11 UNL     1      25.856   5.693  48.888  1.00  0.00     0.009 A 
ENDBRANCH  19  20
ENDBRANCH  17  19
ENDBRANCH   6  17
TORSDOF 3
ENDMDL
MODEL 6
REMARK VINA RESULT:      -8.3      3.316      5.073
REMARK  3 active torsions:
REMARK  status: ('A' for Active; 'I' for Inactive)
REMARK    1  A    between atoms: C4_6  and  N3_7 
REMARK    2  A    between atoms: N3_7  and  C5_8 
REMARK    3  A    between atoms: C5_8  and  C6_9 
ROOT
HETATM    1  N1  UNL     1      23.036  -1.642  55.708  1.00  0.00    -0.170 NA
HETATM    2  C1  UNL     1      22.331  -1.356  54.825  1.00  0.00     0.208 C 
HETATM    3  N2  UNL     1      21.484  -1.013  53.769  1.00  0.00    -0.148 NA
HETATM    4  C2  UNL     1      21.867  -0.070  52.951  1.00  0.00     0.183 C 
HETATM    5  C3  UNL     1      23.060   0.800  52.839  1.00  0.00     0.106 C 
HETATM    6  C4  UNL     1      23.712   1.776  52.180  1.00  0.00     0.101 C 
HETATM    7  N4  UNL     1      23.390   2.526  51.017  1.00  0.00    -0.373 N 
HETATM    8  C12 UNL     1      22.668   2.108  49.828  1.00  0.00     0.148 C 
HETATM    9  C13 UNL     1      21.227   1.891  50.107  1.00  0.00    -0.004 C 
HETATM   10  C14 UNL     1      20.223   1.913  50.944  1.00  0.00     0.041 C 
HETATM   11  C15 UNL     1      18.818   1.693  51.194  1.00  0.00     0.129 C 
HETATM   12  F1  UNL     1      18.283   2.913  51.045  1.00  0.00    -0.205 F 
HETATM   13  C16 UNL     1      18.665   0.408  51.456  1.00  0.00     0.040 C 
HETATM   14  C17 UNL     1      19.481  -0.143  52.339  1.00  0.00     0.160 C 
HETATM   15  O1  UNL     1      20.808  -0.003  52.060  1.00  0.00    -0.303 OA
HETATM   16  H10 UNL     1      23.728   3.531  51.054  1.00  0.00     0.161 HD
ENDROOT
BRANCH   6  17
HETATM   17  N3  UNL     1      24.989   2.103  52.782  1.00  0.00    -0.372 N 
HETATM   18  H2  UNL     1      25.092   2.414  53.785  1.00  0.00     0.161 HD
BRANCH  17  19
HETATM   19  C5  UNL     1      26.194   2.013  52.008  1.00  0.00     0.159 C 
BRANCH  19  20
HETATM   20  C6  UNL     1      27.200   1.098  52.633  1.00  0.00    -0.041 A 
HETATM   21  C7  UNL     1      27.009  -0.284  52.546  1.00  0.00     0.009 A 
HETATM   22  C8  UNL     1      27.865  -1.207  53.082  1.00  0.00     0.001 A 
HETATM   23  C9  UNL     1      29.000  -0.750  53.758  1.00  0.00     0.000 A 
HETATM   24  C10 UNL     1      29.213   0.612  53.857  1.00  0.00     0.001 A 
HETATM   25  C11 UNL     1      28.337   1.528  53.310  1.00  0.00     0.009 A 
ENDBRANCH  19  20
ENDBRANCH  17  19
ENDBRANCH   6  17
TORSDOF 3
ENDMDL
MODEL 7
REMARK VINA RESULT:      -8.0      3.757      7.249
REMARK  3 active torsions:
REMARK  status: ('A' for Active; 'I' for Inactive)
REMARK    1  A    between atoms: C4_6  and  N3_7 
REMARK    2  A    between atoms: N3_7  and  C5_8 
REMARK    3  A    between atoms: C5_8  and  C6_9 
ROOT
HETATM    1  N1  UNL     1      20.263   3.127  52.711  1.00  0.00    -0.170 NA
HETATM    2  C1  UNL     1      20.847   3.848  52.006  1.00  0.00     0.208 C 
HETATM    3  N2  UNL     1      21.545   4.714  51.162  1.00  0.00    -0.148 NA
HETATM    4  C2  UNL     1      22.831   4.534  51.018  1.00  0.00     0.183 C 
HETATM    5  C3  UNL     1      23.821   3.574  51.556  1.00  0.00     0.106 C 
HETATM    6  C4  UNL     1      25.096   3.146  51.605  1.00  0.00     0.101 C 
HETATM    7  N4  UNL     1      26.282   3.593  50.962  1.00  0.00    -0.373 N 
HETATM    8  C12 UNL     1      26.446   4.156  49.632  1.00  0.00     0.148 C 
HETATM    9  C13 UNL     1      25.859   5.514  49.533  1.00  0.00    -0.004 C 
HETATM   10  C14 UNL     1      25.249   6.524  50.096  1.00  0.00     0.041 C 
HETATM   11  C15 UNL     1      24.682   7.848  49.975  1.00  0.00     0.129 C 
HETATM   12  F1  UNL     1      25.672   8.647  50.397  1.00  0.00    -0.205 F 
HETATM   13  C16 UNL     1      23.454   7.705  49.511  1.00  0.00     0.040 C 
HETATM   14  C17 UNL     1      22.672   6.814  50.097  1.00  0.00     0.160 C 
HETATM   15  O1  UNL     1      23.175   5.547  50.138  1.00  0.00    -0.303 OA
HETATM   16  H10 UNL     1      27.151   3.501  51.563  1.00  0.00     0.161 HD
ENDROOT
BRANCH   6  17
HETATM   17  N3  UNL     1      25.271   2.002  52.477  1.00  0.00    -0.372 N 
HETATM   18  H2  UNL     1      25.026   2.016  53.503  1.00  0.00     0.161 HD
BRANCH  17  19
HETATM   19  C5  UNL     1      25.803   0.774  51.959  1.00  0.00     0.159 C 
BRANCH  19  20
HETATM   20  C6  UNL     1      27.084   0.386  52.627  1.00  0.00    -0.041 A 
HETATM   21  C7  UNL     1      27.428  -0.965  52.709  1.00  0.00     0.009 A 
HETATM   22  C8  UNL     1      28.573  -1.427  53.298  1.00  0.00     0.001 A 
HETATM   23  C9  UNL     1      29.458  -0.499  53.854  1.00  0.00     0.000 A 
HETATM   24  C10 UNL     1      29.142   0.845  53.786  1.00  0.00     0.001 A 
HETATM   25  C11 UNL     1      27.981   1.291  53.188  1.00  0.00     0.009 A 
ENDBRANCH  19  20
ENDBRANCH  17  19
ENDBRANCH   6  17
TORSDOF 3
ENDMDL
MODEL 8
REMARK VINA RESULT:      -7.7      3.444      7.375
REMARK  3 active torsions:
REMARK  status: ('A' for Active; 'I' for Inactive)
REMARK    1  A    between atoms: C4_6  and  N3_7 
REMARK    2  A    between atoms: N3_7  and  C5_8 
REMARK    3  A    between atoms: C5_8  and  C6_9 
ROOT
HETATM    1  N1  UNL     1      21.536  -2.016  54.723  1.00  0.00    -0.170 NA
HETATM    2  C1  UNL     1      22.426  -1.312  54.460  1.00  0.00     0.208 C 
HETATM    3  N2  UNL     1      23.494  -0.470  54.145  1.00  0.00    -0.148 NA
HETATM    4  C2  UNL     1      23.247   0.608  53.449  1.00  0.00     0.183 C 
HETATM    5  C3  UNL     1      22.034   1.220  52.860  1.00  0.00     0.106 C 
HETATM    6  C4  UNL     1      21.482   2.225  52.156  1.00  0.00     0.101 C 
HETATM    7  N4  UNL     1      22.030   3.397  51.568  1.00  0.00    -0.373 N 
HETATM    8  C12 UNL     1      23.124   4.230  52.036  1.00  0.00     0.148 C 
HETATM    9  C13 UNL     1      24.431   3.539  51.917  1.00  0.00    -0.004 C 
HETATM   10  C14 UNL     1      25.127   2.492  51.557  1.00  0.00     0.041 C 
HETATM   11  C15 UNL     1      26.410   1.838  51.454  1.00  0.00     0.129 C 
HETATM   12  F1  UNL     1      26.792   2.103  50.197  1.00  0.00    -0.205 F 
HETATM   13  C16 UNL     1      26.652   1.268  52.621  1.00  0.00     0.040 C 
HETATM   14  C17 UNL     1      25.693   0.534  53.160  1.00  0.00     0.160 C 
HETATM   15  O1  UNL     1      24.504   1.179  53.331  1.00  0.00    -0.303 OA
HETATM   16  H10 UNL     1      21.562   3.673  50.657  1.00  0.00     0.161 HD
ENDROOT
BRANCH   6  17
HETATM   17  N3  UNL     1      20.051   2.071  51.985  1.00  0.00    -0.372 N 
HETATM   18  H2  UNL     1      19.341   2.623  52.536  1.00  0.00     0.161 HD
BRANCH  17  19
HETATM   19  C5  UNL     1      19.537   1.130  51.032  1.00  0.00     0.159 C 
BRANCH  19  20
HETATM   20  C6  UNL     1      18.582   0.159  51.654  1.00  0.00    -0.041 A 
HETATM   21  C7  UNL     1      17.328  -0.032  51.069  1.00  0.00     0.009 A 
HETATM   22  C8  UNL     1      16.382  -0.892  51.557  1.00  0.00     0.001 A 
HETATM   23  C9  UNL     1      16.680  -1.628  52.707  1.00  0.00     0.000 A 
HETATM   24  C10 UNL     1      17.914  -1.458  53.305  1.00  0.00     0.001 A 
HETATM   25  C11 UNL     1      18.855  -0.585  52.798  1.00  0.00     0.009 A 
ENDBRANCH  19  20
ENDBRANCH  17  19
ENDBRANCH   6  17
TORSDOF 3
ENDMDL
MODEL 9
REMARK VINA RESULT:      -7.7      3.354      6.740
REMARK  3 active torsions:
REMARK  status: ('A' for Active; 'I' for Inactive)
REMARK    1  A    between atoms: C4_6  and  N3_7 
REMARK    2  A    between atoms: N3_7  and  C5_8 
REMARK    3  A    between atoms: C5_8  and  C6_9 
ROOT
HETATM    1  N1  UNL     1      20.828  -2.004  54.550  1.00  0.00    -0.170 NA
HETATM    2  C1  UNL     1      21.872  -1.489  54.610  1.00  0.00     0.208 C 
HETATM    3  N2  UNL     1      23.123  -0.874  54.683  1.00  0.00    -0.148 NA
HETATM    4  C2  UNL     1      23.478  -0.078  53.710  1.00  0.00     0.183 C 
HETATM    5  C3  UNL     1      22.850   0.382  52.450  1.00  0.00     0.106 C 
HETATM    6  C4  UNL     1      22.931   1.129  51.333  1.00  0.00     0.101 C 
HETATM    7  N4  UNL     1      23.938   1.996  50.832  1.00  0.00    -0.373 N 
HETATM    8  C12 UNL     1      24.847   2.863  51.562  1.00  0.00     0.148 C 
HETATM    9  C13 UNL     1      25.865   2.086  52.311  1.00  0.00    -0.004 C 
HETATM   10  C14 UNL     1      26.391   0.935  52.638  1.00  0.00     0.041 C 
HETATM   11  C15 UNL     1      27.390   0.199  53.377  1.00  0.00     0.129 C 
HETATM   12  F1  UNL     1      28.361   0.003  52.473  1.00  0.00    -0.205 F 
HETATM   13  C16 UNL     1      26.928   0.038  54.603  1.00  0.00     0.040 C 
HETATM   14  C17 UNL     1      25.691  -0.408  54.743  1.00  0.00     0.160 C 
HETATM   15  O1  UNL     1      24.738   0.335  54.110  1.00  0.00    -0.303 OA
HETATM   16  H10 UNL     1      24.022   1.983  49.774  1.00  0.00     0.161 HD
ENDROOT
BRANCH   6  17
HETATM   17  N3  UNL     1      21.749   1.022  50.501  1.00  0.00    -0.372 N 
HETATM   18  H2  UNL     1      21.694   0.393  49.655  1.00  0.00     0.161 HD
BRANCH  17  19
HETATM   19  C5  UNL     1      20.579   1.794  50.807  1.00  0.00     0.159 C 
BRANCH  19  20
HETATM   20  C6  UNL     1      19.363   0.937  50.967  1.00  0.00    -0.041 A 
HETATM   21  C7  UNL     1      19.220   0.167  52.125  1.00  0.00     0.009 A 
HETATM   22  C8  UNL     1      18.150  -0.650  52.370  1.00  0.00     0.001 A 
HETATM   23  C9  UNL     1      17.135  -0.725  51.412  1.00  0.00     0.000 A 
HETATM   24  C10 UNL     1      17.251   0.028  50.258  1.00  0.00     0.001 A 
HETATM   25  C11 UNL     1      18.339   0.846  50.029  1.00  0.00     0.009 A 
ENDBRANCH  19  20
ENDBRANCH  17  19
ENDBRANCH   6  17
TORSDOF 3
ENDMDL
