MODEL 1
REMARK VINA RESULT:      -7.4      0.000      0.000
REMARK  7 active torsions:
REMARK  status: ('A' for Active; 'I' for Inactive)
REMARK    1  A    between atoms: C1_2  and  C2_3 
REMARK       I    between atoms: C1_2  and  N2_12 
REMARK    2  A    between atoms: C3_4  and  C4_5 
REMARK    3  A    between atoms: C4_5  and  N1_6 
REMARK    4  A    between atoms: N2_12  and  C9_13 
REMARK    5  A    between atoms: C10_14  and  C11_15 
REMARK    6  A    between atoms: C11_15  and  N3_16 
REMARK    7  A    between atoms: N3_16  and  C12_17 
ROOT
HETATM    1  O1  UNL     1      25.759   6.100  48.622  1.00  0.00    -0.258 OA
HETATM    2  C1  UNL     1      26.944   5.695  48.677  1.00  0.00     0.300 C 
HETATM    3  N2  UNL     1      27.301   4.493  49.326  1.00  0.00    -0.327 N 
HETATM    4  H11 UNL     1      28.251   4.115  49.404  1.00  0.00     0.169 HD
ENDROOT
BRANCH   3   5
HETATM    5  C9  UNL     1      26.358   3.651  49.962  1.00  0.00     0.089 C 
HETATM    6  C10 UNL     1      26.215   2.732  50.874  1.00  0.00     0.010 C 
BRANCH   6   7
HETATM    7  C11 UNL     1      25.402   1.785  51.651  1.00  0.00     0.148 C 
BRANCH   7   8
HETATM    8  N3  UNL     1      25.840   1.743  53.050  1.00  0.00    -0.386 N 
HETATM    9  H16 UNL     1      25.366   2.193  53.845  1.00  0.00     0.160 HD
BRANCH   8  10
HETATM   10  C12 UNL     1      27.020   1.007  53.272  1.00  0.00     0.029 A 
HETATM   11  C13 UNL     1      28.190   1.558  53.751  1.00  0.00     0.032 A 
HETATM   12  C14 UNL     1      29.386   0.920  53.992  1.00  0.00     0.046 A 
HETATM   13  C15 UNL     1      29.395  -0.438  53.712  1.00  0.00     0.138 A 
HETATM   14  F1  UNL     1      30.537  -1.165  53.917  1.00  0.00    -0.204 F 
HETATM   15  C16 UNL     1      28.252  -1.077  53.223  1.00  0.00     0.074 A 
HETATM   16 CL1  UNL     1      28.288  -2.789  52.876  1.00  0.00    -0.081 Cl
HETATM   17  C17 UNL     1      27.075  -0.365  53.005  1.00  0.00     0.056 A 
ENDBRANCH   8  10
ENDBRANCH   7   8
ENDBRANCH   6   7
ENDBRANCH   3   5
BRANCH   2  18
HETATM   18  C2  UNL     1      28.045   6.420  48.080  1.00  0.00    -0.004 C 
HETATM   19  C3  UNL     1      28.982   7.012  47.585  1.00  0.00    -0.066 C 
BRANCH  19  20
HETATM   20  C4  UNL     1      30.138   7.720  46.987  1.00  0.00     0.366 C 
BRANCH  20  21
HETATM   21  N1  UNL     1      31.370   7.139  47.532  1.00  0.00     0.103 N 
HETATM   22  C5  UNL     1      31.439   5.731  47.269  1.00  0.00     0.299 C 
HETATM   23  C6  UNL     1      32.567   5.109  48.016  1.00  0.00     0.198 C 
HETATM   24  O2  UNL     1      33.033   5.873  49.095  1.00  0.00    -0.388 OA
HETATM   25  C7  UNL     1      31.919   6.370  49.782  1.00  0.00     0.198 C 
HETATM   26  C8  UNL     1      31.343   7.468  48.949  1.00  0.00     0.299 C 
ENDBRANCH  20  21
ENDBRANCH  19  20
ENDBRANCH   2  18
TORSDOF 7
ENDMDL
MODEL 2
REMARK VINA RESULT:      -7.3      2.931      3.714
REMARK  7 active torsions:
REMARK  status: ('A' for Active; 'I' for Inactive)
REMARK    1  A    between atoms: C1_2  and  C2_3 
REMARK       I    between atoms: C1_2  and  N2_12 
REMARK    2  A    between atoms: C3_4  and  C4_5 
REMARK    3  A    between atoms: C4_5  and  N1_6 
REMARK    4  A    between atoms: N2_12  and  C9_13 
REMARK    5  A    between atoms: C10_14  and  C11_15 
REMARK    6  A    between atoms: C11_15  and  N3_16 
REMARK    7  A    between atoms: N3_16  and  C12_17 
ROOT
HETATM    1  O1  UNL     1      29.488   5.143  48.268  1.00  0.00    -0.258 OA
HETATM    2  C1  UNL     1      28.523   5.943  48.251  1.00  0.00     0.300 C 
HETATM    3  N2  UNL     1      27.237   5.583  48.712  1.00  0.00    -0.327 N 
HETATM    4  H11 UNL     1      26.413   6.192  48.721  1.00  0.00     0.169 HD
ENDROOT
BRANCH   3   5
HETATM    5  C9  UNL     1      26.934   4.300  49.228  1.00  0.00     0.089 C 
HETATM    6  C10 UNL     1      26.445   3.668  50.256  1.00  0.00     0.010 C 
BRANCH   6   7
HETATM    7  C11 UNL     1      26.059   2.440  50.966  1.00  0.00     0.148 C 
BRANCH   7   8
HETATM    8  N3  UNL     1      26.482   2.490  52.369  1.00  0.00    -0.386 N 
HETATM    9  H16 UNL     1      26.212   3.208  53.056  1.00  0.00     0.160 HD
BRANCH   8  10
HETATM   10  C12 UNL     1      27.333   1.439  52.763  1.00  0.00     0.029 A 
HETATM   11  C13 UNL     1      28.545   1.627  53.393  1.00  0.00     0.032 A 
HETATM   12  C14 UNL     1      29.439   0.665  53.806  1.00  0.00     0.046 A 
HETATM   13  C15 UNL     1      29.058  -0.642  53.546  1.00  0.00     0.138 A 
HETATM   14  F1  UNL     1      29.878  -1.674  53.916  1.00  0.00    -0.204 F 
HETATM   15  C16 UNL     1      27.845  -0.923  52.910  1.00  0.00     0.074 A 
HETATM   16 CL1  UNL     1      27.387  -2.579  52.592  1.00  0.00    -0.081 Cl
HETATM   17  C17 UNL     1      26.989   0.105  52.521  1.00  0.00     0.056 A 
ENDBRANCH   8  10
ENDBRANCH   7   8
ENDBRANCH   6   7
ENDBRANCH   3   5
BRANCH   2  18
HETATM   18  C2  UNL     1      28.641   7.300  47.764  1.00  0.00    -0.004 C 
HETATM   19  C3  UNL     1      28.736   8.432  47.337  1.00  0.00    -0.066 C 
BRANCH  19  20
HETATM   20  C4  UNL     1      28.850   9.806  46.794  1.00  0.00     0.366 C 
BRANCH  20  21
HETATM   21  N1  UNL     1      28.410  10.750  47.828  1.00  0.00     0.103 N 
HETATM   22  C5  UNL     1      27.674  11.839  47.255  1.00  0.00     0.299 C 
HETATM   23  C6  UNL     1      27.430  12.903  48.268  1.00  0.00     0.198 C 
HETATM   24  O2  UNL     1      28.284  12.845  49.379  1.00  0.00    -0.388 OA
HETATM   25  C7  UNL     1      29.580  12.596  48.913  1.00  0.00     0.198 C 
HETATM   26  C8  UNL     1      29.632  11.161  48.503  1.00  0.00     0.299 C 
ENDBRANCH  20  21
ENDBRANCH  19  20
ENDBRANCH   2  18
TORSDOF 7
ENDMDL
MODEL 3
REMARK VINA RESULT:      -7.3      1.419      2.036
REMARK  7 active torsions:
REMARK  status: ('A' for Active; 'I' for Inactive)
REMARK    1  A    between atoms: C1_2  and  C2_3 
REMARK       I    between atoms: C1_2  and  N2_12 
REMARK    2  A    between atoms: C3_4  and  C4_5 
REMARK    3  A    between atoms: C4_5  and  N1_6 
REMARK    4  A    between atoms: N2_12  and  C9_13 
REMARK    5  A    between atoms: C10_14  and  C11_15 
REMARK    6  A    between atoms: C11_15  and  N3_16 
REMARK    7  A    between atoms: N3_16  and  C12_17 
ROOT
HETATM    1  O1  UNL     1      24.780   5.117  48.903  1.00  0.00    -0.258 OA
HETATM    2  C1  UNL     1      25.963   4.969  49.294  1.00  0.00     0.300 C 
HETATM    3  N2  UNL     1      26.300   4.120  50.371  1.00  0.00    -0.327 N 
HETATM    4  H11 UNL     1      27.246   3.962  50.734  1.00  0.00     0.169 HD
ENDROOT
BRANCH   3   5
HETATM    5  C9  UNL     1      25.340   3.370  51.091  1.00  0.00     0.089 C 
HETATM    6  C10 UNL     1      24.904   2.165  51.322  1.00  0.00     0.010 C 
BRANCH   6   7
HETATM    7  C11 UNL     1      23.996   1.212  51.978  1.00  0.00     0.148 C 
BRANCH   7   8
HETATM    8  N3  UNL     1      24.490   0.848  53.309  1.00  0.00    -0.386 N 
HETATM    9  H16 UNL     1      23.963   0.924  54.190  1.00  0.00     0.160 HD
BRANCH   8  10
HETATM   10  C12 UNL     1      25.809   0.354  53.330  1.00  0.00     0.029 A 
HETATM   11  C13 UNL     1      26.169  -0.895  52.869  1.00  0.00     0.032 A 
HETATM   12  C14 UNL     1      27.425  -1.459  52.856  1.00  0.00     0.046 A 
HETATM   13  C15 UNL     1      28.433  -0.661  53.373  1.00  0.00     0.138 A 
HETATM   14  F1  UNL     1      29.719  -1.130  53.407  1.00  0.00    -0.204 F 
HETATM   15  C16 UNL     1      28.156   0.619  53.862  1.00  0.00     0.074 A 
HETATM   16 CL1  UNL     1      29.444   1.606  54.510  1.00  0.00    -0.081 Cl
HETATM   17  C17 UNL     1      26.858   1.124  53.841  1.00  0.00     0.056 A 
ENDBRANCH   8  10
ENDBRANCH   7   8
ENDBRANCH   6   7
ENDBRANCH   3   5
BRANCH   2  18
HETATM   18  C2  UNL     1      27.080   5.651  48.677  1.00  0.00    -0.004 C 
HETATM   19  C3  UNL     1      28.030   6.214  48.174  1.00  0.00    -0.066 C 
BRANCH  19  20
HETATM   20  C4  UNL     1      29.202   6.894  47.576  1.00  0.00     0.366 C 
BRANCH  20  21
HETATM   21  N1  UNL     1      30.384   6.582  48.388  1.00  0.00     0.103 N 
HETATM   22  C5  UNL     1      31.387   7.598  48.255  1.00  0.00     0.299 C 
HETATM   23  C6  UNL     1      32.662   7.167  48.893  1.00  0.00     0.198 C 
HETATM   24  O2  UNL     1      32.767   5.784  49.092  1.00  0.00    -0.388 OA
HETATM   25  C7  UNL     1      32.305   5.147  47.934  1.00  0.00     0.198 C 
HETATM   26  C8  UNL     1      30.816   5.270  47.928  1.00  0.00     0.299 C 
ENDBRANCH  20  21
ENDBRANCH  19  20
ENDBRANCH   2  18
TORSDOF 7
ENDMDL
MODEL 4
REMARK VINA RESULT:      -7.1      2.782      3.461
REMARK  7 active torsions:
REMARK  status: ('A' for Active; 'I' for Inactive)
REMARK    1  A    between atoms: C1_2  and  C2_3 
REMARK       I    between atoms: C1_2  and  N2_12 
REMARK    2  A    between atoms: C3_4  and  C4_5 
REMARK    3  A    between atoms: C4_5  and  N1_6 
REMARK    4  A    between atoms: N2_12  and  C9_13 
REMARK    5  A    between atoms: C10_14  and  C11_15 
REMARK    6  A    between atoms: C11_15  and  N3_16 
REMARK    7  A    between atoms: N3_16  and  C12_17 
ROOT
HETATM    1  O1  UNL     1      26.872   6.516  48.276  1.00  0.00    -0.258 OA
HETATM    2  C1  UNL     1      27.729   5.629  48.504  1.00  0.00     0.300 C 
HETATM    3  N2  UNL     1      27.393   4.390  49.094  1.00  0.00    -0.327 N 
HETATM    4  H11 UNL     1      28.049   3.631  49.305  1.00  0.00     0.169 HD
ENDROOT
BRANCH   3   5
HETATM    5  C9  UNL     1      26.072   4.049  49.472  1.00  0.00     0.089 C 
HETATM    6  C10 UNL     1      25.280   3.887  50.492  1.00  0.00     0.010 C 
BRANCH   6   7
HETATM    7  C11 UNL     1      23.975   3.563  51.089  1.00  0.00     0.148 C 
BRANCH   7   8
HETATM    8  N3  UNL     1      23.621   2.162  50.847  1.00  0.00    -0.386 N 
HETATM    9  H16 UNL     1      23.178   1.789  49.995  1.00  0.00     0.160 HD
BRANCH   8  10
HETATM   10  C12 UNL     1      23.934   1.287  51.905  1.00  0.00     0.029 A 
HETATM   11  C13 UNL     1      25.219   0.916  52.241  1.00  0.00     0.032 A 
HETATM   12  C14 UNL     1      25.615   0.067  53.250  1.00  0.00     0.046 A 
HETATM   13  C15 UNL     1      24.585  -0.470  54.005  1.00  0.00     0.138 A 
HETATM   14  F1  UNL     1      24.873  -1.328  55.032  1.00  0.00    -0.204 F 
HETATM   15  C16 UNL     1      23.252  -0.149  53.732  1.00  0.00     0.074 A 
HETATM   16 CL1  UNL     1      21.970  -0.840  54.697  1.00  0.00    -0.081 Cl
HETATM   17  C17 UNL     1      22.927   0.721  52.694  1.00  0.00     0.056 A 
ENDBRANCH   8  10
ENDBRANCH   7   8
ENDBRANCH   6   7
ENDBRANCH   3   5
BRANCH   2  18
HETATM   18  C2  UNL     1      29.129   5.794  48.182  1.00  0.00    -0.004 C 
HETATM   19  C3  UNL     1      30.299   5.948  47.899  1.00  0.00    -0.066 C 
BRANCH  19  20
HETATM   20  C4  UNL     1      31.722   6.150  47.538  1.00  0.00     0.366 C 
BRANCH  20  21
HETATM   21  N1  UNL     1      32.472   4.947  47.918  1.00  0.00     0.103 N 
HETATM   22  C5  UNL     1      33.886   5.165  47.816  1.00  0.00     0.299 C 
HETATM   23  C6  UNL     1      34.630   3.885  47.979  1.00  0.00     0.198 C 
HETATM   24  O2  UNL     1      33.852   2.737  47.770  1.00  0.00    -0.388 OA
HETATM   25  C7  UNL     1      33.060   2.956  46.637  1.00  0.00     0.198 C 
HETATM   26  C8  UNL     1      31.976   3.903  47.034  1.00  0.00     0.299 C 
ENDBRANCH  20  21
ENDBRANCH  19  20
ENDBRANCH   2  18
TORSDOF 7
ENDMDL
MODEL 5
REMARK VINA RESULT:      -7.0      1.720      2.246
REMARK  7 active torsions:
REMARK  status: ('A' for Active; 'I' for Inactive)
REMARK    1  A    between atoms: C1_2  and  C2_3 
REMARK       I    between atoms: C1_2  and  N2_12 
REMARK    2  A    between atoms: C3_4  and  C4_5 
REMARK    3  A    between atoms: C4_5  and  N1_6 
REMARK    4  A    between atoms: N2_12  and  C9_13 
REMARK    5  A    between atoms: C10_14  and  C11_15 
REMARK    6  A    between atoms: C11_15  and  N3_16 
REMARK    7  A    between atoms: N3_16  and  C12_17 
ROOT
HETATM    1  O1  UNL     1      24.923   4.830  49.259  1.00  0.00    -0.258 OA
HETATM    2  C1  UNL     1      26.177   4.827  49.251  1.00  0.00     0.300 C 
HETATM    3  N2  UNL     1      26.932   3.814  49.883  1.00  0.00    -0.327 N 
HETATM    4  H11 UNL     1      27.956   3.761  49.910  1.00  0.00     0.169 HD
ENDROOT
BRANCH   3   5
HETATM    5  C9  UNL     1      26.342   2.727  50.570  1.00  0.00     0.089 C 
HETATM    6  C10 UNL     1      25.595   2.408  51.587  1.00  0.00     0.010 C 
BRANCH   6   7
HETATM    7  C11 UNL     1      24.900   1.427  52.436  1.00  0.00     0.148 C 
BRANCH   7   8
HETATM    8  N3  UNL     1      25.534   1.333  53.755  1.00  0.00    -0.386 N 
HETATM    9  H16 UNL     1      25.127   1.651  54.645  1.00  0.00     0.160 HD
BRANCH   8  10
HETATM   10  C12 UNL     1      26.814   0.746  53.749  1.00  0.00     0.029 A 
HETATM   11  C13 UNL     1      27.967   1.413  54.105  1.00  0.00     0.032 A 
HETATM   12  C14 UNL     1      29.254   0.923  54.123  1.00  0.00     0.046 A 
HETATM   13  C15 UNL     1      29.385  -0.400  53.731  1.00  0.00     0.138 A 
HETATM   14  F1  UNL     1      30.624  -0.982  53.713  1.00  0.00    -0.204 F 
HETATM   15  C16 UNL     1      28.268  -1.150  53.353  1.00  0.00     0.074 A 
HETATM   16 CL1  UNL     1      28.458  -2.816  52.863  1.00  0.00    -0.081 Cl
HETATM   17  C17 UNL     1      26.994  -0.586  53.362  1.00  0.00     0.056 A 
ENDBRANCH   8  10
ENDBRANCH   7   8
ENDBRANCH   6   7
ENDBRANCH   3   5
BRANCH   2  18
HETATM   18  C2  UNL     1      26.957   5.854  48.594  1.00  0.00    -0.004 C 
HETATM   19  C3  UNL     1      27.599   6.729  48.052  1.00  0.00    -0.066 C 
BRANCH  19  20
HETATM   20  C4  UNL     1      28.370   7.812  47.399  1.00  0.00     0.366 C 
BRANCH  20  21
HETATM   21  N1  UNL     1      29.032   8.604  48.442  1.00  0.00     0.103 N 
HETATM   22  C5  UNL     1      29.091   9.991  48.081  1.00  0.00     0.299 C 
HETATM   23  C6  UNL     1      29.959  10.746  49.026  1.00  0.00     0.198 C 
HETATM   24  O2  UNL     1      30.840   9.944  49.764  1.00  0.00    -0.388 OA
HETATM   25  C7  UNL     1      31.397   9.002  48.891  1.00  0.00     0.198 C 
HETATM   26  C8  UNL     1      30.340   7.987  48.606  1.00  0.00     0.299 C 
ENDBRANCH  20  21
ENDBRANCH  19  20
ENDBRANCH   2  18
TORSDOF 7
ENDMDL
MODEL 6
REMARK VINA RESULT:      -6.9      2.963      3.715
REMARK  7 active torsions:
REMARK  status: ('A' for Active; 'I' for Inactive)
REMARK    1  A    between atoms: C1_2  and  C2_3 
REMARK       I    between atoms: C1_2  and  N2_12 
REMARK    2  A    between atoms: C3_4  and  C4_5 
REMARK    3  A    between atoms: C4_5  and  N1_6 
REMARK    4  A    between atoms: N2_12  and  C9_13 
REMARK    5  A    between atoms: C10_14  and  C11_15 
REMARK    6  A    between atoms: C11_15  and  N3_16 
REMARK    7  A    between atoms: N3_16  and  C12_17 
ROOT
HETATM    1  O1  UNL     1      27.689   4.028  48.669  1.00  0.00    -0.258 OA
HETATM    2  C1  UNL     1      27.999   5.243  48.662  1.00  0.00     0.300 C 
HETATM    3  N2  UNL     1      27.101   6.252  49.074  1.00  0.00    -0.327 N 
HETATM    4  H11 UNL     1      27.298   7.258  49.088  1.00  0.00     0.169 HD
ENDROOT
BRANCH   3   5
HETATM    5  C9  UNL     1      25.788   5.979  49.525  1.00  0.00     0.089 C 
HETATM    6  C10 UNL     1      25.098   5.405  50.469  1.00  0.00     0.010 C 
BRANCH   6   7
HETATM    7  C11 UNL     1      23.829   5.020  51.104  1.00  0.00     0.148 C 
BRANCH   7   8
HETATM    8  N3  UNL     1      24.048   4.552  52.475  1.00  0.00    -0.386 N 
HETATM    9  H16 UNL     1      24.229   5.147  53.296  1.00  0.00     0.160 HD
BRANCH   8  10
HETATM   10  C12 UNL     1      23.999   3.153  52.632  1.00  0.00     0.029 A 
HETATM   11  C13 UNL     1      22.983   2.360  52.140  1.00  0.00     0.032 A 
HETATM   12  C14 UNL     1      22.851   0.994  52.250  1.00  0.00     0.046 A 
HETATM   13  C15 UNL     1      23.869   0.359  52.943  1.00  0.00     0.138 A 
HETATM   14  F1  UNL     1      23.831  -0.999  53.110  1.00  0.00    -0.204 F 
HETATM   15  C16 UNL     1      24.937   1.086  53.476  1.00  0.00     0.074 A 
HETATM   16 CL1  UNL     1      26.208   0.263  54.346  1.00  0.00    -0.081 Cl
HETATM   17  C17 UNL     1      25.004   2.470  53.323  1.00  0.00     0.056 A 
ENDBRANCH   8  10
ENDBRANCH   7   8
ENDBRANCH   6   7
ENDBRANCH   3   5
BRANCH   2  18
HETATM   18  C2  UNL     1      29.299   5.715  48.238  1.00  0.00    -0.004 C 
HETATM   19  C3  UNL     1      30.395   6.111  47.901  1.00  0.00    -0.066 C 
BRANCH  19  20
HETATM   20  C4  UNL     1      31.740   6.595  47.510  1.00  0.00     0.366 C 
BRANCH  20  21
HETATM   21  N1  UNL     1      32.742   5.672  48.057  1.00  0.00     0.103 N 
HETATM   22  C5  UNL     1      33.891   6.381  48.538  1.00  0.00     0.299 C 
HETATM   23  C6  UNL     1      34.991   5.436  48.878  1.00  0.00     0.198 C 
HETATM   24  O2  UNL     1      34.863   4.170  48.289  1.00  0.00    -0.388 OA
HETATM   25  C7  UNL     1      34.474   4.353  46.957  1.00  0.00     0.198 C 
HETATM   26  C8  UNL     1      33.035   4.751  46.969  1.00  0.00     0.299 C 
ENDBRANCH  20  21
ENDBRANCH  19  20
ENDBRANCH   2  18
TORSDOF 7
ENDMDL
MODEL 7
REMARK VINA RESULT:      -6.9      2.338      3.034
REMARK  7 active torsions:
REMARK  status: ('A' for Active; 'I' for Inactive)
REMARK    1  A    between atoms: C1_2  and  C2_3 
REMARK       I    between atoms: C1_2  and  N2_12 
REMARK    2  A    between atoms: C3_4  and  C4_5 
REMARK    3  A    between atoms: C4_5  and  N1_6 
REMARK    4  A    between atoms: N2_12  and  C9_13 
REMARK    5  A    between atoms: C10_14  and  C11_15 
REMARK    6  A    between atoms: C11_15  and  N3_16 
REMARK    7  A    between atoms: N3_16  and  C12_17 
ROOT
HETATM    1  O1  UNL     1      27.238   6.721  48.385  1.00  0.00    -0.258 OA
HETATM    2  C1  UNL     1      27.902   5.663  48.499  1.00  0.00     0.300 C 
HETATM    3  N2  UNL     1      27.352   4.483  49.048  1.00  0.00    -0.327 N 
HETATM    4  H11 UNL     1      27.846   3.593  49.168  1.00  0.00     0.169 HD
ENDROOT
BRANCH   3   5
HETATM    5  C9  UNL     1      26.017   4.397  49.510  1.00  0.00     0.089 C 
HETATM    6  C10 UNL     1      25.279   4.255  50.573  1.00  0.00     0.010 C 
BRANCH   6   7
HETATM    7  C11 UNL     1      23.978   4.145  51.250  1.00  0.00     0.148 C 
BRANCH   7   8
HETATM    8  N3  UNL     1      24.152   3.893  52.684  1.00  0.00    -0.386 N 
HETATM    9  H16 UNL     1      24.036   4.585  53.437  1.00  0.00     0.160 HD
BRANCH   8  10
HETATM   10  C12 UNL     1      24.511   2.570  53.006  1.00  0.00     0.029 A 
HETATM   11  C13 UNL     1      23.687   1.481  52.813  1.00  0.00     0.032 A 
HETATM   12  C14 UNL     1      23.952   0.162  53.103  1.00  0.00     0.046 A 
HETATM   13  C15 UNL     1      25.200  -0.081  53.656  1.00  0.00     0.138 A 
HETATM   14  F1  UNL     1      25.560  -1.360  53.982  1.00  0.00    -0.204 F 
HETATM   15  C16 UNL     1      26.097   0.966  53.887  1.00  0.00     0.074 A 
HETATM   16 CL1  UNL     1      27.664   0.636  54.585  1.00  0.00    -0.081 Cl
HETATM   17  C17 UNL     1      25.760   2.279  53.565  1.00  0.00     0.056 A 
ENDBRANCH   8  10
ENDBRANCH   7   8
ENDBRANCH   6   7
ENDBRANCH   3   5
BRANCH   2  18
HETATM   18  C2  UNL     1      29.282   5.558  48.078  1.00  0.00    -0.004 C 
HETATM   19  C3  UNL     1      30.434   5.455  47.712  1.00  0.00    -0.066 C 
BRANCH  19  20
HETATM   20  C4  UNL     1      31.835   5.313  47.252  1.00  0.00     0.366 C 
BRANCH  20  21
HETATM   21  N1  UNL     1      32.624   6.413  47.819  1.00  0.00     0.103 N 
HETATM   22  C5  UNL     1      33.202   7.222  46.787  1.00  0.00     0.299 C 
HETATM   23  C6  UNL     1      34.179   8.190  47.360  1.00  0.00     0.198 C 
HETATM   24  O2  UNL     1      34.642   7.850  48.638  1.00  0.00    -0.388 OA
HETATM   25  C7  UNL     1      34.919   6.478  48.645  1.00  0.00     0.198 C 
HETATM   26  C8  UNL     1      33.607   5.764  48.674  1.00  0.00     0.299 C 
ENDBRANCH  20  21
ENDBRANCH  19  20
ENDBRANCH   2  18
TORSDOF 7
ENDMDL
MODEL 8
REMARK VINA RESULT:      -6.9      3.771      4.413
REMARK  7 active torsions:
REMARK  status: ('A' for Active; 'I' for Inactive)
REMARK    1  A    between atoms: C1_2  and  C2_3 
REMARK       I    between atoms: C1_2  and  N2_12 
REMARK    2  A    between atoms: C3_4  and  C4_5 
REMARK    3  A    between atoms: C4_5  and  N1_6 
REMARK    4  A    between atoms: N2_12  and  C9_13 
REMARK    5  A    between atoms: C10_14  and  C11_15 
REMARK    6  A    between atoms: C11_15  and  N3_16 
REMARK    7  A    between atoms: N3_16  and  C12_17 
ROOT
HETATM    1  O1  UNL     1      26.844   6.560  48.240  1.00  0.00    -0.258 OA
HETATM    2  C1  UNL     1      27.719   5.703  48.512  1.00  0.00     0.300 C 
HETATM    3  N2  UNL     1      27.425   4.533  49.247  1.00  0.00    -0.327 N 
HETATM    4  H11 UNL     1      28.097   3.802  49.499  1.00  0.00     0.169 HD
ENDROOT
BRANCH   3   5
HETATM    5  C9  UNL     1      26.130   4.233  49.733  1.00  0.00     0.089 C 
HETATM    6  C10 UNL     1      25.166   3.360  49.687  1.00  0.00     0.010 C 
BRANCH   6   7
HETATM    7  C11 UNL     1      23.835   2.868  50.074  1.00  0.00     0.148 C 
BRANCH   7   8
HETATM    8  N3  UNL     1      23.668   2.894  51.530  1.00  0.00    -0.386 N 
HETATM    9  H16 UNL     1      23.876   3.690  52.148  1.00  0.00     0.160 HD
BRANCH   8  10
HETATM   10  C12 UNL     1      23.177   1.696  52.084  1.00  0.00     0.029 A 
HETATM   11  C13 UNL     1      23.967   0.765  52.725  1.00  0.00     0.032 A 
HETATM   12  C14 UNL     1      23.575  -0.428  53.289  1.00  0.00     0.046 A 
HETATM   13  C15 UNL     1      22.222  -0.711  53.187  1.00  0.00     0.138 A 
HETATM   14  F1  UNL     1      21.731  -1.875  53.715  1.00  0.00    -0.204 F 
HETATM   15  C16 UNL     1      21.349   0.178  52.552  1.00  0.00     0.074 A 
HETATM   16 CL1  UNL     1      19.648  -0.200  52.437  1.00  0.00    -0.081 Cl
HETATM   17  C17 UNL     1      21.819   1.370  52.006  1.00  0.00     0.056 A 
ENDBRANCH   8  10
ENDBRANCH   7   8
ENDBRANCH   6   7
ENDBRANCH   3   5
BRANCH   2  18
HETATM   18  C2  UNL     1      29.098   5.835  48.095  1.00  0.00    -0.004 C 
HETATM   19  C3  UNL     1      30.255   5.926  47.739  1.00  0.00    -0.066 C 
BRANCH  19  20
HETATM   20  C4  UNL     1      31.667   6.016  47.300  1.00  0.00     0.366 C 
BRANCH  20  21
HETATM   21  N1  UNL     1      32.384   4.838  47.800  1.00  0.00     0.103 N 
HETATM   22  C5  UNL     1      33.803   5.020  47.712  1.00  0.00     0.299 C 
HETATM   23  C6  UNL     1      34.518   3.746  48.003  1.00  0.00     0.198 C 
HETATM   24  O2  UNL     1      33.722   2.599  47.877  1.00  0.00    -0.388 OA
HETATM   25  C7  UNL     1      32.958   2.732  46.711  1.00  0.00     0.198 C 
HETATM   26  C8  UNL     1      31.886   3.730  46.999  1.00  0.00     0.299 C 
ENDBRANCH  20  21
ENDBRANCH  19  20
ENDBRANCH   2  18
TORSDOF 7
ENDMDL
MODEL 9
REMARK VINA RESULT:      -6.7      3.732      8.227
REMARK  7 active torsions:
REMARK  status: ('A' for Active; 'I' for Inactive)
REMARK    1  A    between atoms: C1_2  and  C2_3 
REMARK       I    between atoms: C1_2  and  N2_12 
REMARK    2  A    between atoms: C3_4  and  C4_5 
REMARK    3  A    between atoms: C4_5  and  N1_6 
REMARK    4  A    between atoms: N2_12  and  C9_13 
REMARK    5  A    between atoms: C10_14  and  C11_15 
REMARK    6  A    between atoms: C11_15  and  N3_16 
REMARK    7  A    between atoms: N3_16  and  C12_17 
ROOT
HETATM    1  O1  UNL     1      24.643   4.686  49.871  1.00  0.00    -0.258 OA
HETATM    2  C1  UNL     1      25.420   3.800  50.301  1.00  0.00     0.300 C 
HETATM    3  N2  UNL     1      26.763   3.703  49.873  1.00  0.00    -0.327 N 
HETATM    4  H11 UNL     1      27.440   3.001  50.187  1.00  0.00     0.169 HD
ENDROOT
BRANCH   3   5
HETATM    5  C9  UNL     1      27.339   4.591  48.934  1.00  0.00     0.089 C 
HETATM    6  C10 UNL     1      28.430   5.230  48.623  1.00  0.00     0.010 C 
BRANCH   6   7
HETATM    7  C11 UNL     1      29.208   6.137  47.765  1.00  0.00     0.148 C 
BRANCH   7   8
HETATM    8  N3  UNL     1      30.441   6.562  48.435  1.00  0.00    -0.386 N 
HETATM    9  H16 UNL     1      30.542   7.379  49.053  1.00  0.00     0.160 HD
BRANCH   8  10
HETATM   10  C12 UNL     1      31.560   5.747  48.175  1.00  0.00     0.029 A 
HETATM   11  C13 UNL     1      31.517   4.607  47.399  1.00  0.00     0.032 A 
HETATM   12  C14 UNL     1      32.553   3.752  47.099  1.00  0.00     0.046 A 
HETATM   13  C15 UNL     1      33.776   4.093  47.654  1.00  0.00     0.138 A 
HETATM   14  F1  UNL     1      34.871   3.306  47.418  1.00  0.00    -0.204 F 
HETATM   15  C16 UNL     1      33.909   5.231  48.455  1.00  0.00     0.074 A 
HETATM   16 CL1  UNL     1      35.462   5.640  49.144  1.00  0.00    -0.081 Cl
HETATM   17  C17 UNL     1      32.813   6.052  48.714  1.00  0.00     0.056 A 
ENDBRANCH   8  10
ENDBRANCH   7   8
ENDBRANCH   6   7
ENDBRANCH   3   5
BRANCH   2  18
HETATM   18  C2  UNL     1      25.012   2.805  51.269  1.00  0.00    -0.004 C 
HETATM   19  C3  UNL     1      24.650   1.975  52.077  1.00  0.00    -0.066 C 
BRANCH  19  20
HETATM   20  C4  UNL     1      24.188   0.967  53.060  1.00  0.00     0.366 C 
BRANCH  20  21
HETATM   21  N1  UNL     1      25.364   0.398  53.727  1.00  0.00     0.103 N 
HETATM   22  C5  UNL     1      26.398   1.378  53.881  1.00  0.00     0.299 C 
HETATM   23  C6  UNL     1      27.663   0.743  54.346  1.00  0.00     0.198 C 
HETATM   24  O2  UNL     1      27.724  -0.641  54.132  1.00  0.00    -0.388 OA
HETATM   25  C7  UNL     1      27.234  -0.899  52.846  1.00  0.00     0.198 C 
HETATM   26  C8  UNL     1      25.750  -0.735  52.900  1.00  0.00     0.299 C 
ENDBRANCH  20  21
ENDBRANCH  19  20
ENDBRANCH   2  18
TORSDOF 7
ENDMDL
