MODEL 1
REMARK VINA RESULT:      -9.1      0.000      0.000
REMARK  4 active torsions:
REMARK  status: ('A' for Active; 'I' for Inactive)
REMARK    1  A    between atoms: C7_7  and  N1_8 
REMARK    2  A    between atoms: N1_8  and  C8_9 
REMARK    3  A    between atoms: C12_16  and  C13_18 
REMARK    4  A    between atoms: C16_22  and  C17_23 
ROOT
HETATM    1  C1  UNL     1      14.854  -0.542  50.016  1.00  0.00     0.018 C 
HETATM    2  C2  UNL     1      15.609  -0.948  50.877  1.00  0.00    -0.078 C 
HETATM    3  C3  UNL     1      16.477  -1.441  51.896  1.00  0.00     0.019 A 
HETATM    4  C4  UNL     1      16.287  -2.703  52.449  1.00  0.00     0.021 A 
HETATM    5  C5  UNL     1      17.063  -3.260  53.425  1.00  0.00     0.004 A 
HETATM    6  C6  UNL     1      18.120  -2.460  53.870  1.00  0.00     0.029 A 
HETATM    7  C7  UNL     1      18.392  -1.178  53.377  1.00  0.00     0.034 A 
HETATM    8  C22 UNL     1      17.543  -0.687  52.377  1.00  0.00     0.050 A 
ENDROOT
BRANCH   7   9
HETATM    9  N1  UNL     1      19.495  -0.461  53.901  1.00  0.00    -0.338 N 
HETATM   10  H5  UNL     1      19.030  -0.355  54.855  1.00  0.00     0.167 HD
BRANCH   9  11
HETATM   11  C8  UNL     1      20.765   0.006  53.479  1.00  0.00     0.216 A 
HETATM   12  N2  UNL     1      21.654  -0.693  54.046  1.00  0.00     0.119 N 
HETATM   13  C9  UNL     1      21.544  -1.746  54.935  1.00  0.00     0.385 A 
HETATM   14  N3  UNL     1      22.848  -1.477  54.651  1.00  0.00    -0.024 NA
HETATM   15  C10 UNL     1      22.916  -0.432  53.770  1.00  0.00     0.281 A 
HETATM   16  S1  UNL     1      22.962   0.688  52.827  1.00  0.00    -0.063 SA
HETATM   17  C11 UNL     1      22.985   2.033  51.693  1.00  0.00     0.099 A 
HETATM   18  C20 UNL     1      21.765   1.688  52.025  1.00  0.00     0.087 A 
HETATM   19  C12 UNL     1      24.365   1.734  51.895  1.00  0.00     0.189 A 
HETATM   20  O1  UNL     1      24.885   0.854  52.619  1.00  0.00    -0.309 OA
HETATM   21  C21 UNL     1      20.538   1.116  52.550  1.00  0.00     0.104 A 
BRANCH  19  22
HETATM   22  C13 UNL     1      25.147   2.653  51.094  1.00  0.00     0.082 A 
HETATM   23  C14 UNL     1      26.452   2.455  51.016  1.00  0.00     0.173 A 
HETATM   24  O2  UNL     1      27.071   3.386  50.231  1.00  0.00    -0.303 OA
HETATM   25  C15 UNL     1      26.134   4.278  49.741  1.00  0.00     0.155 A 
HETATM   26  C16 UNL     1      26.273   5.329  48.950  1.00  0.00     0.120 C 
HETATM   27  N4  UNL     1      24.918   3.801  50.295  1.00  0.00    -0.335 N 
HETATM   28  H12 UNL     1      23.937   4.160  50.201  1.00  0.00     0.168 HD
BRANCH  26  29
HETATM   29  C17 UNL     1      27.605   5.634  48.501  1.00  0.00    -0.075 C 
HETATM   30  C18 UNL     1      28.731   5.907  48.136  1.00  0.00    -0.106 C 
HETATM   31  C19 UNL     1      30.079   6.247  47.677  1.00  0.00     0.112 C 
ENDBRANCH  26  29
ENDBRANCH  19  22
ENDBRANCH   9  11
ENDBRANCH   7   9
TORSDOF 4
ENDMDL
MODEL 2
REMARK VINA RESULT:      -8.8      1.291      2.049
REMARK  4 active torsions:
REMARK  status: ('A' for Active; 'I' for Inactive)
REMARK    1  A    between atoms: C7_7  and  N1_8 
REMARK    2  A    between atoms: N1_8  and  C8_9 
REMARK    3  A    between atoms: C12_16  and  C13_18 
REMARK    4  A    between atoms: C16_22  and  C17_23 
ROOT
HETATM    1  C1  UNL     1      16.671  -4.641  53.793  1.00  0.00     0.018 C 
HETATM    2  C2  UNL     1      17.061  -3.542  53.457  1.00  0.00    -0.078 C 
HETATM    3  C3  UNL     1      17.506  -2.251  53.042  1.00  0.00     0.019 A 
HETATM    4  C4  UNL     1      16.776  -1.504  52.123  1.00  0.00     0.021 A 
HETATM    5  C5  UNL     1      17.120  -0.265  51.666  1.00  0.00     0.004 A 
HETATM    6  C6  UNL     1      18.307   0.254  52.193  1.00  0.00     0.029 A 
HETATM    7  C7  UNL     1      19.110  -0.421  53.122  1.00  0.00     0.034 A 
HETATM    8  C22 UNL     1      18.680  -1.688  53.534  1.00  0.00     0.050 A 
ENDROOT
BRANCH   7   9
HETATM    9  N1  UNL     1      20.290   0.206  53.591  1.00  0.00    -0.338 N 
HETATM   10  H5  UNL     1      19.968   0.154  54.606  1.00  0.00     0.167 HD
BRANCH   9  11
HETATM   11  C8  UNL     1      21.496   0.740  53.072  1.00  0.00     0.216 A 
HETATM   12  N2  UNL     1      22.446  -0.024  53.407  1.00  0.00     0.119 N 
HETATM   13  C9  UNL     1      22.447  -1.194  54.143  1.00  0.00     0.385 A 
HETATM   14  N3  UNL     1      23.703  -0.875  53.726  1.00  0.00    -0.024 NA
HETATM   15  C10 UNL     1      23.662   0.286  53.003  1.00  0.00     0.281 A 
HETATM   16  S1  UNL     1      23.591   1.531  52.232  1.00  0.00    -0.063 SA
HETATM   17  C11 UNL     1      23.473   3.024  51.310  1.00  0.00     0.099 A 
HETATM   18  C20 UNL     1      22.307   2.623  51.752  1.00  0.00     0.087 A 
HETATM   19  C12 UNL     1      24.865   2.712  51.278  1.00  0.00     0.189 A 
HETATM   20  O1  UNL     1      25.469   1.743  51.791  1.00  0.00    -0.309 OA
HETATM   21  C21 UNL     1      21.156   1.970  52.350  1.00  0.00     0.104 A 
BRANCH  19  22
HETATM   22  C13 UNL     1      25.541   3.744  50.518  1.00  0.00     0.082 A 
HETATM   23  C14 UNL     1      26.525   3.380  49.714  1.00  0.00     0.173 A 
HETATM   24  O2  UNL     1      27.076   4.443  49.056  1.00  0.00    -0.303 OA
HETATM   25  C15 UNL     1      26.430   5.607  49.431  1.00  0.00     0.155 A 
HETATM   26  C16 UNL     1      26.623   6.861  49.057  1.00  0.00     0.120 C 
HETATM   27  N4  UNL     1      25.459   5.149  50.359  1.00  0.00    -0.335 N 
HETATM   28  H12 UNL     1      24.736   5.676  50.907  1.00  0.00     0.168 HD
BRANCH  26  29
HETATM   29  C17 UNL     1      27.669   7.100  48.099  1.00  0.00    -0.075 C 
HETATM   30  C18 UNL     1      28.562   7.316  47.303  1.00  0.00    -0.106 C 
HETATM   31  C19 UNL     1      29.622   7.591  46.332  1.00  0.00     0.112 C 
ENDBRANCH  26  29
ENDBRANCH  19  22
ENDBRANCH   9  11
ENDBRANCH   7   9
TORSDOF 4
ENDMDL
MODEL 3
REMARK VINA RESULT:      -8.7      4.220      6.971
REMARK  4 active torsions:
REMARK  status: ('A' for Active; 'I' for Inactive)
REMARK    1  A    between atoms: C7_7  and  N1_8 
REMARK    2  A    between atoms: N1_8  and  C8_9 
REMARK    3  A    between atoms: C12_16  and  C13_18 
REMARK    4  A    between atoms: C16_22  and  C17_23 
ROOT
HETATM    1  C1  UNL     1      25.451  -0.516  54.522  1.00  0.00     0.018 C 
HETATM    2  C2  UNL     1      24.630  -0.113  53.724  1.00  0.00    -0.078 C 
HETATM    3  C3  UNL     1      23.653   0.338  52.786  1.00  0.00     0.019 A 
HETATM    4  C4  UNL     1      22.409  -0.280  52.696  1.00  0.00     0.021 A 
HETATM    5  C5  UNL     1      21.414   0.079  51.834  1.00  0.00     0.004 A 
HETATM    6  C6  UNL     1      21.714   1.157  50.996  1.00  0.00     0.029 A 
HETATM    7  C7  UNL     1      22.936   1.842  51.011  1.00  0.00     0.034 A 
HETATM    8  C22 UNL     1      23.900   1.405  51.928  1.00  0.00     0.050 A 
ENDROOT
BRANCH   7   9
HETATM    9  N1  UNL     1      23.126   2.925  50.118  1.00  0.00    -0.338 N 
HETATM   10  H5  UNL     1      22.514   2.474  49.371  1.00  0.00     0.167 HD
BRANCH   9  11
HETATM   11  C8  UNL     1      23.808   4.166  50.073  1.00  0.00     0.216 A 
HETATM   12  N2  UNL     1      23.062   5.049  50.586  1.00  0.00     0.119 N 
HETATM   13  C9  UNL     1      21.794   4.955  51.127  1.00  0.00     0.385 A 
HETATM   14  N3  UNL     1      22.267   6.229  51.205  1.00  0.00    -0.024 NA
HETATM   15  C10 UNL     1      23.522   6.281  50.661  1.00  0.00     0.281 A 
HETATM   16  S1  UNL     1      24.864   6.312  50.073  1.00  0.00    -0.063 SA
HETATM   17  C11 UNL     1      26.474   6.316  49.363  1.00  0.00     0.099 A 
HETATM   18  C20 UNL     1      25.929   5.124  49.346  1.00  0.00     0.087 A 
HETATM   19  C12 UNL     1      26.268   7.674  49.750  1.00  0.00     0.189 A 
HETATM   20  O1  UNL     1      25.272   8.195  50.302  1.00  0.00    -0.309 OA
HETATM   21  C21 UNL     1      25.112   3.928  49.448  1.00  0.00     0.104 A 
BRANCH  19  22
HETATM   22  C13 UNL     1      27.451   8.428  49.391  1.00  0.00     0.082 A 
HETATM   23  C14 UNL     1      27.823   8.437  48.122  1.00  0.00     0.173 A 
HETATM   24  O2  UNL     1      28.948   9.183  47.918  1.00  0.00    -0.303 OA
HETATM   25  C15 UNL     1      29.376   9.719  49.120  1.00  0.00     0.155 A 
HETATM   26  C16 UNL     1      30.409  10.497  49.400  1.00  0.00     0.120 C 
HETATM   27  N4  UNL     1      28.417   9.233  50.045  1.00  0.00    -0.335 N 
HETATM   28  H12 UNL     1      28.332   9.378  51.081  1.00  0.00     0.168 HD
BRANCH  26  29
HETATM   29  C17 UNL     1      31.257  10.872  48.302  1.00  0.00    -0.075 C 
HETATM   30  C18 UNL     1      31.981  11.170  47.372  1.00  0.00    -0.106 C 
HETATM   31  C19 UNL     1      32.869  11.538  46.267  1.00  0.00     0.112 C 
ENDBRANCH  26  29
ENDBRANCH  19  22
ENDBRANCH   9  11
ENDBRANCH   7   9
TORSDOF 4
ENDMDL
MODEL 4
REMARK VINA RESULT:      -8.6      1.643      2.169
REMARK  4 active torsions:
REMARK  status: ('A' for Active; 'I' for Inactive)
REMARK    1  A    between atoms: C7_7  and  N1_8 
REMARK    2  A    between atoms: N1_8  and  C8_9 
REMARK    3  A    between atoms: C12_16  and  C13_18 
REMARK    4  A    between atoms: C16_22  and  C17_23 
ROOT
HETATM    1  C1  UNL     1      16.647   0.330  49.683  1.00  0.00     0.018 C 
HETATM    2  C2  UNL     1      17.326   0.003  50.635  1.00  0.00    -0.078 C 
HETATM    3  C3  UNL     1      18.104  -0.392  51.764  1.00  0.00     0.019 A 
HETATM    4  C4  UNL     1      17.688  -1.432  52.591  1.00  0.00     0.021 A 
HETATM    5  C5  UNL     1      18.362  -1.880  53.690  1.00  0.00     0.004 A 
HETATM    6  C6  UNL     1      19.558  -1.211  53.966  1.00  0.00     0.029 A 
HETATM    7  C7  UNL     1      20.059  -0.154  53.196  1.00  0.00     0.034 A 
HETATM    8  C22 UNL     1      19.301   0.240  52.086  1.00  0.00     0.050 A 
ENDROOT
BRANCH   7   9
HETATM    9  N1  UNL     1      21.286   0.446  53.570  1.00  0.00    -0.338 N 
HETATM   10  H5  UNL     1      21.094   0.299  54.607  1.00  0.00     0.167 HD
BRANCH   9  11
HETATM   11  C8  UNL     1      22.416   1.041  52.955  1.00  0.00     0.216 A 
HETATM   12  N2  UNL     1      23.429   0.328  53.209  1.00  0.00     0.119 N 
HETATM   13  C9  UNL     1      23.551  -0.838  53.940  1.00  0.00     0.385 A 
HETATM   14  N3  UNL     1      24.751  -0.455  53.423  1.00  0.00    -0.024 NA
HETATM   15  C10 UNL     1      24.589   0.701  52.708  1.00  0.00     0.281 A 
HETATM   16  S1  UNL     1      24.391   1.938  51.948  1.00  0.00    -0.063 SA
HETATM   17  C11 UNL     1      24.120   3.422  51.042  1.00  0.00     0.099 A 
HETATM   18  C20 UNL     1      23.016   2.961  51.577  1.00  0.00     0.087 A 
HETATM   19  C12 UNL     1      25.520   3.183  50.896  1.00  0.00     0.189 A 
HETATM   20  O1  UNL     1      26.213   2.248  51.356  1.00  0.00    -0.309 OA
HETATM   21  C21 UNL     1      21.955   2.250  52.266  1.00  0.00     0.104 A 
BRANCH  19  22
HETATM   22  C13 UNL     1      26.076   4.247  50.086  1.00  0.00     0.082 A 
HETATM   23  C14 UNL     1      26.957   3.924  49.155  1.00  0.00     0.173 A 
HETATM   24  O2  UNL     1      27.402   5.014  48.463  1.00  0.00    -0.303 OA
HETATM   25  C15 UNL     1      26.788   6.155  48.947  1.00  0.00     0.155 A 
HETATM   26  C16 UNL     1      26.911   7.422  48.585  1.00  0.00     0.120 C 
HETATM   27  N4  UNL     1      25.950   5.654  49.976  1.00  0.00    -0.335 N 
HETATM   28  H12 UNL     1      25.292   6.152  50.625  1.00  0.00     0.168 HD
BRANCH  26  29
HETATM   29  C17 UNL     1      27.823   7.706  47.511  1.00  0.00    -0.075 C 
HETATM   30  C18 UNL     1      28.581   7.939  46.590  1.00  0.00    -0.106 C 
HETATM   31  C19 UNL     1      29.505   8.200  45.484  1.00  0.00     0.112 C 
ENDBRANCH  26  29
ENDBRANCH  19  22
ENDBRANCH   9  11
ENDBRANCH   7   9
TORSDOF 4
ENDMDL
MODEL 5
REMARK VINA RESULT:      -8.6      5.158      7.985
REMARK  4 active torsions:
REMARK  status: ('A' for Active; 'I' for Inactive)
REMARK    1  A    between atoms: C7_7  and  N1_8 
REMARK    2  A    between atoms: N1_8  and  C8_9 
REMARK    3  A    between atoms: C12_16  and  C13_18 
REMARK    4  A    between atoms: C16_22  and  C17_23 
ROOT
HETATM    1  C1  UNL     1      28.955  -0.903  53.441  1.00  0.00     0.018 C 
HETATM    2  C2  UNL     1      27.843  -0.474  53.209  1.00  0.00    -0.078 C 
HETATM    3  C3  UNL     1      26.527   0.009  52.944  1.00  0.00     0.019 A 
HETATM    4  C4  UNL     1      25.423  -0.529  53.599  1.00  0.00     0.021 A 
HETATM    5  C5  UNL     1      24.129  -0.134  53.413  1.00  0.00     0.004 A 
HETATM    6  C6  UNL     1      23.950   0.893  52.482  1.00  0.00     0.029 A 
HETATM    7  C7  UNL     1      24.996   1.497  51.772  1.00  0.00     0.034 A 
HETATM    8  C22 UNL     1      26.291   1.028  52.026  1.00  0.00     0.050 A 
ENDROOT
BRANCH   7   9
HETATM    9  N1  UNL     1      24.695   2.534  50.856  1.00  0.00    -0.338 N 
HETATM   10  H5  UNL     1      23.728   2.134  50.652  1.00  0.00     0.167 HD
BRANCH   9  11
HETATM   11  C8  UNL     1      25.303   3.697  50.320  1.00  0.00     0.216 A 
HETATM   12  N2  UNL     1      24.625   4.702  50.680  1.00  0.00     0.119 N 
HETATM   13  C9  UNL     1      23.482   4.790  51.451  1.00  0.00     0.385 A 
HETATM   14  N3  UNL     1      23.907   6.023  51.059  1.00  0.00    -0.024 NA
HETATM   15  C10 UNL     1      25.037   5.894  50.300  1.00  0.00     0.281 A 
HETATM   16  S1  UNL     1      26.247   5.730  49.489  1.00  0.00    -0.063 SA
HETATM   17  C11 UNL     1      27.699   5.501  48.521  1.00  0.00     0.099 A 
HETATM   18  C20 UNL     1      27.212   4.365  48.959  1.00  0.00     0.087 A 
HETATM   19  C12 UNL     1      27.508   6.915  48.521  1.00  0.00     0.189 A 
HETATM   20  O1  UNL     1      26.609   7.591  49.070  1.00  0.00    -0.309 OA
HETATM   21  C21 UNL     1      26.480   3.265  49.561  1.00  0.00     0.104 A 
BRANCH  19  22
HETATM   22  C13 UNL     1      28.572   7.512  47.741  1.00  0.00     0.082 A 
HETATM   23  C14 UNL     1      28.573   8.826  47.593  1.00  0.00     0.173 A 
HETATM   24  O2  UNL     1      29.626   9.261  46.840  1.00  0.00    -0.303 OA
HETATM   25  C15 UNL     1      30.396   8.181  46.447  1.00  0.00     0.155 A 
HETATM   26  C16 UNL     1      31.497   8.125  45.717  1.00  0.00     0.120 C 
HETATM   27  N4  UNL     1      29.716   7.078  47.026  1.00  0.00    -0.335 N 
HETATM   28  H12 UNL     1      29.931   6.052  46.997  1.00  0.00     0.168 HD
BRANCH  26  29
HETATM   29  C17 UNL     1      32.018   9.373  45.229  1.00  0.00    -0.075 C 
HETATM   30  C18 UNL     1      32.467  10.418  44.800  1.00  0.00    -0.106 C 
HETATM   31  C19 UNL     1      33.025  11.675  44.298  1.00  0.00     0.112 C 
ENDBRANCH  26  29
ENDBRANCH  19  22
ENDBRANCH   9  11
ENDBRANCH   7   9
TORSDOF 4
ENDMDL
MODEL 6
REMARK VINA RESULT:      -8.5      2.739     10.499
REMARK  4 active torsions:
REMARK  status: ('A' for Active; 'I' for Inactive)
REMARK    1  A    between atoms: C7_7  and  N1_8 
REMARK    2  A    between atoms: N1_8  and  C8_9 
REMARK    3  A    between atoms: C12_16  and  C13_18 
REMARK    4  A    between atoms: C16_22  and  C17_23 
ROOT
HETATM    1  C1  UNL     1      27.207   8.323  47.349  1.00  0.00     0.018 C 
HETATM    2  C2  UNL     1      26.950   7.327  47.994  1.00  0.00    -0.078 C 
HETATM    3  C3  UNL     1      26.658   6.144  48.736  1.00  0.00     0.019 A 
HETATM    4  C4  UNL     1      27.417   4.989  48.568  1.00  0.00     0.021 A 
HETATM    5  C5  UNL     1      27.217   3.812  49.229  1.00  0.00     0.004 A 
HETATM    6  C6  UNL     1      26.154   3.816  50.138  1.00  0.00     0.029 A 
HETATM    7  C7  UNL     1      25.333   4.926  50.376  1.00  0.00     0.034 A 
HETATM    8  C22 UNL     1      25.612   6.092  49.652  1.00  0.00     0.050 A 
ENDROOT
BRANCH   7   9
HETATM    9  N1  UNL     1      24.287   4.815  51.325  1.00  0.00    -0.338 N 
HETATM   10  H5  UNL     1      24.732   5.540  51.967  1.00  0.00     0.167 HD
BRANCH   9  11
HETATM   11  C8  UNL     1      23.080   4.095  51.506  1.00  0.00     0.216 A 
HETATM   12  N2  UNL     1      22.113   4.872  51.256  1.00  0.00     0.119 N 
HETATM   13  C9  UNL     1      22.098   6.199  50.871  1.00  0.00     0.385 A 
HETATM   14  N3  UNL     1      20.835   5.701  50.964  1.00  0.00    -0.024 NA
HETATM   15  C10 UNL     1      20.891   4.388  51.346  1.00  0.00     0.281 A 
HETATM   16  S1  UNL     1      20.978   2.984  51.758  1.00  0.00    -0.063 SA
HETATM   17  C11 UNL     1      21.114   1.300  52.249  1.00  0.00     0.099 A 
HETATM   18  C20 UNL     1      22.285   1.874  52.121  1.00  0.00     0.087 A 
HETATM   19  C12 UNL     1      19.707   1.511  52.141  1.00  0.00     0.189 A 
HETATM   20  O1  UNL     1      19.087   2.550  51.820  1.00  0.00    -0.309 OA
HETATM   21  C21 UNL     1      23.437   2.733  51.910  1.00  0.00     0.104 A 
BRANCH  19  22
HETATM   22  C13 UNL     1      19.039   0.271  52.477  1.00  0.00     0.082 A 
HETATM   23  C14 UNL     1      18.002  -0.096  51.742  1.00  0.00     0.173 A 
HETATM   24  O2  UNL     1      17.465  -1.280  52.162  1.00  0.00    -0.303 OA
HETATM   25  C15 UNL     1      18.175  -1.754  53.250  1.00  0.00     0.155 A 
HETATM   26  C16 UNL     1      18.015  -2.849  53.975  1.00  0.00     0.120 C 
HETATM   27  N4  UNL     1      19.170  -0.761  53.439  1.00  0.00    -0.335 N 
HETATM   28  H12 UNL     1      19.939  -0.691  54.149  1.00  0.00     0.168 HD
BRANCH  26  29
HETATM   29  C17 UNL     1      16.935  -3.723  53.604  1.00  0.00    -0.075 C 
HETATM   30  C18 UNL     1      16.034  -4.478  53.296  1.00  0.00    -0.106 C 
HETATM   31  C19 UNL     1      14.955  -5.386  52.904  1.00  0.00     0.112 C 
ENDBRANCH  26  29
ENDBRANCH  19  22
ENDBRANCH   9  11
ENDBRANCH   7   9
TORSDOF 4
ENDMDL
MODEL 7
REMARK VINA RESULT:      -8.3      2.743      4.438
REMARK  4 active torsions:
REMARK  status: ('A' for Active; 'I' for Inactive)
REMARK    1  A    between atoms: C7_7  and  N1_8 
REMARK    2  A    between atoms: N1_8  and  C8_9 
REMARK    3  A    between atoms: C12_16  and  C13_18 
REMARK    4  A    between atoms: C16_22  and  C17_23 
ROOT
HETATM    1  C1  UNL     1      18.141   0.263  51.499  1.00  0.00     0.018 C 
HETATM    2  C2  UNL     1      19.150   0.035  52.135  1.00  0.00    -0.078 C 
HETATM    3  C3  UNL     1      20.322  -0.246  52.899  1.00  0.00     0.019 A 
HETATM    4  C4  UNL     1      20.347  -1.297  53.810  1.00  0.00     0.021 A 
HETATM    5  C5  UNL     1      21.417  -1.642  54.584  1.00  0.00     0.004 A 
HETATM    6  C6  UNL     1      22.555  -0.847  54.411  1.00  0.00     0.029 A 
HETATM    7  C7  UNL     1      22.627   0.232  53.521  1.00  0.00     0.034 A 
HETATM    8  C22 UNL     1      21.481   0.514  52.768  1.00  0.00     0.050 A 
ENDROOT
BRANCH   7   9
HETATM    9  N1  UNL     1      23.836   0.964  53.427  1.00  0.00    -0.338 N 
HETATM   10  H5  UNL     1      24.118   0.713  54.424  1.00  0.00     0.167 HD
BRANCH   9  11
HETATM   11  C8  UNL     1      24.536   1.754  52.482  1.00  0.00     0.216 A 
HETATM   12  N2  UNL     1      25.599   1.146  52.165  1.00  0.00     0.119 N 
HETATM   13  C9  UNL     1      26.104  -0.069  52.589  1.00  0.00     0.385 A 
HETATM   14  N3  UNL     1      26.924   0.510  51.669  1.00  0.00    -0.024 NA
HETATM   15  C10 UNL     1      26.391   1.707  51.274  1.00  0.00     0.281 A 
HETATM   16  S1  UNL     1      25.800   2.986  50.869  1.00  0.00    -0.063 SA
HETATM   17  C11 UNL     1      25.065   4.514  50.401  1.00  0.00     0.099 A 
HETATM   18  C20 UNL     1      24.343   3.869  51.284  1.00  0.00     0.087 A 
HETATM   19  C12 UNL     1      26.266   4.463  49.632  1.00  0.00     0.189 A 
HETATM   20  O1  UNL     1      27.148   3.575  49.602  1.00  0.00    -0.309 OA
HETATM   21  C21 UNL     1      23.744   2.964  52.249  1.00  0.00     0.104 A 
BRANCH  19  22
HETATM   22  C13 UNL     1      26.338   5.667  48.830  1.00  0.00     0.082 A 
HETATM   23  C14 UNL     1      27.534   6.113  48.483  1.00  0.00     0.173 A 
HETATM   24  O2  UNL     1      27.463   7.250  47.730  1.00  0.00    -0.303 OA
HETATM   25  C15 UNL     1      26.139   7.606  47.547  1.00  0.00     0.155 A 
HETATM   26  C16 UNL     1      25.600   8.623  46.894  1.00  0.00     0.120 C 
HETATM   27  N4  UNL     1      25.436   6.594  48.250  1.00  0.00    -0.335 N 
HETATM   28  H12 UNL     1      24.407   6.448  48.390  1.00  0.00     0.168 HD
BRANCH  26  29
HETATM   29  C17 UNL     1      26.505   9.535  46.249  1.00  0.00    -0.075 C 
HETATM   30  C18 UNL     1      27.266  10.320  45.719  1.00  0.00    -0.106 C 
HETATM   31  C19 UNL     1      28.166  11.273  45.066  1.00  0.00     0.112 C 
ENDBRANCH  26  29
ENDBRANCH  19  22
ENDBRANCH   9  11
ENDBRANCH   7   9
TORSDOF 4
ENDMDL
MODEL 8
REMARK VINA RESULT:      -8.2      2.059      9.975
REMARK  4 active torsions:
REMARK  status: ('A' for Active; 'I' for Inactive)
REMARK    1  A    between atoms: C7_7  and  N1_8 
REMARK    2  A    between atoms: N1_8  and  C8_9 
REMARK    3  A    between atoms: C12_16  and  C13_18 
REMARK    4  A    between atoms: C16_22  and  C17_23 
ROOT
HETATM    1  C1  UNL     1      24.088   8.882  48.572  1.00  0.00     0.018 C 
HETATM    2  C2  UNL     1      24.926   8.004  48.613  1.00  0.00    -0.078 C 
HETATM    3  C3  UNL     1      25.919   6.980  48.640  1.00  0.00     0.019 A 
HETATM    4  C4  UNL     1      27.094   7.104  47.905  1.00  0.00     0.021 A 
HETATM    5  C5  UNL     1      28.099   6.181  47.867  1.00  0.00     0.004 A 
HETATM    6  C6  UNL     1      27.886   5.039  48.644  1.00  0.00     0.029 A 
HETATM    7  C7  UNL     1      26.737   4.821  49.416  1.00  0.00     0.034 A 
HETATM    8  C22 UNL     1      25.757   5.822  49.395  1.00  0.00     0.050 A 
ENDROOT
BRANCH   7   9
HETATM    9  N1  UNL     1      26.632   3.626  50.168  1.00  0.00    -0.338 N 
HETATM   10  H5  UNL     1      27.683   3.456  50.128  1.00  0.00     0.167 HD
BRANCH   9  11
HETATM   11  C8  UNL     1      25.631   2.842  50.794  1.00  0.00     0.216 A 
HETATM   12  N2  UNL     1      26.139   2.288  51.812  1.00  0.00     0.119 N 
HETATM   13  C9  UNL     1      27.419   2.350  52.329  1.00  0.00     0.385 A 
HETATM   14  N3  UNL     1      26.618   1.560  53.095  1.00  0.00    -0.024 NA
HETATM   15  C10 UNL     1      25.363   1.523  52.552  1.00  0.00     0.281 A 
HETATM   16  S1  UNL     1      24.026   1.500  51.952  1.00  0.00    -0.063 SA
HETATM   17  C11 UNL     1      22.431   1.493  51.209  1.00  0.00     0.099 A 
HETATM   18  C20 UNL     1      23.282   2.239  50.547  1.00  0.00     0.087 A 
HETATM   19  C12 UNL     1      22.281   0.646  52.347  1.00  0.00     0.189 A 
HETATM   20  O1  UNL     1      23.130   0.323  53.208  1.00  0.00    -0.309 OA
HETATM   21  C21 UNL     1      24.403   2.988  50.009  1.00  0.00     0.104 A 
BRANCH  19  22
HETATM   22  C13 UNL     1      20.912   0.173  52.378  1.00  0.00     0.082 A 
HETATM   23  C14 UNL     1      20.157   0.384  51.313  1.00  0.00     0.173 A 
HETATM   24  O2  UNL     1      18.893  -0.111  51.469  1.00  0.00    -0.303 OA
HETATM   25  C15 UNL     1      18.774  -0.697  52.716  1.00  0.00     0.155 A 
HETATM   26  C16 UNL     1      17.745  -1.297  53.294  1.00  0.00     0.120 C 
HETATM   27  N4  UNL     1      20.061  -0.511  53.282  1.00  0.00    -0.335 N 
HETATM   28  H12 UNL     1      20.444  -0.791  54.218  1.00  0.00     0.168 HD
BRANCH  26  29
HETATM   29  C17 UNL     1      16.527  -1.375  52.534  1.00  0.00    -0.075 C 
HETATM   30  C18 UNL     1      15.488  -1.430  51.907  1.00  0.00    -0.106 C 
HETATM   31  C19 UNL     1      14.232  -1.519  51.159  1.00  0.00     0.112 C 
ENDBRANCH  26  29
ENDBRANCH  19  22
ENDBRANCH   9  11
ENDBRANCH   7   9
TORSDOF 4
ENDMDL
MODEL 9
REMARK VINA RESULT:      -8.2      4.079     12.772
REMARK  4 active torsions:
REMARK  status: ('A' for Active; 'I' for Inactive)
REMARK    1  A    between atoms: C7_7  and  N1_8 
REMARK    2  A    between atoms: N1_8  and  C8_9 
REMARK    3  A    between atoms: C12_16  and  C13_18 
REMARK    4  A    between atoms: C16_22  and  C17_23 
ROOT
HETATM    1  C1  UNL     1      35.474   5.485  49.331  1.00  0.00     0.018 C 
HETATM    2  C2  UNL     1      34.616   5.755  48.516  1.00  0.00    -0.078 C 
HETATM    3  C3  UNL     1      33.625   6.075  47.541  1.00  0.00     0.019 A 
HETATM    4  C4  UNL     1      33.876   5.904  46.183  1.00  0.00     0.021 A 
HETATM    5  C5  UNL     1      32.993   6.181  45.179  1.00  0.00     0.004 A 
HETATM    6  C6  UNL     1      31.753   6.673  45.598  1.00  0.00     0.029 A 
HETATM    7  C7  UNL     1      31.407   6.880  46.939  1.00  0.00     0.034 A 
HETATM    8  C22 UNL     1      32.374   6.569  47.902  1.00  0.00     0.050 A 
ENDROOT
BRANCH   7   9
HETATM    9  N1  UNL     1      30.117   7.379  47.245  1.00  0.00    -0.338 N 
HETATM   10  H5  UNL     1      30.381   8.369  46.953  1.00  0.00     0.167 HD
BRANCH   9  11
HETATM   11  C8  UNL     1      28.876   6.903  47.738  1.00  0.00     0.216 A 
HETATM   12  N2  UNL     1      28.027   7.835  47.643  1.00  0.00     0.119 N 
HETATM   13  C9  UNL     1      28.154   9.126  47.167  1.00  0.00     0.385 A 
HETATM   14  N3  UNL     1      26.878   8.874  47.569  1.00  0.00    -0.024 NA
HETATM   15  C10 UNL     1      26.792   7.590  48.032  1.00  0.00     0.281 A 
HETATM   16  S1  UNL     1      26.727   6.211  48.524  1.00  0.00    -0.063 SA
HETATM   17  C11 UNL     1      26.679   4.551  49.105  1.00  0.00     0.099 A 
HETATM   18  C20 UNL     1      27.871   4.892  48.682  1.00  0.00     0.087 A 
HETATM   19  C12 UNL     1      25.342   5.015  49.287  1.00  0.00     0.189 A 
HETATM   20  O1  UNL     1      24.853   6.138  49.027  1.00  0.00    -0.309 OA
HETATM   21  C21 UNL     1      29.075   5.514  48.161  1.00  0.00     0.104 A 
BRANCH  19  22
HETATM   22  C13 UNL     1      24.564   3.934  49.856  1.00  0.00     0.082 A 
HETATM   23  C14 UNL     1      24.994   3.380  50.977  1.00  0.00     0.173 A 
HETATM   24  O2  UNL     1      24.173   2.377  51.407  1.00  0.00    -0.303 OA
HETATM   25  C15 UNL     1      23.115   2.233  50.529  1.00  0.00     0.155 A 
HETATM   26  C16 UNL     1      22.088   1.399  50.543  1.00  0.00     0.120 C 
HETATM   27  N4  UNL     1      23.375   3.226  49.550  1.00  0.00    -0.335 N 
HETATM   28  H12 UNL     1      22.841   3.490  48.686  1.00  0.00     0.168 HD
BRANCH  26  29
HETATM   29  C17 UNL     1      22.021   0.468  51.637  1.00  0.00    -0.075 C 
HETATM   30  C18 UNL     1      21.968  -0.303  52.575  1.00  0.00    -0.106 C 
HETATM   31  C19 UNL     1      21.927  -1.238  53.701  1.00  0.00     0.112 C 
ENDBRANCH  26  29
ENDBRANCH  19  22
ENDBRANCH   9  11
ENDBRANCH   7   9
TORSDOF 4
ENDMDL
