MODEL 1
REMARK VINA RESULT:      -7.2      0.000      0.000
REMARK  7 active torsions:
REMARK  status: ('A' for Active; 'I' for Inactive)
REMARK    1  A    between atoms: O1_2  and  C2_3 
REMARK    2  A    between atoms: C4_5  and  O2_6 
REMARK    3  A    between atoms: C9_11  and  N1_12 
REMARK    4  A    between atoms: C9_11  and  N3_17 
REMARK    5  A    between atoms: C10_13  and  N2_14 
REMARK    6  A    between atoms: C10_13  and  O3_15 
REMARK    7  A    between atoms: N3_17  and  C13_19 
ROOT
HETATM    1  C2  UNL     1      21.656   0.754  50.991  1.00  0.00     0.052 A 
HETATM    2  C3  UNL     1      21.020   0.078  51.921  1.00  0.00     0.069 A 
HETATM    3  C4  UNL     1      21.784  -0.282  53.088  1.00  0.00     0.077 A 
HETATM    4  C6  UNL     1      23.063   0.049  53.219  1.00  0.00    -0.018 A 
HETATM    5  C7  UNL     1      23.749  -0.363  54.442  1.00  0.00     0.052 C 
HETATM    6  C8  UNL     1      23.800   0.794  52.205  1.00  0.00     0.003 A 
HETATM    7  C9  UNL     1      25.063   1.152  52.248  1.00  0.00     0.141 C 
HETATM    8  C19 UNL     1      23.044   1.188  50.990  1.00  0.00     0.107 A 
ENDROOT
BRANCH   7   9
HETATM    9  N1  UNL     1      25.637   1.880  51.174  1.00  0.00    -0.191 NA
HETATM   10  C10 UNL     1      25.556   3.116  50.929  1.00  0.00     0.240 C 
BRANCH  10  11
HETATM   11  N2  UNL     1      24.948   4.303  51.484  1.00  0.00    -0.364 N 
HETATM   12  H11 UNL     1      24.143   4.904  51.232  1.00  0.00     0.159 HD
HETATM   13  H12 UNL     1      25.299   4.792  52.358  1.00  0.00     0.159 HD
ENDBRANCH  10  11
BRANCH  10  14
HETATM   14  O3  UNL     1      26.272   3.429  49.766  1.00  0.00    -0.326 OA
HETATM   15  C11 UNL     1      26.376   4.764  49.262  1.00  0.00     0.213 C 
ENDBRANCH  10  14
ENDBRANCH   7   9
BRANCH   7  16
HETATM   16  N3  UNL     1      26.094   0.987  53.172  1.00  0.00    -0.336 N 
HETATM   17  C12 UNL     1      26.323   1.993  54.225  1.00  0.00     0.158 C 
BRANCH  16  18
HETATM   18  C13 UNL     1      26.949  -0.173  53.090  1.00  0.00     0.035 A 
HETATM   19  C14 UNL     1      26.548  -1.408  52.562  1.00  0.00     0.029 A 
HETATM   20  C15 UNL     1      27.443  -2.460  52.528  1.00  0.00     0.002 A 
HETATM   21  C16 UNL     1      28.731  -2.327  53.003  1.00  0.00     0.000 A 
HETATM   22  C17 UNL     1      29.143  -1.120  53.525  1.00  0.00     0.002 A 
HETATM   23  C18 UNL     1      28.245  -0.073  53.557  1.00  0.00     0.029 A 
ENDBRANCH  16  18
ENDBRANCH   7  16
BRANCH   3  24
HETATM   24  O2  UNL     1      21.154  -1.007  54.121  1.00  0.00    -0.355 OA
HETATM   25  C5  UNL     1      19.801  -1.369  53.871  1.00  0.00     0.210 C 
ENDBRANCH   3  24
BRANCH   1  26
HETATM   26  O1  UNL     1      20.867   1.070  49.897  1.00  0.00    -0.360 OA
HETATM   27  C1  UNL     1      21.479   1.669  48.780  1.00  0.00     0.209 C 
ENDBRANCH   1  26
TORSDOF 7
ENDMDL
MODEL 2
REMARK VINA RESULT:      -7.1      2.744      7.236
REMARK  7 active torsions:
REMARK  status: ('A' for Active; 'I' for Inactive)
REMARK    1  A    between atoms: O1_2  and  C2_3 
REMARK    2  A    between atoms: C4_5  and  O2_6 
REMARK    3  A    between atoms: C9_11  and  N1_12 
REMARK    4  A    between atoms: C9_11  and  N3_17 
REMARK    5  A    between atoms: C10_13  and  N2_14 
REMARK    6  A    between atoms: C10_13  and  O3_15 
REMARK    7  A    between atoms: N3_17  and  C13_19 
ROOT
HETATM    1  C2  UNL     1      27.765   5.173  48.603  1.00  0.00     0.052 A 
HETATM    2  C3  UNL     1      27.205   6.290  48.193  1.00  0.00     0.069 A 
HETATM    3  C4  UNL     1      25.836   6.504  48.588  1.00  0.00     0.077 A 
HETATM    4  C6  UNL     1      25.172   5.621  49.323  1.00  0.00    -0.018 A 
HETATM    5  C7  UNL     1      23.787   5.932  49.670  1.00  0.00     0.052 C 
HETATM    6  C8  UNL     1      25.760   4.370  49.790  1.00  0.00     0.003 A 
HETATM    7  C9  UNL     1      25.175   3.441  50.509  1.00  0.00     0.141 C 
HETATM    8  C19 UNL     1      27.172   4.118  49.408  1.00  0.00     0.107 A 
ENDROOT
BRANCH   7   9
HETATM    9  N1  UNL     1      25.887   2.273  50.885  1.00  0.00    -0.191 NA
HETATM   10  C10 UNL     1      26.413   1.997  52.000  1.00  0.00     0.240 C 
BRANCH  10  11
HETATM   11  N2  UNL     1      26.574   2.588  53.309  1.00  0.00    -0.364 N 
HETATM   12  H11 UNL     1      26.799   3.534  53.666  1.00  0.00     0.159 HD
HETATM   13  H12 UNL     1      26.467   2.049  54.216  1.00  0.00     0.159 HD
ENDBRANCH  10  11
BRANCH  10  14
HETATM   14  O3  UNL     1      27.024   0.737  51.952  1.00  0.00    -0.326 OA
HETATM   15  C11 UNL     1      26.422  -0.432  52.515  1.00  0.00     0.213 C 
ENDBRANCH  10  14
ENDBRANCH   7   9
BRANCH   7  16
HETATM   16  N3  UNL     1      23.902   3.285  51.057  1.00  0.00    -0.336 N 
HETATM   17  C12 UNL     1      23.524   4.007  52.286  1.00  0.00     0.158 C 
BRANCH  16  18
HETATM   18  C13 UNL     1      22.951   2.407  50.420  1.00  0.00     0.035 A 
HETATM   19  C14 UNL     1      22.668   2.418  49.046  1.00  0.00     0.029 A 
HETATM   20  C15 UNL     1      21.739   1.534  48.532  1.00  0.00     0.002 A 
HETATM   21  C16 UNL     1      21.077   0.633  49.339  1.00  0.00     0.000 A 
HETATM   22  C17 UNL     1      21.343   0.607  50.691  1.00  0.00     0.002 A 
HETATM   23  C18 UNL     1      22.271   1.492  51.200  1.00  0.00     0.029 A 
ENDBRANCH  16  18
ENDBRANCH   7  16
BRANCH   3  24
HETATM   24  O2  UNL     1      25.183   7.685  48.179  1.00  0.00    -0.355 OA
HETATM   25  C5  UNL     1      25.448   8.094  46.842  1.00  0.00     0.210 C 
ENDBRANCH   3  24
BRANCH   1  26
HETATM   26  O1  UNL     1      29.080   5.029  48.191  1.00  0.00    -0.360 OA
HETATM   27  C1  UNL     1      29.921   6.156  48.231  1.00  0.00     0.209 C 
ENDBRANCH   1  26
TORSDOF 7
ENDMDL
MODEL 3
REMARK VINA RESULT:      -7.0      2.148      5.483
REMARK  7 active torsions:
REMARK  status: ('A' for Active; 'I' for Inactive)
REMARK    1  A    between atoms: O1_2  and  C2_3 
REMARK    2  A    between atoms: C4_5  and  O2_6 
REMARK    3  A    between atoms: C9_11  and  N1_12 
REMARK    4  A    between atoms: C9_11  and  N3_17 
REMARK    5  A    between atoms: C10_13  and  N2_14 
REMARK    6  A    between atoms: C10_13  and  O3_15 
REMARK    7  A    between atoms: N3_17  and  C13_19 
ROOT
HETATM    1  C2  UNL     1      26.586  -0.366  52.730  1.00  0.00     0.052 A 
HETATM    2  C3  UNL     1      25.696  -0.871  53.555  1.00  0.00     0.069 A 
HETATM    3  C4  UNL     1      24.403  -0.236  53.570  1.00  0.00     0.077 A 
HETATM    4  C6  UNL     1      24.122   0.803  52.794  1.00  0.00    -0.018 A 
HETATM    5  C7  UNL     1      22.780   1.374  52.884  1.00  0.00     0.052 C 
HETATM    6  C8  UNL     1      25.087   1.391  51.871  1.00  0.00     0.003 A 
HETATM    7  C9  UNL     1      24.898   2.421  51.080  1.00  0.00     0.141 C 
HETATM    8  C19 UNL     1      26.430   0.761  51.824  1.00  0.00     0.107 A 
ENDROOT
BRANCH   7   9
HETATM    9  N1  UNL     1      25.943   2.876  50.235  1.00  0.00    -0.191 NA
HETATM   10  C10 UNL     1      26.321   4.061  50.020  1.00  0.00     0.240 C 
BRANCH  10  11
HETATM   11  N2  UNL     1      25.984   5.407  50.424  1.00  0.00    -0.364 N 
HETATM   12  H11 UNL     1      26.207   6.357  50.076  1.00  0.00     0.159 HD
HETATM   13  H12 UNL     1      25.370   5.636  51.258  1.00  0.00     0.159 HD
ENDBRANCH  10  11
BRANCH  10  14
HETATM   14  O3  UNL     1      27.391   4.074  49.115  1.00  0.00    -0.326 OA
HETATM   15  C11 UNL     1      27.839   5.269  48.468  1.00  0.00     0.213 C 
ENDBRANCH  10  14
ENDBRANCH   7   9
BRANCH   7  16
HETATM   16  N3  UNL     1      23.825   3.275  50.826  1.00  0.00    -0.336 N 
HETATM   17  C12 UNL     1      23.409   4.271  51.830  1.00  0.00     0.158 C 
BRANCH  16  18
HETATM   18  C13 UNL     1      23.112   3.176  49.575  1.00  0.00     0.035 A 
HETATM   19  C14 UNL     1      22.969   4.235  48.667  1.00  0.00     0.029 A 
HETATM   20  C15 UNL     1      22.267   4.039  47.493  1.00  0.00     0.002 A 
HETATM   21  C16 UNL     1      21.698   2.821  47.188  1.00  0.00     0.000 A 
HETATM   22  C17 UNL     1      21.827   1.769  48.069  1.00  0.00     0.002 A 
HETATM   23  C18 UNL     1      22.530   1.969  49.240  1.00  0.00     0.029 A 
ENDBRANCH  16  18
ENDBRANCH   7  16
BRANCH   3  24
HETATM   24  O2  UNL     1      23.406  -0.736  54.435  1.00  0.00    -0.355 OA
HETATM   25  C5  UNL     1      23.886  -1.323  55.639  1.00  0.00     0.210 C 
ENDBRANCH   3  24
BRANCH   1  26
HETATM   26  O1  UNL     1      27.807  -1.020  52.762  1.00  0.00    -0.360 OA
HETATM   27  C1  UNL     1      28.843  -0.465  53.535  1.00  0.00     0.209 C 
ENDBRANCH   1  26
TORSDOF 7
ENDMDL
MODEL 4
REMARK VINA RESULT:      -6.7      2.696      6.264
REMARK  7 active torsions:
REMARK  status: ('A' for Active; 'I' for Inactive)
REMARK    1  A    between atoms: O1_2  and  C2_3 
REMARK    2  A    between atoms: C4_5  and  O2_6 
REMARK    3  A    between atoms: C9_11  and  N1_12 
REMARK    4  A    between atoms: C9_11  and  N3_17 
REMARK    5  A    between atoms: C10_13  and  N2_14 
REMARK    6  A    between atoms: C10_13  and  O3_15 
REMARK    7  A    between atoms: N3_17  and  C13_19 
ROOT
HETATM    1  C2  UNL     1      23.086  -0.175  53.790  1.00  0.00     0.052 A 
HETATM    2  C3  UNL     1      24.327  -0.537  53.549  1.00  0.00     0.069 A 
HETATM    3  C4  UNL     1      25.081   0.309  52.660  1.00  0.00     0.077 A 
HETATM    4  C6  UNL     1      24.554   1.397  52.112  1.00  0.00    -0.018 A 
HETATM    5  C7  UNL     1      25.403   2.189  51.225  1.00  0.00     0.052 C 
HETATM    6  C8  UNL     1      23.181   1.825  52.354  1.00  0.00     0.003 A 
HETATM    7  C9  UNL     1      22.579   2.876  51.847  1.00  0.00     0.141 C 
HETATM    8  C19 UNL     1      22.373   0.980  53.269  1.00  0.00     0.107 A 
ENDROOT
BRANCH   7   9
HETATM    9  N1  UNL     1      21.230   3.159  52.183  1.00  0.00    -0.191 NA
HETATM   10  C10 UNL     1      20.177   2.657  51.700  1.00  0.00     0.240 C 
BRANCH  10  11
HETATM   11  N2  UNL     1      19.786   1.683  50.707  1.00  0.00    -0.364 N 
HETATM   12  H11 UNL     1      19.195   1.696  49.856  1.00  0.00     0.159 HD
HETATM   13  H12 UNL     1      20.100   0.670  50.719  1.00  0.00     0.159 HD
ENDBRANCH  10  11
BRANCH  10  14
HETATM   14  O3  UNL     1      19.046   3.214  52.312  1.00  0.00    -0.326 OA
HETATM   15  C11 UNL     1      17.861   3.548  51.583  1.00  0.00     0.213 C 
ENDBRANCH  10  14
ENDBRANCH   7   9
BRANCH   7  16
HETATM   16  N3  UNL     1      22.959   3.894  50.973  1.00  0.00    -0.336 N 
HETATM   17  C12 UNL     1      23.598   5.120  51.486  1.00  0.00     0.158 C 
BRANCH  16  18
HETATM   18  C13 UNL     1      22.720   3.748  49.558  1.00  0.00     0.035 A 
HETATM   19  C14 UNL     1      22.665   2.515  48.893  1.00  0.00     0.029 A 
HETATM   20  C15 UNL     1      22.428   2.482  47.532  1.00  0.00     0.002 A 
HETATM   21  C16 UNL     1      22.243   3.638  46.804  1.00  0.00     0.000 A 
HETATM   22  C17 UNL     1      22.293   4.859  47.440  1.00  0.00     0.002 A 
HETATM   23  C18 UNL     1      22.529   4.887  48.799  1.00  0.00     0.029 A 
ENDBRANCH  16  18
ENDBRANCH   7  16
BRANCH   3  24
HETATM   24  O2  UNL     1      26.418  -0.029  52.365  1.00  0.00    -0.355 OA
HETATM   25  C5  UNL     1      26.799  -1.356  52.707  1.00  0.00     0.210 C 
ENDBRANCH   3  24
BRANCH   1  26
HETATM   26  O1  UNL     1      22.416  -1.029  54.651  1.00  0.00    -0.360 OA
HETATM   27  C1  UNL     1      21.168  -1.539  54.250  1.00  0.00     0.209 C 
ENDBRANCH   1  26
TORSDOF 7
ENDMDL
MODEL 5
REMARK VINA RESULT:      -6.7      2.323      5.578
REMARK  7 active torsions:
REMARK  status: ('A' for Active; 'I' for Inactive)
REMARK    1  A    between atoms: O1_2  and  C2_3 
REMARK    2  A    between atoms: C4_5  and  O2_6 
REMARK    3  A    between atoms: C9_11  and  N1_12 
REMARK    4  A    between atoms: C9_11  and  N3_17 
REMARK    5  A    between atoms: C10_13  and  N2_14 
REMARK    6  A    between atoms: C10_13  and  O3_15 
REMARK    7  A    between atoms: N3_17  and  C13_19 
ROOT
HETATM    1  C2  UNL     1      22.045  -1.018  54.396  1.00  0.00     0.052 A 
HETATM    2  C3  UNL     1      20.743  -1.198  54.422  1.00  0.00     0.069 A 
HETATM    3  C4  UNL     1      19.984  -0.545  53.387  1.00  0.00     0.077 A 
HETATM    4  C6  UNL     1      20.565   0.201  52.456  1.00  0.00    -0.018 A 
HETATM    5  C7  UNL     1      19.706   0.820  51.449  1.00  0.00     0.052 C 
HETATM    6  C8  UNL     1      22.005   0.426  52.399  1.00  0.00     0.003 A 
HETATM    7  C9  UNL     1      22.658   1.154  51.524  1.00  0.00     0.141 C 
HETATM    8  C19 UNL     1      22.822  -0.236  53.447  1.00  0.00     0.107 A 
ENDROOT
BRANCH   7   9
HETATM    9  N1  UNL     1      24.070   1.275  51.605  1.00  0.00    -0.191 NA
HETATM   10  C10 UNL     1      24.752   2.067  52.312  1.00  0.00     0.240 C 
BRANCH  10  11
HETATM   11  N2  UNL     1      24.549   3.123  53.277  1.00  0.00    -0.364 N 
HETATM   12  H11 UNL     1      24.945   3.358  54.205  1.00  0.00     0.159 HD
HETATM   13  H12 UNL     1      23.862   3.920  53.142  1.00  0.00     0.159 HD
ENDBRANCH  10  11
BRANCH  10  14
HETATM   14  O3  UNL     1      26.121   1.858  52.094  1.00  0.00    -0.326 OA
HETATM   15  C11 UNL     1      26.709   0.554  52.086  1.00  0.00     0.213 C 
ENDBRANCH  10  14
ENDBRANCH   7   9
BRANCH   7  16
HETATM   16  N3  UNL     1      22.288   1.921  50.420  1.00  0.00    -0.336 N 
HETATM   17  C12 UNL     1      21.933   1.271  49.145  1.00  0.00     0.158 C 
BRANCH  16  18
HETATM   18  C13 UNL     1      22.260   3.360  50.524  1.00  0.00     0.035 A 
HETATM   19  C14 UNL     1      21.567   4.062  51.521  1.00  0.00     0.029 A 
HETATM   20  C15 UNL     1      21.603   5.443  51.535  1.00  0.00     0.002 A 
HETATM   21  C16 UNL     1      22.307   6.155  50.587  1.00  0.00     0.000 A 
HETATM   22  C17 UNL     1      22.993   5.483  49.600  1.00  0.00     0.002 A 
HETATM   23  C18 UNL     1      22.955   4.103  49.590  1.00  0.00     0.029 A 
ENDBRANCH  16  18
ENDBRANCH   7  16
BRANCH   3  24
HETATM   24  O2  UNL     1      18.583  -0.703  53.364  1.00  0.00    -0.355 OA
HETATM   25  C5  UNL     1      18.120  -2.040  53.517  1.00  0.00     0.210 C 
ENDBRANCH   3  24
BRANCH   1  26
HETATM   26  O1  UNL     1      22.717  -1.672  55.416  1.00  0.00    -0.360 OA
HETATM   27  C1  UNL     1      24.060  -1.330  55.660  1.00  0.00     0.209 C 
ENDBRANCH   1  26
TORSDOF 7
ENDMDL
MODEL 6
REMARK VINA RESULT:      -6.6      2.729      6.044
REMARK  7 active torsions:
REMARK  status: ('A' for Active; 'I' for Inactive)
REMARK    1  A    between atoms: O1_2  and  C2_3 
REMARK    2  A    between atoms: C4_5  and  O2_6 
REMARK    3  A    between atoms: C9_11  and  N1_12 
REMARK    4  A    between atoms: C9_11  and  N3_17 
REMARK    5  A    between atoms: C10_13  and  N2_14 
REMARK    6  A    between atoms: C10_13  and  O3_15 
REMARK    7  A    between atoms: N3_17  and  C13_19 
ROOT
HETATM    1  C2  UNL     1      25.777   0.968  52.827  1.00  0.00     0.052 A 
HETATM    2  C3  UNL     1      24.775   0.436  53.491  1.00  0.00     0.069 A 
HETATM    3  C4  UNL     1      23.454   0.705  52.983  1.00  0.00     0.077 A 
HETATM    4  C6  UNL     1      23.256   1.451  51.903  1.00  0.00    -0.018 A 
HETATM    5  C7  UNL     1      21.876   1.663  51.469  1.00  0.00     0.052 C 
HETATM    6  C8  UNL     1      24.343   2.060  51.146  1.00  0.00     0.003 A 
HETATM    7  C9  UNL     1      24.236   2.817  50.079  1.00  0.00     0.141 C 
HETATM    8  C19 UNL     1      25.720   1.801  51.636  1.00  0.00     0.107 A 
ENDROOT
BRANCH   7   9
HETATM    9  N1  UNL     1      25.398   3.338  49.452  1.00  0.00    -0.191 NA
HETATM   10  C10 UNL     1      25.949   4.461  49.625  1.00  0.00     0.240 C 
BRANCH  10  11
HETATM   11  N2  UNL     1      25.765   5.659  50.411  1.00  0.00    -0.364 N 
HETATM   12  H11 UNL     1      25.080   5.976  51.120  1.00  0.00     0.159 HD
HETATM   13  H12 UNL     1      26.405   6.504  50.357  1.00  0.00     0.159 HD
ENDBRANCH  10  11
BRANCH  10  14
HETATM   14  O3  UNL     1      27.080   4.580  48.806  1.00  0.00    -0.326 OA
HETATM   15  C11 UNL     1      27.644   5.845  48.452  1.00  0.00     0.213 C 
ENDBRANCH  10  14
ENDBRANCH   7   9
BRANCH   7  16
HETATM   16  N3  UNL     1      23.167   3.293  49.321  1.00  0.00    -0.336 N 
HETATM   17  C12 UNL     1      22.638   2.501  48.195  1.00  0.00     0.158 C 
BRANCH  16  18
HETATM   18  C13 UNL     1      22.579   4.573  49.636  1.00  0.00     0.035 A 
HETATM   19  C14 UNL     1      22.314   5.016  50.940  1.00  0.00     0.029 A 
HETATM   20  C15 UNL     1      21.749   6.261  51.137  1.00  0.00     0.002 A 
HETATM   21  C16 UNL     1      21.436   7.086  50.079  1.00  0.00     0.000 A 
HETATM   22  C17 UNL     1      21.689   6.668  48.790  1.00  0.00     0.002 A 
HETATM   23  C18 UNL     1      22.254   5.424  48.598  1.00  0.00     0.029 A 
ENDBRANCH  16  18
ENDBRANCH   7  16
BRANCH   3  24
HETATM   24  O2  UNL     1      22.340   0.158  53.653  1.00  0.00    -0.355 OA
HETATM   25  C5  UNL     1      22.617  -0.975  54.468  1.00  0.00     0.210 C 
ENDBRANCH   3  24
BRANCH   1  26
HETATM   26  O1  UNL     1      27.019   0.672  53.365  1.00  0.00    -0.360 OA
HETATM   27  C1  UNL     1      27.079   0.202  54.690  1.00  0.00     0.209 C 
ENDBRANCH   1  26
TORSDOF 7
ENDMDL
MODEL 7
REMARK VINA RESULT:      -6.5      2.016      5.521
REMARK  7 active torsions:
REMARK  status: ('A' for Active; 'I' for Inactive)
REMARK    1  A    between atoms: O1_2  and  C2_3 
REMARK    2  A    between atoms: C4_5  and  O2_6 
REMARK    3  A    between atoms: C9_11  and  N1_12 
REMARK    4  A    between atoms: C9_11  and  N3_17 
REMARK    5  A    between atoms: C10_13  and  N2_14 
REMARK    6  A    between atoms: C10_13  and  O3_15 
REMARK    7  A    between atoms: N3_17  and  C13_19 
ROOT
HETATM    1  C2  UNL     1      22.051   0.098  52.452  1.00  0.00     0.052 A 
HETATM    2  C3  UNL     1      21.180   0.132  51.468  1.00  0.00     0.069 A 
HETATM    3  C4  UNL     1      21.496   0.996  50.360  1.00  0.00     0.077 A 
HETATM    4  C6  UNL     1      22.607   1.721  50.331  1.00  0.00    -0.018 A 
HETATM    5  C7  UNL     1      22.836   2.565  49.160  1.00  0.00     0.052 C 
HETATM    6  C8  UNL     1      23.593   1.712  51.406  1.00  0.00     0.003 A 
HETATM    7  C9  UNL     1      24.707   2.403  51.464  1.00  0.00     0.141 C 
HETATM    8  C19 UNL     1      23.303   0.829  52.564  1.00  0.00     0.107 A 
ENDROOT
BRANCH   7   9
HETATM    9  N1  UNL     1      25.566   2.282  52.587  1.00  0.00    -0.191 NA
HETATM   10  C10 UNL     1      26.455   1.412  52.807  1.00  0.00     0.240 C 
BRANCH  10  11
HETATM   11  N2  UNL     1      27.021   0.244  52.175  1.00  0.00    -0.364 N 
HETATM   12  H11 UNL     1      27.965  -0.031  51.847  1.00  0.00     0.159 HD
HETATM   13  H12 UNL     1      26.460  -0.621  51.923  1.00  0.00     0.159 HD
ENDBRANCH  10  11
BRANCH  10  14
HETATM   14  O3  UNL     1      27.078   1.655  54.038  1.00  0.00    -0.326 OA
HETATM   15  C11 UNL     1      28.244   0.944  54.464  1.00  0.00     0.213 C 
ENDBRANCH  10  14
ENDBRANCH   7   9
BRANCH   7  16
HETATM   16  N3  UNL     1      25.333   3.321  50.621  1.00  0.00    -0.336 N 
HETATM   17  C12 UNL     1      26.391   2.882  49.692  1.00  0.00     0.158 C 
BRANCH  16  18
HETATM   18  C13 UNL     1      24.947   4.711  50.664  1.00  0.00     0.035 A 
HETATM   19  C14 UNL     1      23.929   5.218  51.483  1.00  0.00     0.029 A 
HETATM   20  C15 UNL     1      23.635   6.568  51.452  1.00  0.00     0.002 A 
HETATM   21  C16 UNL     1      24.321   7.436  50.630  1.00  0.00     0.000 A 
HETATM   22  C17 UNL     1      25.325   6.956  49.818  1.00  0.00     0.002 A 
HETATM   23  C18 UNL     1      25.615   5.607  49.853  1.00  0.00     0.029 A 
ENDBRANCH  16  18
ENDBRANCH   7  16
BRANCH   3  24
HETATM   24  O2  UNL     1      20.599   1.072  49.274  1.00  0.00    -0.355 OA
HETATM   25  C5  UNL     1      19.294   1.541  49.597  1.00  0.00     0.210 C 
ENDBRANCH   3  24
BRANCH   1  26
HETATM   26  O1  UNL     1      21.689  -0.751  53.485  1.00  0.00    -0.360 OA
HETATM   27  C1  UNL     1      22.594  -0.936  54.547  1.00  0.00     0.209 C 
ENDBRANCH   1  26
TORSDOF 7
ENDMDL
MODEL 8
REMARK VINA RESULT:      -6.5      5.757     10.071
REMARK  7 active torsions:
REMARK  status: ('A' for Active; 'I' for Inactive)
REMARK    1  A    between atoms: O1_2  and  C2_3 
REMARK    2  A    between atoms: C4_5  and  O2_6 
REMARK    3  A    between atoms: C9_11  and  N1_12 
REMARK    4  A    between atoms: C9_11  and  N3_17 
REMARK    5  A    between atoms: C10_13  and  N2_14 
REMARK    6  A    between atoms: C10_13  and  O3_15 
REMARK    7  A    between atoms: N3_17  and  C13_19 
ROOT
HETATM    1  C2  UNL     1      27.223   4.851  48.923  1.00  0.00     0.052 A 
HETATM    2  C3  UNL     1      26.115   5.554  48.829  1.00  0.00     0.069 A 
HETATM    3  C4  UNL     1      26.224   6.840  48.189  1.00  0.00     0.077 A 
HETATM    4  C6  UNL     1      27.378   7.295  47.719  1.00  0.00    -0.018 A 
HETATM    5  C7  UNL     1      27.381   8.612  47.086  1.00  0.00     0.052 C 
HETATM    6  C8  UNL     1      28.626   6.545  47.810  1.00  0.00     0.003 A 
HETATM    7  C9  UNL     1      29.808   6.922  47.383  1.00  0.00     0.141 C 
HETATM    8  C19 UNL     1      28.553   5.212  48.459  1.00  0.00     0.107 A 
ENDROOT
BRANCH   7   9
HETATM    9  N1  UNL     1      30.933   6.072  47.547  1.00  0.00    -0.191 NA
HETATM   10  C10 UNL     1      31.604   5.849  48.593  1.00  0.00     0.240 C 
BRANCH  10  11
HETATM   11  N2  UNL     1      31.628   6.245  49.982  1.00  0.00    -0.364 N 
HETATM   12  H11 UNL     1      31.715   5.749  50.887  1.00  0.00     0.159 HD
HETATM   13  H12 UNL     1      31.547   7.251  50.309  1.00  0.00     0.159 HD
ENDBRANCH  10  11
BRANCH  10  14
HETATM   14  O3  UNL     1      32.638   4.942  48.323  1.00  0.00    -0.326 OA
HETATM   15  C11 UNL     1      32.457   3.796  47.486  1.00  0.00     0.213 C 
ENDBRANCH  10  14
ENDBRANCH   7   9
BRANCH   7  16
HETATM   16  N3  UNL     1      30.299   8.060  46.744  1.00  0.00    -0.336 N 
HETATM   17  C12 UNL     1      30.628   8.026  45.307  1.00  0.00     0.158 C 
BRANCH  16  18
HETATM   18  C13 UNL     1      30.494   9.276  47.496  1.00  0.00     0.035 A 
HETATM   19  C14 UNL     1      30.465   9.347  48.896  1.00  0.00     0.029 A 
HETATM   20  C15 UNL     1      30.664  10.562  49.523  1.00  0.00     0.002 A 
HETATM   21  C16 UNL     1      30.892  11.715  48.804  1.00  0.00     0.000 A 
HETATM   22  C17 UNL     1      30.925  11.665  47.427  1.00  0.00     0.002 A 
HETATM   23  C18 UNL     1      30.725  10.450  46.805  1.00  0.00     0.029 A 
ENDBRANCH  16  18
ENDBRANCH   7  16
BRANCH   3  24
HETATM   24  O2  UNL     1      25.067   7.638  48.059  1.00  0.00    -0.355 OA
HETATM   25  C5  UNL     1      24.401   7.944  49.279  1.00  0.00     0.210 C 
ENDBRANCH   3  24
BRANCH   1  26
HETATM   26  O1  UNL     1      27.052   3.626  49.547  1.00  0.00    -0.360 OA
HETATM   27  C1  UNL     1      25.901   3.430  50.332  1.00  0.00     0.209 C 
ENDBRANCH   1  26
TORSDOF 7
ENDMDL
MODEL 9
REMARK VINA RESULT:      -6.3      3.775      7.279
REMARK  7 active torsions:
REMARK  status: ('A' for Active; 'I' for Inactive)
REMARK    1  A    between atoms: O1_2  and  C2_3 
REMARK    2  A    between atoms: C4_5  and  O2_6 
REMARK    3  A    between atoms: C9_11  and  N1_12 
REMARK    4  A    between atoms: C9_11  and  N3_17 
REMARK    5  A    between atoms: C10_13  and  N2_14 
REMARK    6  A    between atoms: C10_13  and  O3_15 
REMARK    7  A    between atoms: N3_17  and  C13_19 
ROOT
HETATM    1  C2  UNL     1      26.031   7.383  48.489  1.00  0.00     0.052 A 
HETATM    2  C3  UNL     1      27.222   6.828  48.481  1.00  0.00     0.069 A 
HETATM    3  C4  UNL     1      27.275   5.418  48.775  1.00  0.00     0.077 A 
HETATM    4  C6  UNL     1      26.181   4.716  49.041  1.00  0.00    -0.018 A 
HETATM    5  C7  UNL     1      26.342   3.291  49.326  1.00  0.00     0.052 C 
HETATM    6  C8  UNL     1      24.845   5.300  49.063  1.00  0.00     0.003 A 
HETATM    7  C9  UNL     1      23.716   4.684  49.325  1.00  0.00     0.141 C 
HETATM    8  C19 UNL     1      24.750   6.750  48.759  1.00  0.00     0.107 A 
ENDROOT
BRANCH   7   9
HETATM    9  N1  UNL     1      22.490   5.397  49.305  1.00  0.00    -0.191 NA
HETATM   10  C10 UNL     1      21.984   6.117  50.211  1.00  0.00     0.240 C 
BRANCH  10  11
HETATM   11  N2  UNL     1      22.288   6.561  51.552  1.00  0.00    -0.364 N 
HETATM   12  H11 UNL     1      21.867   6.419  52.488  1.00  0.00     0.159 HD
HETATM   13  H12 UNL     1      23.109   7.190  51.793  1.00  0.00     0.159 HD
ENDBRANCH  10  11
BRANCH  10  14
HETATM   14  O3  UNL     1      20.757   6.643  49.787  1.00  0.00    -0.326 OA
HETATM   15  C11 UNL     1      20.355   7.986  50.071  1.00  0.00     0.213 C 
ENDBRANCH  10  14
ENDBRANCH   7   9
BRANCH   7  16
HETATM   16  N3  UNL     1      23.372   3.373  49.652  1.00  0.00    -0.336 N 
HETATM   17  C12 UNL     1      22.690   2.511  48.669  1.00  0.00     0.158 C 
BRANCH  16  18
HETATM   18  C13 UNL     1      23.677   2.859  50.966  1.00  0.00     0.035 A 
HETATM   19  C14 UNL     1      24.163   3.643  52.022  1.00  0.00     0.029 A 
HETATM   20  C15 UNL     1      24.424   3.055  53.245  1.00  0.00     0.002 A 
HETATM   21  C16 UNL     1      24.220   1.708  53.456  1.00  0.00     0.000 A 
HETATM   22  C17 UNL     1      23.743   0.922  52.430  1.00  0.00     0.002 A 
HETATM   23  C18 UNL     1      23.483   1.513  51.211  1.00  0.00     0.029 A 
ENDBRANCH  16  18
ENDBRANCH   7  16
BRANCH   3  24
HETATM   24  O2  UNL     1      28.527   4.768  48.781  1.00  0.00    -0.355 OA
HETATM   25  C5  UNL     1      29.599   5.510  48.212  1.00  0.00     0.210 C 
ENDBRANCH   3  24
BRANCH   1  26
HETATM   26  O1  UNL     1      26.048   8.737  48.198  1.00  0.00    -0.360 OA
HETATM   27  C1  UNL     1      27.294   9.372  48.040  1.00  0.00     0.209 C 
ENDBRANCH   1  26
TORSDOF 7
ENDMDL
