MODEL 1
REMARK VINA RESULT:      -8.6      0.000      0.000
REMARK  2 active torsions:
REMARK  status: ('A' for Active; 'I' for Inactive)
REMARK    1  A    between atoms: C5_6  and  O1_7 
REMARK    2  A    between atoms: O1_7  and  C6_8 
ROOT
HETATM    1  C6  UNL     1      26.148   2.492  51.417  1.00  0.00     0.202 A 
HETATM    2  N1  UNL     1      27.341   2.529  52.067  1.00  0.00    -0.215 NA
HETATM    3  C7  UNL     1      27.622   1.535  52.930  1.00  0.00     0.238 A 
HETATM    4  N2  UNL     1      26.817   0.490  53.215  1.00  0.00    -0.215 NA
HETATM    5  C8  UNL     1      25.599   0.394  52.594  1.00  0.00     0.212 A 
HETATM    6  C9  UNL     1      25.337   1.429  51.711  1.00  0.00     0.137 A 
HETATM    7  N3  UNL     1      23.999   1.364  51.140  1.00  0.00    -0.379 N 
HETATM    8  C10 UNL     1      22.756   1.640  51.643  1.00  0.00     0.147 C 
HETATM    9  C11 UNL     1      21.505   1.918  52.150  1.00  0.00    -0.008 C 
HETATM   10  C12 UNL     1      20.885   1.360  53.184  1.00  0.00    -0.005 C 
HETATM   11  C13 UNL     1      21.159   0.338  54.148  1.00  0.00    -0.008 C 
HETATM   12  C14 UNL     1      21.516  -0.602  54.965  1.00  0.00     0.109 C 
HETATM   13  C15 UNL     1      22.693  -0.636  54.219  1.00  0.00    -0.066 C 
HETATM   14  C16 UNL     1      23.669  -0.650  53.583  1.00  0.00     0.062 C 
HETATM   15  O2  UNL     1      24.751  -0.663  52.853  1.00  0.00    -0.238 OA
HETATM   16  H5  UNL     1      24.241   1.052  50.186  1.00  0.00     0.160 HD
ENDROOT
BRANCH   1  17
HETATM   17  O1  UNL     1      25.557   3.309  50.499  1.00  0.00    -0.290 OA
BRANCH  17  18
HETATM   18  C5  UNL     1      26.035   4.424  49.893  1.00  0.00     0.079 A 
HETATM   19  C4  UNL     1      27.151   4.331  49.063  1.00  0.00     0.037 A 
HETATM   20  C3  UNL     1      27.669   5.449  48.432  1.00  0.00     0.004 A 
HETATM   21  C2  UNL     1      27.103   6.699  48.596  1.00  0.00     0.019 A 
HETATM   22  C1  UNL     1      25.999   6.770  49.421  1.00  0.00     0.013 A 
HETATM   23 BR1  UNL     1      25.181   8.479  49.687  1.00  0.00    -0.051 Br
HETATM   24  C17 UNL     1      25.460   5.678  50.064  1.00  0.00     0.056 A 
ENDBRANCH  17  18
ENDBRANCH   1  17
TORSDOF 2
ENDMDL
MODEL 2
REMARK VINA RESULT:      -8.3      2.452      4.060
REMARK  2 active torsions:
REMARK  status: ('A' for Active; 'I' for Inactive)
REMARK    1  A    between atoms: C5_6  and  O1_7 
REMARK    2  A    between atoms: O1_7  and  C6_8 
ROOT
HETATM    1  C6  UNL     1      25.243   4.370  49.434  1.00  0.00     0.202 A 
HETATM    2  N1  UNL     1      24.124   4.795  48.790  1.00  0.00    -0.215 NA
HETATM    3  C7  UNL     1      22.944   4.677  49.426  1.00  0.00     0.238 A 
HETATM    4  N2  UNL     1      22.766   4.168  50.664  1.00  0.00    -0.215 NA
HETATM    5  C8  UNL     1      23.854   3.721  51.367  1.00  0.00     0.212 A 
HETATM    6  C9  UNL     1      25.054   3.855  50.688  1.00  0.00     0.137 A 
HETATM    7  N3  UNL     1      26.182   3.282  51.408  1.00  0.00    -0.379 N 
HETATM    8  C10 UNL     1      26.591   1.995  51.628  1.00  0.00     0.147 C 
HETATM    9  C11 UNL     1      27.002   0.698  51.849  1.00  0.00    -0.008 C 
HETATM   10  C12 UNL     1      26.354  -0.285  52.464  1.00  0.00    -0.005 C 
HETATM   11  C13 UNL     1      25.092  -0.468  53.115  1.00  0.00    -0.008 C 
HETATM   12  C14 UNL     1      23.925  -0.515  53.677  1.00  0.00     0.109 C 
HETATM   13  C15 UNL     1      23.828   0.825  53.306  1.00  0.00    -0.066 C 
HETATM   14  C16 UNL     1      23.764   1.944  52.988  1.00  0.00     0.062 C 
HETATM   15  O2  UNL     1      23.714   3.200  52.637  1.00  0.00    -0.238 OA
HETATM   16  H5  UNL     1      26.640   4.154  51.720  1.00  0.00     0.160 HD
ENDROOT
BRANCH   1  17
HETATM   17  O1  UNL     1      26.564   4.345  49.097  1.00  0.00    -0.290 OA
BRANCH  17  18
HETATM   18  C5  UNL     1      27.352   5.330  48.595  1.00  0.00     0.079 A 
HETATM   19  C4  UNL     1      26.790   6.566  48.281  1.00  0.00     0.037 A 
HETATM   20  C3  UNL     1      27.563   7.592  47.764  1.00  0.00     0.004 A 
HETATM   21  C2  UNL     1      28.917   7.434  47.538  1.00  0.00     0.019 A 
HETATM   22  C1  UNL     1      29.454   6.203  47.855  1.00  0.00     0.013 A 
HETATM   23 BR1  UNL     1      31.323   5.930  47.557  1.00  0.00    -0.051 Br
HETATM   24  C17 UNL     1      28.714   5.162  48.371  1.00  0.00     0.056 A 
ENDBRANCH  17  18
ENDBRANCH   1  17
TORSDOF 2
ENDMDL
MODEL 3
REMARK VINA RESULT:      -8.1      3.261      5.366
REMARK  2 active torsions:
REMARK  status: ('A' for Active; 'I' for Inactive)
REMARK    1  A    between atoms: C5_6  and  O1_7 
REMARK    2  A    between atoms: O1_7  and  C6_8 
ROOT
HETATM    1  C6  UNL     1      26.211   2.838  51.618  1.00  0.00     0.202 A 
HETATM    2  N1  UNL     1      26.909   3.167  50.499  1.00  0.00    -0.215 NA
HETATM    3  C7  UNL     1      26.221   3.627  49.437  1.00  0.00     0.238 A 
HETATM    4  N2  UNL     1      24.883   3.794  49.380  1.00  0.00    -0.215 NA
HETATM    5  C8  UNL     1      24.121   3.480  50.475  1.00  0.00     0.212 A 
HETATM    6  C9  UNL     1      24.855   3.009  51.552  1.00  0.00     0.137 A 
HETATM    7  N3  UNL     1      24.020   2.585  52.667  1.00  0.00    -0.379 N 
HETATM    8  C10 UNL     1      23.235   1.485  52.878  1.00  0.00     0.147 C 
HETATM    9  C11 UNL     1      22.445   0.376  53.090  1.00  0.00    -0.008 C 
HETATM   10  C12 UNL     1      21.393  -0.040  52.392  1.00  0.00    -0.005 C 
HETATM   11  C13 UNL     1      20.658   0.390  51.241  1.00  0.00    -0.008 C 
HETATM   12  C14 UNL     1      20.070   0.874  50.193  1.00  0.00     0.109 C 
HETATM   13  C15 UNL     1      21.032   1.879  50.269  1.00  0.00    -0.066 C 
HETATM   14  C16 UNL     1      21.844   2.711  50.348  1.00  0.00     0.062 C 
HETATM   15  O2  UNL     1      22.752   3.643  50.458  1.00  0.00    -0.238 OA
HETATM   16  H5  UNL     1      24.196   3.371  53.314  1.00  0.00     0.160 HD
ENDROOT
BRANCH   1  17
HETATM   17  O1  UNL     1      26.578   2.358  52.841  1.00  0.00    -0.290 OA
BRANCH  17  18
HETATM   18  C5  UNL     1      27.505   1.423  53.166  1.00  0.00     0.079 A 
HETATM   19  C4  UNL     1      28.681   1.813  53.803  1.00  0.00     0.037 A 
HETATM   20  C3  UNL     1      29.651   0.887  54.146  1.00  0.00     0.004 A 
HETATM   21  C2  UNL     1      29.494  -0.459  53.872  1.00  0.00     0.019 A 
HETATM   22  C1  UNL     1      28.322  -0.825  53.241  1.00  0.00     0.013 A 
HETATM   23 BR1  UNL     1      28.057  -2.675  52.835  1.00  0.00    -0.051 Br
HETATM   24  C17 UNL     1      27.338   0.071  52.887  1.00  0.00     0.056 A 
ENDBRANCH  17  18
ENDBRANCH   1  17
TORSDOF 2
ENDMDL
MODEL 4
REMARK VINA RESULT:      -8.1      1.868      3.787
REMARK  2 active torsions:
REMARK  status: ('A' for Active; 'I' for Inactive)
REMARK    1  A    between atoms: C5_6  and  O1_7 
REMARK    2  A    between atoms: O1_7  and  C6_8 
ROOT
HETATM    1  C6  UNL     1      23.436   3.542  51.211  1.00  0.00     0.202 A 
HETATM    2  N1  UNL     1      22.438   3.187  50.359  1.00  0.00    -0.215 NA
HETATM    3  C7  UNL     1      21.944   1.938  50.450  1.00  0.00     0.238 A 
HETATM    4  N2  UNL     1      22.353   0.992  51.322  1.00  0.00    -0.215 NA
HETATM    5  C8  UNL     1      23.357   1.287  52.208  1.00  0.00     0.212 A 
HETATM    6  C9  UNL     1      23.846   2.578  52.091  1.00  0.00     0.137 A 
HETATM    7  N3  UNL     1      24.977   2.838  52.969  1.00  0.00    -0.379 N 
HETATM    8  C10 UNL     1      26.294   2.467  52.928  1.00  0.00     0.147 C 
HETATM    9  C11 UNL     1      27.619   2.092  52.887  1.00  0.00    -0.008 C 
HETATM   10  C12 UNL     1      28.137   0.869  52.896  1.00  0.00    -0.005 C 
HETATM   11  C13 UNL     1      27.654  -0.477  52.950  1.00  0.00    -0.008 C 
HETATM   12  C14 UNL     1      27.103  -1.649  53.002  1.00  0.00     0.109 C 
HETATM   13  C15 UNL     1      25.900  -0.946  53.040  1.00  0.00    -0.066 C 
HETATM   14  C16 UNL     1      24.904  -0.342  53.071  1.00  0.00     0.062 C 
HETATM   15  O2  UNL     1      23.798   0.350  53.118  1.00  0.00    -0.238 OA
HETATM   16  H5  UNL     1      24.509   3.432  53.673  1.00  0.00     0.160 HD
ENDROOT
BRANCH   1  17
HETATM   17  O1  UNL     1      24.145   4.694  51.392  1.00  0.00    -0.290 OA
BRANCH  17  18
HETATM   18  C5  UNL     1      25.015   5.319  50.560  1.00  0.00     0.079 A 
HETATM   19  C4  UNL     1      25.829   4.560  49.721  1.00  0.00     0.037 A 
HETATM   20  C3  UNL     1      26.731   5.164  48.861  1.00  0.00     0.004 A 
HETATM   21  C2  UNL     1      26.860   6.538  48.799  1.00  0.00     0.019 A 
HETATM   22  C1  UNL     1      26.045   7.272  49.637  1.00  0.00     0.013 A 
HETATM   23 BR1  UNL     1      26.189   9.178  49.593  1.00  0.00    -0.051 Br
HETATM   24  C17 UNL     1      25.139   6.702  50.504  1.00  0.00     0.056 A 
ENDBRANCH  17  18
ENDBRANCH   1  17
TORSDOF 2
ENDMDL
MODEL 5
REMARK VINA RESULT:      -8.1      2.807      6.935
REMARK  2 active torsions:
REMARK  status: ('A' for Active; 'I' for Inactive)
REMARK    1  A    between atoms: C5_6  and  O1_7 
REMARK    2  A    between atoms: O1_7  and  C6_8 
ROOT
HETATM    1  C6  UNL     1      22.976   2.501  51.507  1.00  0.00     0.202 A 
HETATM    2  N1  UNL     1      21.994   2.959  52.327  1.00  0.00    -0.215 NA
HETATM    3  C7  UNL     1      21.358   4.094  51.981  1.00  0.00     0.238 A 
HETATM    4  N2  UNL     1      21.610   4.831  50.878  1.00  0.00    -0.215 NA
HETATM    5  C8  UNL     1      22.589   4.423  50.010  1.00  0.00     0.212 A 
HETATM    6  C9  UNL     1      23.225   3.253  50.391  1.00  0.00     0.137 A 
HETATM    7  N3  UNL     1      24.328   2.894  49.511  1.00  0.00    -0.379 N 
HETATM    8  C10 UNL     1      25.595   3.387  49.355  1.00  0.00     0.147 C 
HETATM    9  C11 UNL     1      26.870   3.885  49.198  1.00  0.00    -0.008 C 
HETATM   10  C12 UNL     1      27.247   5.112  48.855  1.00  0.00    -0.005 C 
HETATM   11  C13 UNL     1      26.614   6.352  48.520  1.00  0.00    -0.008 C 
HETATM   12  C14 UNL     1      25.932   7.416  48.235  1.00  0.00     0.109 C 
HETATM   13  C15 UNL     1      24.815   6.615  48.464  1.00  0.00    -0.066 C 
HETATM   14  C16 UNL     1      23.893   5.930  48.660  1.00  0.00     0.062 C 
HETATM   15  O2  UNL     1      22.871   5.146  48.869  1.00  0.00    -0.238 OA
HETATM   16  H5  UNL     1      23.890   2.103  49.011  1.00  0.00     0.160 HD
ENDROOT
BRANCH   1  17
HETATM   17  O1  UNL     1      23.798   1.413  51.548  1.00  0.00    -0.290 OA
BRANCH  17  18
HETATM   18  C5  UNL     1      24.739   1.070  52.464  1.00  0.00     0.079 A 
HETATM   19  C4  UNL     1      24.495   0.012  53.337  1.00  0.00     0.037 A 
HETATM   20  C3  UNL     1      25.431  -0.363  54.285  1.00  0.00     0.004 A 
HETATM   21  C2  UNL     1      26.641   0.292  54.405  1.00  0.00     0.019 A 
HETATM   22  C1  UNL     1      26.864   1.337  53.531  1.00  0.00     0.013 A 
HETATM   23 BR1  UNL     1      28.523   2.281  53.658  1.00  0.00    -0.051 Br
HETATM   24  C17 UNL     1      25.955   1.736  52.577  1.00  0.00     0.056 A 
ENDBRANCH  17  18
ENDBRANCH   1  17
TORSDOF 2
ENDMDL
MODEL 6
REMARK VINA RESULT:      -8.0      2.130      3.622
REMARK  2 active torsions:
REMARK  status: ('A' for Active; 'I' for Inactive)
REMARK    1  A    between atoms: C5_6  and  O1_7 
REMARK    2  A    between atoms: O1_7  and  C6_8 
ROOT
HETATM    1  C6  UNL     1      23.711   3.044  49.577  1.00  0.00     0.202 A 
HETATM    2  N1  UNL     1      22.846   2.971  48.531  1.00  0.00    -0.215 NA
HETATM    3  C7  UNL     1      21.573   2.616  48.786  1.00  0.00     0.238 A 
HETATM    4  N2  UNL     1      21.068   2.322  50.003  1.00  0.00    -0.215 NA
HETATM    5  C8  UNL     1      21.888   2.377  51.100  1.00  0.00     0.212 A 
HETATM    6  C9  UNL     1      23.192   2.744  50.807  1.00  0.00     0.137 A 
HETATM    7  N3  UNL     1      24.069   2.697  51.968  1.00  0.00    -0.379 N 
HETATM    8  C10 UNL     1      24.645   1.666  52.660  1.00  0.00     0.147 C 
HETATM    9  C11 UNL     1      25.224   0.628  53.357  1.00  0.00    -0.008 C 
HETATM   10  C12 UNL     1      24.632  -0.372  54.001  1.00  0.00    -0.005 C 
HETATM   11  C13 UNL     1      23.294  -0.809  54.263  1.00  0.00    -0.008 C 
HETATM   12  C14 UNL     1      22.045  -1.107  54.435  1.00  0.00     0.109 C 
HETATM   13  C15 UNL     1      21.794   0.040  53.684  1.00  0.00    -0.066 C 
HETATM   14  C16 UNL     1      21.604   1.002  53.055  1.00  0.00     0.062 C 
HETATM   15  O2  UNL     1      21.408   2.090  52.361  1.00  0.00    -0.238 OA
HETATM   16  H5  UNL     1      24.172   3.710  52.140  1.00  0.00     0.160 HD
ENDROOT
BRANCH   1  17
HETATM   17  O1  UNL     1      25.033   3.366  49.677  1.00  0.00    -0.290 OA
BRANCH  17  18
HETATM   18  C5  UNL     1      25.700   4.453  49.215  1.00  0.00     0.079 A 
HETATM   19  C4  UNL     1      24.999   5.629  48.954  1.00  0.00     0.037 A 
HETATM   20  C3  UNL     1      25.647   6.757  48.479  1.00  0.00     0.004 A 
HETATM   21  C2  UNL     1      27.008   6.764  48.244  1.00  0.00     0.019 A 
HETATM   22  C1  UNL     1      27.684   5.589  48.509  1.00  0.00     0.013 A 
HETATM   23 BR1  UNL     1      29.570   5.544  48.196  1.00  0.00    -0.051 Br
HETATM   24  C17 UNL     1      27.070   4.451  48.982  1.00  0.00     0.056 A 
ENDBRANCH  17  18
ENDBRANCH   1  17
TORSDOF 2
ENDMDL
MODEL 7
REMARK VINA RESULT:      -8.0      3.848      6.929
REMARK  2 active torsions:
REMARK  status: ('A' for Active; 'I' for Inactive)
REMARK    1  A    between atoms: C5_6  and  O1_7 
REMARK    2  A    between atoms: O1_7  and  C6_8 
ROOT
HETATM    1  C6  UNL     1      22.469   2.495  52.283  1.00  0.00     0.202 A 
HETATM    2  N1  UNL     1      22.156   3.793  52.029  1.00  0.00    -0.215 NA
HETATM    3  C7  UNL     1      23.125   4.596  51.552  1.00  0.00     0.238 A 
HETATM    4  N2  UNL     1      24.398   4.227  51.298  1.00  0.00    -0.215 NA
HETATM    5  C8  UNL     1      24.779   2.931  51.533  1.00  0.00     0.212 A 
HETATM    6  C9  UNL     1      23.762   2.128  52.023  1.00  0.00     0.137 A 
HETATM    7  N3  UNL     1      24.211   0.785  52.363  1.00  0.00    -0.379 N 
HETATM    8  C10 UNL     1      24.944   0.282  53.403  1.00  0.00     0.147 C 
HETATM    9  C11 UNL     1      25.682  -0.223  54.451  1.00  0.00    -0.008 C 
HETATM   10  C12 UNL     1      26.924   0.079  54.815  1.00  0.00    -0.005 C 
HETATM   11  C13 UNL     1      27.969   0.949  54.367  1.00  0.00    -0.008 C 
HETATM   12  C14 UNL     1      28.838   1.773  53.871  1.00  0.00     0.109 C 
HETATM   13  C15 UNL     1      27.850   2.057  52.930  1.00  0.00    -0.066 C 
HETATM   14  C16 UNL     1      27.013   2.282  52.152  1.00  0.00     0.062 C 
HETATM   15  O2  UNL     1      26.069   2.513  51.281  1.00  0.00    -0.238 OA
HETATM   16  H5  UNL     1      23.793   0.266  51.574  1.00  0.00     0.160 HD
ENDROOT
BRANCH   1  17
HETATM   17  O1  UNL     1      21.752   1.434  52.754  1.00  0.00    -0.290 OA
BRANCH  17  18
HETATM   18  C5  UNL     1      20.599   0.890  52.290  1.00  0.00     0.079 A 
HETATM   19  C4  UNL     1      20.091   1.303  51.060  1.00  0.00     0.037 A 
HETATM   20  C3  UNL     1      18.915   0.772  50.558  1.00  0.00     0.004 A 
HETATM   21  C2  UNL     1      18.200  -0.185  51.251  1.00  0.00     0.019 A 
HETATM   22  C1  UNL     1      18.720  -0.581  52.467  1.00  0.00     0.013 A 
HETATM   23 BR1  UNL     1      17.765  -1.900  53.471  1.00  0.00    -0.051 Br
HETATM   24  C17 UNL     1      19.886  -0.072  52.995  1.00  0.00     0.056 A 
ENDBRANCH  17  18
ENDBRANCH   1  17
TORSDOF 2
ENDMDL
MODEL 8
REMARK VINA RESULT:      -8.0      3.247      7.568
REMARK  2 active torsions:
REMARK  status: ('A' for Active; 'I' for Inactive)
REMARK    1  A    between atoms: C5_6  and  O1_7 
REMARK    2  A    between atoms: O1_7  and  C6_8 
ROOT
HETATM    1  C6  UNL     1      24.601   3.652  51.528  1.00  0.00     0.202 A 
HETATM    2  N1  UNL     1      23.663   4.108  52.399  1.00  0.00    -0.215 NA
HETATM    3  C7  UNL     1      22.857   5.108  51.995  1.00  0.00     0.238 A 
HETATM    4  N2  UNL     1      22.895   5.708  50.787  1.00  0.00    -0.215 NA
HETATM    5  C8  UNL     1      23.819   5.294  49.862  1.00  0.00     0.212 A 
HETATM    6  C9  UNL     1      24.633   4.265  50.305  1.00  0.00     0.137 A 
HETATM    7  N3  UNL     1      25.672   3.911  49.349  1.00  0.00    -0.379 N 
HETATM    8  C10 UNL     1      26.843   4.514  48.978  1.00  0.00     0.147 C 
HETATM    9  C11 UNL     1      28.022   5.122  48.605  1.00  0.00    -0.008 C 
HETATM   10  C12 UNL     1      28.203   6.324  48.068  1.00  0.00    -0.005 C 
HETATM   11  C13 UNL     1      27.388   7.428  47.662  1.00  0.00    -0.008 C 
HETATM   12  C14 UNL     1      26.552   8.362  47.332  1.00  0.00     0.109 C 
HETATM   13  C15 UNL     1      25.575   7.482  47.794  1.00  0.00    -0.066 C 
HETATM   14  C16 UNL     1      24.772   6.733  48.185  1.00  0.00     0.062 C 
HETATM   15  O2  UNL     1      23.885   5.878  48.614  1.00  0.00    -0.238 OA
HETATM   16  H5  UNL     1      25.286   3.016  49.008  1.00  0.00     0.160 HD
ENDROOT
BRANCH   1  17
HETATM   17  O1  UNL     1      25.552   2.677  51.604  1.00  0.00    -0.290 OA
BRANCH  17  18
HETATM   18  C5  UNL     1      25.491   1.445  52.170  1.00  0.00     0.079 A 
HETATM   19  C4  UNL     1      26.600   0.604  52.105  1.00  0.00     0.037 A 
HETATM   20  C3  UNL     1      26.572  -0.661  52.668  1.00  0.00     0.004 A 
HETATM   21  C2  UNL     1      25.449  -1.139  53.315  1.00  0.00     0.019 A 
HETATM   22  C1  UNL     1      24.362  -0.291  53.369  1.00  0.00     0.013 A 
HETATM   23 BR1  UNL     1      22.779  -0.906  54.249  1.00  0.00    -0.051 Br
HETATM   24  C17 UNL     1      24.357   0.972  52.819  1.00  0.00     0.056 A 
ENDBRANCH  17  18
ENDBRANCH   1  17
TORSDOF 2
ENDMDL
MODEL 9
REMARK VINA RESULT:      -7.6      3.123      5.431
REMARK  2 active torsions:
REMARK  status: ('A' for Active; 'I' for Inactive)
REMARK    1  A    between atoms: C5_6  and  O1_7 
REMARK    2  A    between atoms: O1_7  and  C6_8 
ROOT
HETATM    1  C6  UNL     1      25.232   2.875  51.507  1.00  0.00     0.202 A 
HETATM    2  N1  UNL     1      25.860   3.340  50.395  1.00  0.00    -0.215 NA
HETATM    3  C7  UNL     1      25.109   3.929  49.445  1.00  0.00     0.238 A 
HETATM    4  N2  UNL     1      23.772   4.104  49.495  1.00  0.00    -0.215 NA
HETATM    5  C8  UNL     1      23.079   3.657  50.591  1.00  0.00     0.212 A 
HETATM    6  C9  UNL     1      23.876   3.055  51.551  1.00  0.00     0.137 A 
HETATM    7  N3  UNL     1      23.111   2.497  52.657  1.00  0.00    -0.379 N 
HETATM    8  C10 UNL     1      22.331   1.379  52.780  1.00  0.00     0.147 C 
HETATM    9  C11 UNL     1      21.546   0.253  52.903  1.00  0.00    -0.008 C 
HETATM   10  C12 UNL     1      20.448  -0.072  52.228  1.00  0.00    -0.005 C 
HETATM   11  C13 UNL     1      19.644   0.499  51.191  1.00  0.00    -0.008 C 
HETATM   12  C14 UNL     1      18.994   1.110  50.251  1.00  0.00     0.109 C 
HETATM   13  C15 UNL     1      19.969   2.097  50.388  1.00  0.00    -0.066 C 
HETATM   14  C16 UNL     1      20.792   2.912  50.517  1.00  0.00     0.062 C 
HETATM   15  O2  UNL     1      21.713   3.822  50.683  1.00  0.00    -0.238 OA
HETATM   16  H5  UNL     1      23.335   3.196  53.383  1.00  0.00     0.160 HD
ENDROOT
BRANCH   1  17
HETATM   17  O1  UNL     1      25.672   2.247  52.635  1.00  0.00    -0.290 OA
BRANCH  17  18
HETATM   18  C5  UNL     1      26.319   1.062  52.774  1.00  0.00     0.079 A 
HETATM   19  C4  UNL     1      25.616  -0.128  52.601  1.00  0.00     0.037 A 
HETATM   20  C3  UNL     1      26.243  -1.355  52.739  1.00  0.00     0.004 A 
HETATM   21  C2  UNL     1      27.586  -1.450  53.052  1.00  0.00     0.019 A 
HETATM   22  C1  UNL     1      28.264  -0.259  53.219  1.00  0.00     0.013 A 
HETATM   23 BR1  UNL     1      30.124  -0.334  53.659  1.00  0.00    -0.051 Br
HETATM   24  C17 UNL     1      27.670   0.977  53.090  1.00  0.00     0.056 A 
ENDBRANCH  17  18
ENDBRANCH   1  17
TORSDOF 2
ENDMDL
