MODEL 1
REMARK VINA RESULT:      -8.6      0.000      0.000
REMARK  6 active torsions:
REMARK  status: ('A' for Active; 'I' for Inactive)
REMARK    1  A    between atoms: S1_2  and  N1_4 
REMARK    2  A    between atoms: S1_2  and  C9_15 
REMARK    3  A    between atoms: N1_4  and  C1_5 
REMARK    4  A    between atoms: C1_5  and  C2_6 
REMARK    5  A    between atoms: C2_6  and  C3_7 
REMARK    6  A    between atoms: C5_9  and  O3_10 
ROOT
HETATM    1  N1  UNL     1      26.059   1.933  54.053  1.00  0.00    -0.315 N 
HETATM    2  H1  UNL     1      25.991   2.311  55.002  1.00  0.00     0.172 HD
ENDROOT
BRANCH   1   3
HETATM    3  S1  UNL     1      27.634   1.885  53.380  1.00  0.00     0.258 S 
HETATM    4  O1  UNL     1      27.540   2.431  51.976  1.00  0.00    -0.201 OA
HETATM    5  O2  UNL     1      28.579   2.695  54.215  1.00  0.00    -0.201 OA
BRANCH   3   6
HETATM    6  C9  UNL     1      28.156   0.218  53.293  1.00  0.00     0.079 A 
HETATM    7  C10 UNL     1      27.284  -0.794  52.876  1.00  0.00     0.025 A 
HETATM    8  C11 UNL     1      27.667  -2.117  52.797  1.00  0.00     0.002 A 
HETATM    9  C12 UNL     1      28.968  -2.491  53.141  1.00  0.00     0.000 A 
HETATM   10  C13 UNL     1      29.830  -1.477  53.554  1.00  0.00     0.002 A 
HETATM   11  C14 UNL     1      29.441  -0.148  53.632  1.00  0.00     0.025 A 
ENDBRANCH   3   6
ENDBRANCH   1   3
BRANCH   1  12
HETATM   12  C1  UNL     1      25.018   2.255  53.138  1.00  0.00     0.137 C 
BRANCH  12  13
HETATM   13  C2  UNL     1      24.501   1.033  52.386  1.00  0.00     0.060 C 
BRANCH  13  14
HETATM   14  C3  UNL     1      23.399   0.479  53.216  1.00  0.00    -0.032 A 
HETATM   15  C4  UNL     1      23.666  -0.518  54.129  1.00  0.00     0.045 A 
HETATM   16  C5  UNL     1      22.636  -1.045  54.915  1.00  0.00     0.066 A 
HETATM   17  C6  UNL     1      21.343  -0.570  54.780  1.00  0.00     0.038 A 
HETATM   18  C7  UNL     1      21.091   0.432  53.857  1.00  0.00     0.027 A 
HETATM   19  C8  UNL     1      22.109   0.952  53.081  1.00  0.00     0.040 A 
HETATM   20 CL1  UNL     1      21.711   2.218  51.936  1.00  0.00    -0.084 Cl
BRANCH  16  21
HETATM   21  O3  UNL     1      22.997  -2.046  55.808  1.00  0.00    -0.361 OA
HETATM   22  H7  UNL     1      23.680  -2.740  55.608  1.00  0.00     0.217 HD
ENDBRANCH  16  21
ENDBRANCH  13  14
ENDBRANCH  12  13
ENDBRANCH   1  12
TORSDOF 6
ENDMDL
MODEL 2
REMARK VINA RESULT:      -7.8      2.931      6.120
REMARK  6 active torsions:
REMARK  status: ('A' for Active; 'I' for Inactive)
REMARK    1  A    between atoms: S1_2  and  N1_4 
REMARK    2  A    between atoms: S1_2  and  C9_15 
REMARK    3  A    between atoms: N1_4  and  C1_5 
REMARK    4  A    between atoms: C1_5  and  C2_6 
REMARK    5  A    between atoms: C2_6  and  C3_7 
REMARK    6  A    between atoms: C5_9  and  O3_10 
ROOT
HETATM    1  N1  UNL     1      25.083   1.114  51.724  1.00  0.00    -0.315 N 
HETATM    2  H1  UNL     1      25.227   0.814  50.754  1.00  0.00     0.172 HD
ENDROOT
BRANCH   1   3
HETATM    3  S1  UNL     1      23.545   1.778  52.080  1.00  0.00     0.258 S 
HETATM    4  O1  UNL     1      23.769   2.996  52.943  1.00  0.00    -0.201 OA
HETATM    5  O2  UNL     1      22.829   2.135  50.812  1.00  0.00    -0.201 OA
BRANCH   3   6
HETATM    6  C9  UNL     1      22.629   0.606  53.000  1.00  0.00     0.079 A 
HETATM    7  C10 UNL     1      21.230   0.591  52.965  1.00  0.00     0.025 A 
HETATM    8  C11 UNL     1      20.481  -0.321  53.679  1.00  0.00     0.002 A 
HETATM    9  C12 UNL     1      21.114  -1.276  54.478  1.00  0.00     0.000 A 
HETATM   10  C13 UNL     1      22.507  -1.253  54.507  1.00  0.00     0.002 A 
HETATM   11  C14 UNL     1      23.257  -0.335  53.787  1.00  0.00     0.025 A 
ENDBRANCH   3   6
ENDBRANCH   1   3
BRANCH   1  12
HETATM   12  C1  UNL     1      26.179   1.730  52.392  1.00  0.00     0.137 C 
BRANCH  12  13
HETATM   13  C2  UNL     1      26.443   1.121  53.765  1.00  0.00     0.060 C 
BRANCH  13  14
HETATM   14  C3  UNL     1      27.626   0.235  53.598  1.00  0.00    -0.032 A 
HETATM   15  C4  UNL     1      27.445  -1.101  53.314  1.00  0.00     0.045 A 
HETATM   16  C5  UNL     1      28.552  -1.942  53.155  1.00  0.00     0.066 A 
HETATM   17  C6  UNL     1      29.834  -1.437  53.283  1.00  0.00     0.038 A 
HETATM   18  C7  UNL     1      29.999  -0.092  53.569  1.00  0.00     0.027 A 
HETATM   19  C8  UNL     1      28.905   0.738  53.726  1.00  0.00     0.040 A 
HETATM   20 CL1  UNL     1      29.196   2.428  54.087  1.00  0.00    -0.084 Cl
BRANCH  16  21
HETATM   21  O3  UNL     1      28.274  -3.273  52.871  1.00  0.00    -0.361 OA
HETATM   22  H7  UNL     1      27.624  -3.561  52.176  1.00  0.00     0.217 HD
ENDBRANCH  16  21
ENDBRANCH  13  14
ENDBRANCH  12  13
ENDBRANCH   1  12
TORSDOF 6
ENDMDL
MODEL 3
REMARK VINA RESULT:      -7.8      2.030      2.648
REMARK  6 active torsions:
REMARK  status: ('A' for Active; 'I' for Inactive)
REMARK    1  A    between atoms: S1_2  and  N1_4 
REMARK    2  A    between atoms: S1_2  and  C9_15 
REMARK    3  A    between atoms: N1_4  and  C1_5 
REMARK    4  A    between atoms: C1_5  and  C2_6 
REMARK    5  A    between atoms: C2_6  and  C3_7 
REMARK    6  A    between atoms: C5_9  and  O3_10 
ROOT
HETATM    1  N1  UNL     1      25.795   1.956  53.653  1.00  0.00    -0.315 N 
HETATM    2  H1  UNL     1      25.588   2.044  54.653  1.00  0.00     0.172 HD
ENDROOT
BRANCH   1   3
HETATM    3  S1  UNL     1      27.455   1.928  53.233  1.00  0.00     0.258 S 
HETATM    4  O1  UNL     1      27.579   2.511  51.846  1.00  0.00    -0.201 OA
HETATM    5  O2  UNL     1      28.254   2.716  54.226  1.00  0.00    -0.201 OA
BRANCH   3   6
HETATM    6  C9  UNL     1      27.993   0.265  53.186  1.00  0.00     0.079 A 
HETATM    7  C10 UNL     1      29.288  -0.090  53.579  1.00  0.00     0.025 A 
HETATM    8  C11 UNL     1      29.741  -1.393  53.553  1.00  0.00     0.002 A 
HETATM    9  C12 UNL     1      28.897  -2.419  53.121  1.00  0.00     0.000 A 
HETATM   10  C13 UNL     1      27.610  -2.057  52.731  1.00  0.00     0.002 A 
HETATM   11  C14 UNL     1      27.158  -0.746  52.759  1.00  0.00     0.025 A 
ENDBRANCH   3   6
ENDBRANCH   1   3
BRANCH   1  12
HETATM   12  C1  UNL     1      24.950   2.651  52.742  1.00  0.00     0.137 C 
BRANCH  12  13
HETATM   13  C2  UNL     1      24.221   1.711  51.788  1.00  0.00     0.060 C 
BRANCH  13  14
HETATM   14  C3  UNL     1      22.845   1.563  52.332  1.00  0.00    -0.032 A 
HETATM   15  C4  UNL     1      21.905   2.540  52.085  1.00  0.00     0.045 A 
HETATM   16  C5  UNL     1      20.607   2.410  52.592  1.00  0.00     0.066 A 
HETATM   17  C6  UNL     1      20.261   1.301  53.344  1.00  0.00     0.038 A 
HETATM   18  C7  UNL     1      21.218   0.328  53.583  1.00  0.00     0.027 A 
HETATM   19  C8  UNL     1      22.499   0.457  53.082  1.00  0.00     0.040 A 
HETATM   20 CL1  UNL     1      23.653  -0.815  53.428  1.00  0.00    -0.084 Cl
BRANCH  16  21
HETATM   21  O3  UNL     1      19.727   3.442  52.294  1.00  0.00    -0.361 OA
HETATM   22  H7  UNL     1      19.279   3.999  52.985  1.00  0.00     0.217 HD
ENDBRANCH  16  21
ENDBRANCH  13  14
ENDBRANCH  12  13
ENDBRANCH   1  12
TORSDOF 6
ENDMDL
MODEL 4
REMARK VINA RESULT:      -7.7      4.363      6.641
REMARK  6 active torsions:
REMARK  status: ('A' for Active; 'I' for Inactive)
REMARK    1  A    between atoms: S1_2  and  N1_4 
REMARK    2  A    between atoms: S1_2  and  C9_15 
REMARK    3  A    between atoms: N1_4  and  C1_5 
REMARK    4  A    between atoms: C1_5  and  C2_6 
REMARK    5  A    between atoms: C2_6  and  C3_7 
REMARK    6  A    between atoms: C5_9  and  O3_10 
ROOT
HETATM    1  N1  UNL     1      26.024   3.234  51.725  1.00  0.00    -0.315 N 
HETATM    2  H1  UNL     1      25.714   3.547  52.651  1.00  0.00     0.172 HD
ENDROOT
BRANCH   1   3
HETATM    3  S1  UNL     1      25.166   3.884  50.392  1.00  0.00     0.258 S 
HETATM    4  O1  UNL     1      24.787   2.731  49.495  1.00  0.00    -0.201 OA
HETATM    5  O2  UNL     1      23.952   4.624  50.868  1.00  0.00    -0.201 OA
BRANCH   3   6
HETATM    6  C9  UNL     1      26.233   4.950  49.506  1.00  0.00     0.079 A 
HETATM    7  C10 UNL     1      27.446   4.489  48.982  1.00  0.00     0.025 A 
HETATM    8  C11 UNL     1      28.308   5.305  48.279  1.00  0.00     0.002 A 
HETATM    9  C12 UNL     1      27.984   6.647  48.065  1.00  0.00     0.000 A 
HETATM   10  C13 UNL     1      26.774   7.097  48.589  1.00  0.00     0.002 A 
HETATM   11  C14 UNL     1      25.911   6.273  49.296  1.00  0.00     0.025 A 
ENDBRANCH   3   6
ENDBRANCH   1   3
BRANCH   1  12
HETATM   12  C1  UNL     1      26.419   1.874  51.587  1.00  0.00     0.137 C 
BRANCH  12  13
HETATM   13  C2  UNL     1      26.164   1.061  52.852  1.00  0.00     0.060 C 
BRANCH  13  14
HETATM   14  C3  UNL     1      27.386   0.239  53.062  1.00  0.00    -0.032 A 
HETATM   15  C4  UNL     1      27.336  -1.123  52.860  1.00  0.00     0.045 A 
HETATM   16  C5  UNL     1      28.479  -1.905  53.054  1.00  0.00     0.066 A 
HETATM   17  C6  UNL     1      29.666  -1.316  53.452  1.00  0.00     0.038 A 
HETATM   18  C7  UNL     1      29.700   0.055  53.651  1.00  0.00     0.027 A 
HETATM   19  C8  UNL     1      28.570   0.826  53.459  1.00  0.00     0.040 A 
HETATM   20 CL1  UNL     1      28.693   2.553  53.732  1.00  0.00    -0.084 Cl
BRANCH  16  21
HETATM   21  O3  UNL     1      28.336  -3.268  52.827  1.00  0.00    -0.361 OA
HETATM   22  H7  UNL     1      27.627  -3.823  53.248  1.00  0.00     0.217 HD
ENDBRANCH  16  21
ENDBRANCH  13  14
ENDBRANCH  12  13
ENDBRANCH   1  12
TORSDOF 6
ENDMDL
MODEL 5
REMARK VINA RESULT:      -7.7      1.840      2.550
REMARK  6 active torsions:
REMARK  status: ('A' for Active; 'I' for Inactive)
REMARK    1  A    between atoms: S1_2  and  N1_4 
REMARK    2  A    between atoms: S1_2  and  C9_15 
REMARK    3  A    between atoms: N1_4  and  C1_5 
REMARK    4  A    between atoms: C1_5  and  C2_6 
REMARK    5  A    between atoms: C2_6  and  C3_7 
REMARK    6  A    between atoms: C5_9  and  O3_10 
ROOT
HETATM    1  N1  UNL     1      27.225   2.647  51.994  1.00  0.00    -0.315 N 
HETATM    2  H1  UNL     1      28.071   2.950  51.501  1.00  0.00     0.172 HD
ENDROOT
BRANCH   1   3
HETATM    3  S1  UNL     1      27.472   1.938  53.534  1.00  0.00     0.258 S 
HETATM    4  O1  UNL     1      28.652   2.635  54.166  1.00  0.00    -0.201 OA
HETATM    5  O2  UNL     1      26.240   2.086  54.376  1.00  0.00    -0.201 OA
BRANCH   3   6
HETATM    6  C9  UNL     1      27.875   0.250  53.316  1.00  0.00     0.079 A 
HETATM    7  C10 UNL     1      29.169  -0.223  53.563  1.00  0.00     0.025 A 
HETATM    8  C11 UNL     1      29.517  -1.548  53.401  1.00  0.00     0.002 A 
HETATM    9  C12 UNL     1      28.563  -2.476  52.974  1.00  0.00     0.000 A 
HETATM   10  C13 UNL     1      27.278  -1.995  52.731  1.00  0.00     0.002 A 
HETATM   11  C14 UNL     1      26.932  -0.663  52.895  1.00  0.00     0.025 A 
ENDBRANCH   3   6
ENDBRANCH   1   3
BRANCH   1  12
HETATM   12  C1  UNL     1      26.183   2.065  51.218  1.00  0.00     0.137 C 
BRANCH  12  13
HETATM   13  C2  UNL     1      24.951   2.959  51.131  1.00  0.00     0.060 C 
BRANCH  13  14
HETATM   14  C3  UNL     1      23.778   2.048  51.217  1.00  0.00    -0.032 A 
HETATM   15  C4  UNL     1      23.601   1.267  52.339  1.00  0.00     0.045 A 
HETATM   16  C5  UNL     1      22.501   0.408  52.429  1.00  0.00     0.066 A 
HETATM   17  C6  UNL     1      21.586   0.336  51.394  1.00  0.00     0.038 A 
HETATM   18  C7  UNL     1      21.778   1.128  50.274  1.00  0.00     0.027 A 
HETATM   19  C8  UNL     1      22.865   1.976  50.185  1.00  0.00     0.040 A 
HETATM   20 CL1  UNL     1      23.040   2.945  48.735  1.00  0.00    -0.084 Cl
BRANCH  16  21
HETATM   21  O3  UNL     1      22.403  -0.341  53.595  1.00  0.00    -0.361 OA
HETATM   22  H7  UNL     1      22.970  -1.134  53.788  1.00  0.00     0.217 HD
ENDBRANCH  16  21
ENDBRANCH  13  14
ENDBRANCH  12  13
ENDBRANCH   1  12
TORSDOF 6
ENDMDL
MODEL 6
REMARK VINA RESULT:      -7.6      3.923      6.506
REMARK  6 active torsions:
REMARK  status: ('A' for Active; 'I' for Inactive)
REMARK    1  A    between atoms: S1_2  and  N1_4 
REMARK    2  A    between atoms: S1_2  and  C9_15 
REMARK    3  A    between atoms: N1_4  and  C1_5 
REMARK    4  A    between atoms: C1_5  and  C2_6 
REMARK    5  A    between atoms: C2_6  and  C3_7 
REMARK    6  A    between atoms: C5_9  and  O3_10 
ROOT
HETATM    1  N1  UNL     1      25.202   2.104  51.141  1.00  0.00    -0.315 N 
HETATM    2  H1  UNL     1      25.969   1.777  50.545  1.00  0.00     0.172 HD
ENDROOT
BRANCH   1   3
HETATM    3  S1  UNL     1      24.467   3.577  50.668  1.00  0.00     0.258 S 
HETATM    4  O1  UNL     1      23.329   3.234  49.738  1.00  0.00    -0.201 OA
HETATM    5  O2  UNL     1      23.976   4.321  51.874  1.00  0.00    -0.201 OA
BRANCH   3   6
HETATM    6  C9  UNL     1      25.637   4.530  49.786  1.00  0.00     0.079 A 
HETATM    7  C10 UNL     1      25.402   5.878  49.494  1.00  0.00     0.025 A 
HETATM    8  C11 UNL     1      26.307   6.655  48.800  1.00  0.00     0.002 A 
HETATM    9  C12 UNL     1      27.511   6.103  48.358  1.00  0.00     0.000 A 
HETATM   10  C13 UNL     1      27.737   4.760  48.653  1.00  0.00     0.002 A 
HETATM   11  C14 UNL     1      26.825   3.982  49.351  1.00  0.00     0.025 A 
ENDBRANCH   3   6
ENDBRANCH   1   3
BRANCH   1  12
HETATM   12  C1  UNL     1      25.330   1.912  52.545  1.00  0.00     0.137 C 
BRANCH  12  13
HETATM   13  C2  UNL     1      25.546   0.449  52.918  1.00  0.00     0.060 C 
BRANCH  13  14
HETATM   14  C3  UNL     1      26.993   0.318  53.237  1.00  0.00    -0.032 A 
HETATM   15  C4  UNL     1      27.675   1.392  53.767  1.00  0.00     0.045 A 
HETATM   16  C5  UNL     1      29.036   1.279  54.071  1.00  0.00     0.066 A 
HETATM   17  C6  UNL     1      29.704   0.089  53.842  1.00  0.00     0.038 A 
HETATM   18  C7  UNL     1      29.004  -0.981  53.310  1.00  0.00     0.027 A 
HETATM   19  C8  UNL     1      27.660  -0.868  53.009  1.00  0.00     0.040 A 
HETATM   20 CL1  UNL     1      26.844  -2.266  52.338  1.00  0.00    -0.084 Cl
BRANCH  16  21
HETATM   21  O3  UNL     1      29.641   2.411  54.601  1.00  0.00    -0.361 OA
HETATM   22  H7  UNL     1      30.550   2.720  54.341  1.00  0.00     0.217 HD
ENDBRANCH  16  21
ENDBRANCH  13  14
ENDBRANCH  12  13
ENDBRANCH   1  12
TORSDOF 6
ENDMDL
MODEL 7
REMARK VINA RESULT:      -7.4      3.581      6.557
REMARK  6 active torsions:
REMARK  status: ('A' for Active; 'I' for Inactive)
REMARK    1  A    between atoms: S1_2  and  N1_4 
REMARK    2  A    between atoms: S1_2  and  C9_15 
REMARK    3  A    between atoms: N1_4  and  C1_5 
REMARK    4  A    between atoms: C1_5  and  C2_6 
REMARK    5  A    between atoms: C2_6  and  C3_7 
REMARK    6  A    between atoms: C5_9  and  O3_10 
ROOT
HETATM    1  N1  UNL     1      25.232   2.538  52.017  1.00  0.00    -0.315 N 
HETATM    2  H1  UNL     1      25.732   3.334  52.424  1.00  0.00     0.172 HD
ENDROOT
BRANCH   1   3
HETATM    3  S1  UNL     1      23.524   2.586  52.146  1.00  0.00     0.258 S 
HETATM    4  O1  UNL     1      23.118   1.525  53.140  1.00  0.00    -0.201 OA
HETATM    5  O2  UNL     1      23.075   3.945  52.589  1.00  0.00    -0.201 OA
BRANCH   3   6
HETATM    6  C9  UNL     1      22.834   2.182  50.591  1.00  0.00     0.079 A 
HETATM    7  C10 UNL     1      23.275   2.804  49.418  1.00  0.00     0.025 A 
HETATM    8  C11 UNL     1      22.751   2.506  48.177  1.00  0.00     0.002 A 
HETATM    9  C12 UNL     1      21.738   1.552  48.056  1.00  0.00     0.000 A 
HETATM   10  C13 UNL     1      21.304   0.937  49.229  1.00  0.00     0.002 A 
HETATM   11  C14 UNL     1      21.834   1.239  50.474  1.00  0.00     0.025 A 
ENDBRANCH   3   6
ENDBRANCH   1   3
BRANCH   1  12
HETATM   12  C1  UNL     1      25.816   1.248  52.163  1.00  0.00     0.137 C 
BRANCH  12  13
HETATM   13  C2  UNL     1      26.255   0.964  53.595  1.00  0.00     0.060 C 
BRANCH  13  14
HETATM   14  C3  UNL     1      27.501   0.159  53.488  1.00  0.00    -0.032 A 
HETATM   15  C4  UNL     1      27.420  -1.197  53.254  1.00  0.00     0.045 A 
HETATM   16  C5  UNL     1      28.585  -1.963  53.151  1.00  0.00     0.066 A 
HETATM   17  C6  UNL     1      29.826  -1.365  53.284  1.00  0.00     0.038 A 
HETATM   18  C7  UNL     1      29.890  -0.001  53.519  1.00  0.00     0.027 A 
HETATM   19  C8  UNL     1      28.739   0.755  53.621  1.00  0.00     0.040 A 
HETATM   20 CL1  UNL     1      28.903   2.474  53.920  1.00  0.00    -0.084 Cl
BRANCH  16  21
HETATM   21  O3  UNL     1      28.408  -3.320  52.915  1.00  0.00    -0.361 OA
HETATM   22  H7  UNL     1      27.572  -3.811  53.135  1.00  0.00     0.217 HD
ENDBRANCH  16  21
ENDBRANCH  13  14
ENDBRANCH  12  13
ENDBRANCH   1  12
TORSDOF 6
ENDMDL
MODEL 8
REMARK VINA RESULT:      -7.4      2.425      2.835
REMARK  6 active torsions:
REMARK  status: ('A' for Active; 'I' for Inactive)
REMARK    1  A    between atoms: S1_2  and  N1_4 
REMARK    2  A    between atoms: S1_2  and  C9_15 
REMARK    3  A    between atoms: N1_4  and  C1_5 
REMARK    4  A    between atoms: C1_5  and  C2_6 
REMARK    5  A    between atoms: C2_6  and  C3_7 
REMARK    6  A    between atoms: C5_9  and  O3_10 
ROOT
HETATM    1  N1  UNL     1      25.239   1.343  52.021  1.00  0.00    -0.315 N 
HETATM    2  H1  UNL     1      25.271   0.696  51.227  1.00  0.00     0.172 HD
ENDROOT
BRANCH   1   3
HETATM    3  S1  UNL     1      26.712   1.555  52.871  1.00  0.00     0.258 S 
HETATM    4  O1  UNL     1      27.569   2.496  52.060  1.00  0.00    -0.201 OA
HETATM    5  O2  UNL     1      26.446   2.107  54.239  1.00  0.00    -0.201 OA
BRANCH   3   6
HETATM    6  C9  UNL     1      27.527   0.011  52.974  1.00  0.00     0.079 A 
HETATM    7  C10 UNL     1      26.898  -1.169  52.560  1.00  0.00     0.025 A 
HETATM    8  C11 UNL     1      27.516  -2.401  52.628  1.00  0.00     0.002 A 
HETATM    9  C12 UNL     1      28.817  -2.506  53.126  1.00  0.00     0.000 A 
HETATM   10  C13 UNL     1      29.434  -1.326  53.536  1.00  0.00     0.002 A 
HETATM   11  C14 UNL     1      28.811  -0.090  53.465  1.00  0.00     0.025 A 
ENDBRANCH   3   6
ENDBRANCH   1   3
BRANCH   1  12
HETATM   12  C1  UNL     1      24.068   1.338  52.829  1.00  0.00     0.137 C 
BRANCH  12  13
HETATM   13  C2  UNL     1      23.375  -0.021  52.843  1.00  0.00     0.060 C 
BRANCH  13  14
HETATM   14  C3  UNL     1      22.009   0.212  52.301  1.00  0.00    -0.032 A 
HETATM   15  C4  UNL     1      21.846   0.507  50.965  1.00  0.00     0.045 A 
HETATM   16  C5  UNL     1      20.566   0.727  50.445  1.00  0.00     0.066 A 
HETATM   17  C6  UNL     1      19.457   0.649  51.269  1.00  0.00     0.038 A 
HETATM   18  C7  UNL     1      19.638   0.351  52.610  1.00  0.00     0.027 A 
HETATM   19  C8  UNL     1      20.903   0.135  53.122  1.00  0.00     0.040 A 
HETATM   20 CL1  UNL     1      21.049  -0.237  54.829  1.00  0.00    -0.084 Cl
BRANCH  16  21
HETATM   21  O3  UNL     1      20.498   1.018  49.089  1.00  0.00    -0.361 OA
HETATM   22  H7  UNL     1      21.033   0.545  48.398  1.00  0.00     0.217 HD
ENDBRANCH  16  21
ENDBRANCH  13  14
ENDBRANCH  12  13
ENDBRANCH   1  12
TORSDOF 6
ENDMDL
MODEL 9
REMARK VINA RESULT:      -7.3      4.012      6.150
REMARK  6 active torsions:
REMARK  status: ('A' for Active; 'I' for Inactive)
REMARK    1  A    between atoms: S1_2  and  N1_4 
REMARK    2  A    between atoms: S1_2  and  C9_15 
REMARK    3  A    between atoms: N1_4  and  C1_5 
REMARK    4  A    between atoms: C1_5  and  C2_6 
REMARK    5  A    between atoms: C2_6  and  C3_7 
REMARK    6  A    between atoms: C5_9  and  O3_10 
ROOT
HETATM    1  N1  UNL     1      26.618   2.875  51.936  1.00  0.00    -0.315 N 
HETATM    2  H1  UNL     1      27.423   3.445  52.216  1.00  0.00     0.172 HD
ENDROOT
BRANCH   1   3
HETATM    3  S1  UNL     1      26.177   1.623  53.019  1.00  0.00     0.258 S 
HETATM    4  O1  UNL     1      25.937   2.258  54.367  1.00  0.00    -0.201 OA
HETATM    5  O2  UNL     1      24.949   0.919  52.524  1.00  0.00    -0.201 OA
BRANCH   3   6
HETATM    6  C9  UNL     1      27.516   0.508  53.161  1.00  0.00     0.079 A 
HETATM    7  C10 UNL     1      27.349  -0.859  52.912  1.00  0.00     0.025 A 
HETATM    8  C11 UNL     1      28.386  -1.763  53.016  1.00  0.00     0.002 A 
HETATM    9  C12 UNL     1      29.662  -1.327  53.381  1.00  0.00     0.000 A 
HETATM   10  C13 UNL     1      29.819   0.036  53.626  1.00  0.00     0.002 A 
HETATM   11  C14 UNL     1      28.774   0.941  53.521  1.00  0.00     0.025 A 
ENDBRANCH   3   6
ENDBRANCH   1   3
BRANCH   1  12
HETATM   12  C1  UNL     1      26.482   2.559  50.555  1.00  0.00     0.137 C 
BRANCH  12  13
HETATM   13  C2  UNL     1      25.454   3.440  49.853  1.00  0.00     0.060 C 
BRANCH  13  14
HETATM   14  C3  UNL     1      26.222   4.557  49.242  1.00  0.00    -0.032 A 
HETATM   15  C4  UNL     1      27.554   4.383  48.934  1.00  0.00     0.045 A 
HETATM   16  C5  UNL     1      28.284   5.428  48.359  1.00  0.00     0.066 A 
HETATM   17  C6  UNL     1      27.675   6.642  48.096  1.00  0.00     0.038 A 
HETATM   18  C7  UNL     1      26.335   6.801  48.411  1.00  0.00     0.027 A 
HETATM   19  C8  UNL     1      25.614   5.769  48.979  1.00  0.00     0.040 A 
HETATM   20 CL1  UNL     1      23.924   6.048  49.349  1.00  0.00    -0.084 Cl
BRANCH  16  21
HETATM   21  O3  UNL     1      29.619   5.162  48.083  1.00  0.00    -0.361 OA
HETATM   22  H7  UNL     1      30.372   5.491  48.643  1.00  0.00     0.217 HD
ENDBRANCH  16  21
ENDBRANCH  13  14
ENDBRANCH  12  13
ENDBRANCH   1  12
TORSDOF 6
ENDMDL
