MODEL 1
REMARK VINA RESULT:      -8.7      0.000      0.000
REMARK  4 active torsions:
REMARK  status: ('A' for Active; 'I' for Inactive)
REMARK    1  A    between atoms: O1_1  and  C1_2 
REMARK    2  A    between atoms: C1_2  and  C2_3 
REMARK    3  A    between atoms: C3_6  and  N1_7 
REMARK    4  A    between atoms: C12_17  and  C13_18 
ROOT
HETATM    1  N1  UNL     1      24.933   2.266  52.172  1.00  0.00    -0.259 N 
HETATM    2  N2  UNL     1      26.135   2.547  52.879  1.00  0.00    -0.295 N 
HETATM    3  C4  UNL     1      27.173   1.623  53.255  1.00  0.00     0.054 A 
HETATM    4  C5  UNL     1      28.369   2.170  53.632  1.00  0.00     0.031 A 
HETATM    5  C6  UNL     1      29.439   1.411  54.013  1.00  0.00     0.002 A 
HETATM    6  C7  UNL     1      29.345   0.044  54.028  1.00  0.00     0.001 A 
HETATM    7  C8  UNL     1      28.152  -0.562  53.653  1.00  0.00     0.009 A 
HETATM    8  C9  UNL     1      27.075   0.235  53.269  1.00  0.00    -0.030 A 
HETATM    9  C10 UNL     1      25.918  -0.656  52.915  1.00  0.00     0.043 C 
HETATM   10  C11 UNL     1      24.670   0.132  53.152  1.00  0.00     0.037 C 
HETATM   11  C12 UNL     1      24.293   1.005  51.944  1.00  0.00     0.143 C 
HETATM   12  H4  UNL     1      26.378   3.528  53.207  1.00  0.00     0.187 HD
ENDROOT
BRANCH   1  13
HETATM   13  C3  UNL     1      24.468   3.589  51.700  1.00  0.00     0.189 A 
HETATM   14  S1  UNL     1      22.947   4.581  52.338  1.00  0.00    -0.047 SA
HETATM   15  P1  UNL     1      23.373   6.252  50.884  1.00  0.00     0.051 P 
HETATM   16  C2  UNL     1      24.900   5.234  50.260  1.00  0.00     0.081 A 
HETATM   17  N3  UNL     1      24.960   4.251  50.852  1.00  0.00    -0.224 NA
BRANCH  16  18
HETATM   18  C1  UNL     1      25.684   5.944  49.130  1.00  0.00     0.225 C 
BRANCH  18  19
HETATM   19  O1  UNL     1      26.779   6.574  49.670  1.00  0.00    -0.395 OA
HETATM   20  H1  UNL     1      26.998   6.270  50.581  1.00  0.00     0.209 HD
ENDBRANCH  18  19
ENDBRANCH  16  18
ENDBRANCH   1  13
BRANCH  11  21
HETATM   21  C13 UNL     1      22.825   1.025  51.916  1.00  0.00    -0.033 A 
HETATM   22  C14 UNL     1      22.058   1.083  50.776  1.00  0.00     0.009 A 
HETATM   23  C15 UNL     1      20.677   1.095  50.811  1.00  0.00     0.001 A 
HETATM   24  C16 UNL     1      20.017   1.047  52.030  1.00  0.00     0.000 A 
HETATM   25  C17 UNL     1      20.743   0.990  53.200  1.00  0.00     0.001 A 
HETATM   26  C18 UNL     1      22.108   0.980  53.119  1.00  0.00     0.009 A 
ENDBRANCH  11  21
TORSDOF 4
ENDMDL
MODEL 2
REMARK VINA RESULT:      -8.6      3.465      5.733
REMARK  4 active torsions:
REMARK  status: ('A' for Active; 'I' for Inactive)
REMARK    1  A    between atoms: O1_1  and  C1_2 
REMARK    2  A    between atoms: C1_2  and  C2_3 
REMARK    3  A    between atoms: C3_6  and  N1_7 
REMARK    4  A    between atoms: C12_17  and  C13_18 
ROOT
HETATM    1  N1  UNL     1      25.852   2.133  51.676  1.00  0.00    -0.259 N 
HETATM    2  N2  UNL     1      26.608   2.730  50.629  1.00  0.00    -0.295 N 
HETATM    3  C4  UNL     1      26.308   3.937  49.902  1.00  0.00     0.054 A 
HETATM    4  C5  UNL     1      27.332   4.484  49.180  1.00  0.00     0.031 A 
HETATM    5  C6  UNL     1      27.187   5.627  48.445  1.00  0.00     0.002 A 
HETATM    6  C7  UNL     1      25.981   6.276  48.410  1.00  0.00     0.001 A 
HETATM    7  C8  UNL     1      24.908   5.762  49.127  1.00  0.00     0.009 A 
HETATM    8  C9  UNL     1      25.082   4.595  49.869  1.00  0.00    -0.030 A 
HETATM    9  C10 UNL     1      23.784   4.255  50.544  1.00  0.00     0.043 C 
HETATM   10  C11 UNL     1      23.773   2.775  50.754  1.00  0.00     0.037 C 
HETATM   11  C12 UNL     1      24.489   2.365  52.051  1.00  0.00     0.143 C 
HETATM   12  H4  UNL     1      27.515   2.305  50.277  1.00  0.00     0.187 HD
ENDROOT
BRANCH   1  13
HETATM   13  C3  UNL     1      26.798   1.198  52.322  1.00  0.00     0.189 A 
HETATM   14  S1  UNL     1      28.295   1.651  53.446  1.00  0.00    -0.047 SA
HETATM   15  P1  UNL     1      28.811  -0.529  53.710  1.00  0.00     0.051 P 
HETATM   16  C2  UNL     1      27.298  -0.959  52.576  1.00  0.00     0.081 A 
HETATM   17  N3  UNL     1      26.786   0.017  52.252  1.00  0.00    -0.224 NA
BRANCH  16  18
HETATM   18  C1  UNL     1      27.115  -2.480  52.359  1.00  0.00     0.225 C 
BRANCH  18  19
HETATM   19  O1  UNL     1      28.216  -3.140  52.848  1.00  0.00    -0.395 OA
HETATM   20  H1  UNL     1      28.460  -2.873  53.764  1.00  0.00     0.209 HD
ENDBRANCH  18  19
ENDBRANCH  16  18
ENDBRANCH   1  13
BRANCH  11  21
HETATM   21  C13 UNL     1      23.754   1.197  52.552  1.00  0.00    -0.033 A 
HETATM   22  C14 UNL     1      24.087   0.479  53.678  1.00  0.00     0.009 A 
HETATM   23  C15 UNL     1      23.354  -0.611  54.105  1.00  0.00     0.001 A 
HETATM   24  C16 UNL     1      22.237  -1.016  53.390  1.00  0.00     0.000 A 
HETATM   25  C17 UNL     1      21.864  -0.328  52.256  1.00  0.00     0.001 A 
HETATM   26  C18 UNL     1      22.619   0.745  51.869  1.00  0.00     0.009 A 
ENDBRANCH  11  21
TORSDOF 4
ENDMDL
MODEL 3
REMARK VINA RESULT:      -8.5      1.780      5.616
REMARK  4 active torsions:
REMARK  status: ('A' for Active; 'I' for Inactive)
REMARK    1  A    between atoms: O1_1  and  C1_2 
REMARK    2  A    between atoms: C1_2  and  C2_3 
REMARK    3  A    between atoms: C3_6  and  N1_7 
REMARK    4  A    between atoms: C12_17  and  C13_18 
ROOT
HETATM    1  N1  UNL     1      23.756   1.745  52.134  1.00  0.00    -0.259 N 
HETATM    2  N2  UNL     1      22.525   1.452  51.484  1.00  0.00    -0.295 N 
HETATM    3  C4  UNL     1      21.399   0.726  52.013  1.00  0.00     0.054 A 
HETATM    4  C5  UNL     1      20.218   0.853  51.334  1.00  0.00     0.031 A 
HETATM    5  C6  UNL     1      19.072   0.221  51.726  1.00  0.00     0.002 A 
HETATM    6  C7  UNL     1      19.070  -0.579  52.838  1.00  0.00     0.001 A 
HETATM    7  C8  UNL     1      20.244  -0.740  53.564  1.00  0.00     0.009 A 
HETATM    8  C9  UNL     1      21.400  -0.085  53.144  1.00  0.00    -0.030 A 
HETATM    9  C10 UNL     1      22.517  -0.423  54.091  1.00  0.00     0.043 C 
HETATM   10  C11 UNL     1      23.794  -0.296  53.324  1.00  0.00     0.037 C 
HETATM   11  C12 UNL     1      24.323   1.147  53.307  1.00  0.00     0.143 C 
HETATM   12  H4  UNL     1      22.325   1.767  50.490  1.00  0.00     0.187 HD
ENDROOT
BRANCH   1  13
HETATM   13  C3  UNL     1      24.346   2.835  51.326  1.00  0.00     0.189 A 
HETATM   14  S1  UNL     1      25.756   2.683  50.024  1.00  0.00    -0.047 SA
HETATM   15  P1  UNL     1      25.666   4.897  49.606  1.00  0.00     0.051 P 
HETATM   16  C2  UNL     1      24.247   5.023  50.921  1.00  0.00     0.081 A 
HETATM   17  N3  UNL     1      24.044   3.978  51.352  1.00  0.00    -0.224 NA
BRANCH  16  18
HETATM   18  C1  UNL     1      23.713   6.465  51.102  1.00  0.00     0.225 C 
BRANCH  18  19
HETATM   19  O1  UNL     1      24.448   7.098  52.076  1.00  0.00    -0.395 OA
HETATM   20  H1  UNL     1      24.296   8.070  52.113  1.00  0.00     0.209 HD
ENDBRANCH  18  19
ENDBRANCH  16  18
ENDBRANCH   1  13
BRANCH  11  21
HETATM   21  C13 UNL     1      25.786   1.030  53.323  1.00  0.00    -0.033 A 
HETATM   22  C14 UNL     1      26.654   2.029  53.700  1.00  0.00     0.009 A 
HETATM   23  C15 UNL     1      28.025   1.859  53.700  1.00  0.00     0.001 A 
HETATM   24  C16 UNL     1      28.570   0.645  53.310  1.00  0.00     0.000 A 
HETATM   25  C17 UNL     1      27.741  -0.386  52.924  1.00  0.00     0.001 A 
HETATM   26  C18 UNL     1      26.390  -0.174  52.939  1.00  0.00     0.009 A 
ENDBRANCH  11  21
TORSDOF 4
ENDMDL
MODEL 4
REMARK VINA RESULT:      -8.4      1.933      5.757
REMARK  4 active torsions:
REMARK  status: ('A' for Active; 'I' for Inactive)
REMARK    1  A    between atoms: O1_1  and  C1_2 
REMARK    2  A    between atoms: C1_2  and  C2_3 
REMARK    3  A    between atoms: C3_6  and  N1_7 
REMARK    4  A    between atoms: C12_17  and  C13_18 
ROOT
HETATM    1  N1  UNL     1      22.742   1.652  51.874  1.00  0.00    -0.259 N 
HETATM    2  N2  UNL     1      21.526   1.210  51.282  1.00  0.00    -0.295 N 
HETATM    3  C4  UNL     1      20.474   0.441  51.896  1.00  0.00     0.054 A 
HETATM    4  C5  UNL     1      19.274   0.417  51.241  1.00  0.00     0.031 A 
HETATM    5  C6  UNL     1      18.192  -0.271  51.711  1.00  0.00     0.002 A 
HETATM    6  C7  UNL     1      18.278  -0.977  52.883  1.00  0.00     0.001 A 
HETATM    7  C8  UNL     1      19.475  -0.985  53.587  1.00  0.00     0.009 A 
HETATM    8  C9  UNL     1      20.565  -0.275  53.087  1.00  0.00    -0.030 A 
HETATM    9  C10 UNL     1      21.725  -0.445  54.027  1.00  0.00     0.043 C 
HETATM   10  C11 UNL     1      22.971  -0.278  53.219  1.00  0.00     0.037 C 
HETATM   11  C12 UNL     1      23.379   1.198  53.074  1.00  0.00     0.143 C 
HETATM   12  H4  UNL     1      21.281   1.427  50.272  1.00  0.00     0.187 HD
ENDROOT
BRANCH   1  13
HETATM   13  C3  UNL     1      23.224   2.717  50.968  1.00  0.00     0.189 A 
HETATM   14  S1  UNL     1      22.188   4.149  50.205  1.00  0.00    -0.047 SA
HETATM   15  P1  UNL     1      24.004   4.948  49.132  1.00  0.00     0.051 P 
HETATM   16  C2  UNL     1      25.025   3.497  49.914  1.00  0.00     0.081 A 
HETATM   17  N3  UNL     1      24.327   2.860  50.567  1.00  0.00    -0.224 NA
BRANCH  16  18
HETATM   18  C1  UNL     1      26.516   3.511  49.498  1.00  0.00     0.225 C 
BRANCH  18  19
HETATM   19  O1  UNL     1      27.291   3.725  50.612  1.00  0.00    -0.395 OA
HETATM   20  H1  UNL     1      27.516   2.899  51.099  1.00  0.00     0.209 HD
ENDBRANCH  18  19
ENDBRANCH  16  18
ENDBRANCH   1  13
BRANCH  11  21
HETATM   21  C13 UNL     1      24.847   1.200  53.061  1.00  0.00    -0.033 A 
HETATM   22  C14 UNL     1      25.641   2.144  53.672  1.00  0.00     0.009 A 
HETATM   23  C15 UNL     1      27.020   2.091  53.630  1.00  0.00     0.001 A 
HETATM   24  C16 UNL     1      27.652   1.059  52.953  1.00  0.00     0.000 A 
HETATM   25  C17 UNL     1      26.900   0.090  52.325  1.00  0.00     0.001 A 
HETATM   26  C18 UNL     1      25.537   0.180  52.392  1.00  0.00     0.009 A 
ENDBRANCH  11  21
TORSDOF 4
ENDMDL
MODEL 5
REMARK VINA RESULT:      -8.3      3.225      4.976
REMARK  4 active torsions:
REMARK  status: ('A' for Active; 'I' for Inactive)
REMARK    1  A    between atoms: O1_1  and  C1_2 
REMARK    2  A    between atoms: C1_2  and  C2_3 
REMARK    3  A    between atoms: C3_6  and  N1_7 
REMARK    4  A    between atoms: C12_17  and  C13_18 
ROOT
HETATM    1  N1  UNL     1      24.930   1.071  52.574  1.00  0.00    -0.259 N 
HETATM    2  N2  UNL     1      25.644  -0.152  52.439  1.00  0.00    -0.295 N 
HETATM    3  C4  UNL     1      27.013  -0.418  52.799  1.00  0.00     0.054 A 
HETATM    4  C5  UNL     1      27.376  -1.734  52.883  1.00  0.00     0.031 A 
HETATM    5  C6  UNL     1      28.641  -2.130  53.215  1.00  0.00     0.002 A 
HETATM    6  C7  UNL     1      29.608  -1.197  53.481  1.00  0.00     0.001 A 
HETATM    7  C8  UNL     1      29.291   0.154  53.410  1.00  0.00     0.009 A 
HETATM    8  C9  UNL     1      27.994   0.532  53.070  1.00  0.00    -0.030 A 
HETATM    9  C10 UNL     1      27.914   2.032  53.063  1.00  0.00     0.043 C 
HETATM   10  C11 UNL     1      26.823   2.409  52.113  1.00  0.00     0.037 C 
HETATM   11  C12 UNL     1      25.438   2.395  52.780  1.00  0.00     0.143 C 
HETATM   12  H4  UNL     1      25.193  -1.025  52.036  1.00  0.00     0.187 HD
ENDROOT
BRANCH   1  13
HETATM   13  C3  UNL     1      23.508   0.679  52.461  1.00  0.00     0.189 A 
HETATM   14  S1  UNL     1      22.274   1.173  51.069  1.00  0.00    -0.047 SA
HETATM   15  P1  UNL     1      20.623  -0.003  52.057  1.00  0.00     0.051 P 
HETATM   16  C2  UNL     1      21.884  -0.485  53.447  1.00  0.00     0.081 A 
HETATM   17  N3  UNL     1      22.900  -0.003  53.213  1.00  0.00    -0.224 NA
BRANCH  16  18
HETATM   18  C1  UNL     1      21.266  -1.389  54.541  1.00  0.00     0.225 C 
BRANCH  18  19
HETATM   19  O1  UNL     1      22.267  -1.848  55.363  1.00  0.00    -0.395 OA
HETATM   20  H1  UNL     1      22.888  -1.143  55.659  1.00  0.00     0.209 HD
ENDBRANCH  18  19
ENDBRANCH  16  18
ENDBRANCH   1  13
BRANCH  11  21
HETATM   21  C13 UNL     1      24.682   3.479  52.139  1.00  0.00    -0.033 A 
HETATM   22  C14 UNL     1      23.703   4.228  52.750  1.00  0.00     0.009 A 
HETATM   23  C15 UNL     1      23.028   5.240  52.097  1.00  0.00     0.001 A 
HETATM   24  C16 UNL     1      23.331   5.531  50.775  1.00  0.00     0.000 A 
HETATM   25  C17 UNL     1      24.304   4.808  50.120  1.00  0.00     0.001 A 
HETATM   26  C18 UNL     1      24.947   3.815  50.805  1.00  0.00     0.009 A 
ENDBRANCH  11  21
TORSDOF 4
ENDMDL
MODEL 6
REMARK VINA RESULT:      -8.3      1.213      1.555
REMARK  4 active torsions:
REMARK  status: ('A' for Active; 'I' for Inactive)
REMARK    1  A    between atoms: O1_1  and  C1_2 
REMARK    2  A    between atoms: C1_2  and  C2_3 
REMARK    3  A    between atoms: C3_6  and  N1_7 
REMARK    4  A    between atoms: C12_17  and  C13_18 
ROOT
HETATM    1  N1  UNL     1      24.584   2.031  52.336  1.00  0.00    -0.259 N 
HETATM    2  N2  UNL     1      25.813   2.466  52.902  1.00  0.00    -0.295 N 
HETATM    3  C4  UNL     1      26.958   1.664  53.249  1.00  0.00     0.054 A 
HETATM    4  C5  UNL     1      28.130   2.335  53.469  1.00  0.00     0.031 A 
HETATM    5  C6  UNL     1      29.291   1.699  53.804  1.00  0.00     0.002 A 
HETATM    6  C7  UNL     1      29.319   0.336  53.934  1.00  0.00     0.001 A 
HETATM    7  C8  UNL     1      28.156  -0.394  53.720  1.00  0.00     0.009 A 
HETATM    8  C9  UNL     1      26.984   0.278  53.379  1.00  0.00    -0.030 A 
HETATM    9  C10 UNL     1      25.883  -0.729  53.206  1.00  0.00     0.043 C 
HETATM   10  C11 UNL     1      24.596  -0.027  53.497  1.00  0.00     0.037 C 
HETATM   11  C12 UNL     1      24.040   0.707  52.266  1.00  0.00     0.143 C 
HETATM   12  H4  UNL     1      25.998   3.487  53.130  1.00  0.00     0.187 HD
ENDROOT
BRANCH   1  13
HETATM   13  C3  UNL     1      23.966   3.267  51.809  1.00  0.00     0.189 A 
HETATM   14  S1  UNL     1      23.352   4.783  52.825  1.00  0.00    -0.047 SA
HETATM   15  P1  UNL     1      22.700   5.836  50.940  1.00  0.00     0.051 P 
HETATM   16  C2  UNL     1      23.325   4.298  49.940  1.00  0.00     0.081 A 
HETATM   17  N3  UNL     1      23.748   3.523  50.674  1.00  0.00    -0.224 NA
BRANCH  16  18
HETATM   18  C1  UNL     1      23.123   4.443  48.412  1.00  0.00     0.225 C 
BRANCH  18  19
HETATM   19  O1  UNL     1      23.355   5.748  48.050  1.00  0.00    -0.395 OA
HETATM   20  H1  UNL     1      22.616   6.152  47.540  1.00  0.00     0.209 HD
ENDBRANCH  18  19
ENDBRANCH  16  18
ENDBRANCH   1  13
BRANCH  11  21
HETATM   21  C13 UNL     1      22.579   0.607  52.376  1.00  0.00    -0.033 A 
HETATM   22  C14 UNL     1      21.874   0.614  53.557  1.00  0.00     0.009 A 
HETATM   23  C15 UNL     1      20.497   0.522  53.599  1.00  0.00     0.001 A 
HETATM   24  C16 UNL     1      19.776   0.418  52.419  1.00  0.00     0.000 A 
HETATM   25  C17 UNL     1      20.437   0.406  51.211  1.00  0.00     0.001 A 
HETATM   26  C18 UNL     1      21.802   0.499  51.216  1.00  0.00     0.009 A 
ENDBRANCH  11  21
TORSDOF 4
ENDMDL
MODEL 7
REMARK VINA RESULT:      -7.9      3.392      6.617
REMARK  4 active torsions:
REMARK  status: ('A' for Active; 'I' for Inactive)
REMARK    1  A    between atoms: O1_1  and  C1_2 
REMARK    2  A    between atoms: C1_2  and  C2_3 
REMARK    3  A    between atoms: C3_6  and  N1_7 
REMARK    4  A    between atoms: C12_17  and  C13_18 
ROOT
HETATM    1  N1  UNL     1      24.579   1.778  51.683  1.00  0.00    -0.259 N 
HETATM    2  N2  UNL     1      23.771   2.932  51.487  1.00  0.00    -0.295 N 
HETATM    3  C4  UNL     1      23.959   3.988  50.526  1.00  0.00     0.054 A 
HETATM    4  C5  UNL     1      22.889   4.810  50.305  1.00  0.00     0.031 A 
HETATM    5  C6  UNL     1      22.929   5.850  49.421  1.00  0.00     0.002 A 
HETATM    6  C7  UNL     1      24.071   6.107  48.708  1.00  0.00     0.001 A 
HETATM    7  C8  UNL     1      25.187   5.301  48.895  1.00  0.00     0.009 A 
HETATM    8  C9  UNL     1      25.121   4.246  49.803  1.00  0.00    -0.030 A 
HETATM    9  C10 UNL     1      26.445   3.537  49.816  1.00  0.00     0.043 C 
HETATM   10  C11 UNL     1      26.590   2.904  51.163  1.00  0.00     0.037 C 
HETATM   11  C12 UNL     1      25.916   1.525  51.235  1.00  0.00     0.143 C 
HETATM   12  H4  UNL     1      22.906   3.119  52.074  1.00  0.00     0.187 HD
ENDROOT
BRANCH   1  13
HETATM   13  C3  UNL     1      23.723   0.861  52.466  1.00  0.00     0.189 A 
HETATM   14  S1  UNL     1      21.878   0.423  52.130  1.00  0.00    -0.047 SA
HETATM   15  P1  UNL     1      21.834  -0.952  53.917  1.00  0.00     0.051 P 
HETATM   16  C2  UNL     1      23.692  -0.496  54.234  1.00  0.00     0.081 A 
HETATM   17  N3  UNL     1      24.036   0.246  53.427  1.00  0.00    -0.224 NA
BRANCH  16  18
HETATM   18  C1  UNL     1      24.290  -1.209  55.470  1.00  0.00     0.225 C 
BRANCH  18  19
HETATM   19  O1  UNL     1      23.308  -1.952  56.080  1.00  0.00    -0.395 OA
HETATM   20  H1  UNL     1      23.183  -1.732  57.032  1.00  0.00     0.209 HD
ENDBRANCH  18  19
ENDBRANCH  16  18
ENDBRANCH   1  13
BRANCH  11  21
HETATM   21  C13 UNL     1      26.754   0.724  52.136  1.00  0.00    -0.033 A 
HETATM   22  C14 UNL     1      26.871  -0.646  52.096  1.00  0.00     0.009 A 
HETATM   23  C15 UNL     1      27.681  -1.347  52.969  1.00  0.00     0.001 A 
HETATM   24  C16 UNL     1      28.413  -0.665  53.929  1.00  0.00     0.000 A 
HETATM   25  C17 UNL     1      28.329   0.708  54.009  1.00  0.00     0.001 A 
HETATM   26  C18 UNL     1      27.515   1.361  53.125  1.00  0.00     0.009 A 
ENDBRANCH  11  21
TORSDOF 4
ENDMDL
MODEL 8
REMARK VINA RESULT:      -7.8      2.978      5.657
REMARK  4 active torsions:
REMARK  status: ('A' for Active; 'I' for Inactive)
REMARK    1  A    between atoms: O1_1  and  C1_2 
REMARK    2  A    between atoms: C1_2  and  C2_3 
REMARK    3  A    between atoms: C3_6  and  N1_7 
REMARK    4  A    between atoms: C12_17  and  C13_18 
ROOT
HETATM    1  N1  UNL     1      23.540   3.486  50.213  1.00  0.00    -0.259 N 
HETATM    2  N2  UNL     1      22.809   2.279  50.389  1.00  0.00    -0.295 N 
HETATM    3  C4  UNL     1      22.908   1.338  51.476  1.00  0.00     0.054 A 
HETATM    4  C5  UNL     1      21.887   0.436  51.596  1.00  0.00     0.031 A 
HETATM    5  C6  UNL     1      21.853  -0.511  52.580  1.00  0.00     0.002 A 
HETATM    6  C7  UNL     1      22.866  -0.587  53.501  1.00  0.00     0.001 A 
HETATM    7  C8  UNL     1      23.926   0.308  53.423  1.00  0.00     0.009 A 
HETATM    8  C9  UNL     1      23.937   1.264  52.410  1.00  0.00    -0.030 A 
HETATM    9  C10 UNL     1      25.179   2.099  52.548  1.00  0.00     0.043 C 
HETATM   10  C11 UNL     1      25.511   2.619  51.186  1.00  0.00     0.037 C 
HETATM   11  C12 UNL     1      24.749   3.912  50.854  1.00  0.00     0.143 C 
HETATM   12  H4  UNL     1      22.082   1.953  49.687  1.00  0.00     0.187 HD
ENDROOT
BRANCH   1  13
HETATM   13  C3  UNL     1      22.766   4.238  49.202  1.00  0.00     0.189 A 
HETATM   14  S1  UNL     1      21.865   5.922  49.446  1.00  0.00    -0.047 SA
HETATM   15  P1  UNL     1      21.162   5.905  47.303  1.00  0.00     0.051 P 
HETATM   16  C2  UNL     1      22.077   4.210  47.083  1.00  0.00     0.081 A 
HETATM   17  N3  UNL     1      22.575   3.924  48.078  1.00  0.00    -0.224 NA
BRANCH  16  18
HETATM   18  C1  UNL     1      21.941   3.627  45.656  1.00  0.00     0.225 C 
BRANCH  18  19
HETATM   19  O1  UNL     1      22.053   4.646  44.741  1.00  0.00    -0.395 OA
HETATM   20  H1  UNL     1      22.910   5.129  44.795  1.00  0.00     0.209 HD
ENDBRANCH  18  19
ENDBRANCH  16  18
ENDBRANCH   1  13
BRANCH  11  21
HETATM   21  C13 UNL     1      25.666   4.708  50.030  1.00  0.00    -0.033 A 
HETATM   22  C14 UNL     1      25.574   6.067  49.834  1.00  0.00     0.009 A 
HETATM   23  C15 UNL     1      26.472   6.765  49.050  1.00  0.00     0.001 A 
HETATM   24  C16 UNL     1      27.512   6.093  48.426  1.00  0.00     0.000 A 
HETATM   25  C17 UNL     1      27.645   4.732  48.591  1.00  0.00     0.001 A 
HETATM   26  C18 UNL     1      26.734   4.080  49.376  1.00  0.00     0.009 A 
ENDBRANCH  11  21
TORSDOF 4
ENDMDL
MODEL 9
REMARK VINA RESULT:      -7.8      5.624      9.479
REMARK  4 active torsions:
REMARK  status: ('A' for Active; 'I' for Inactive)
REMARK    1  A    between atoms: O1_1  and  C1_2 
REMARK    2  A    between atoms: C1_2  and  C2_3 
REMARK    3  A    between atoms: C3_6  and  N1_7 
REMARK    4  A    between atoms: C12_17  and  C13_18 
ROOT
HETATM    1  N1  UNL     1      29.148   6.335  48.325  1.00  0.00    -0.259 N 
HETATM    2  N2  UNL     1      28.464   5.287  48.999  1.00  0.00    -0.295 N 
HETATM    3  C4  UNL     1      27.044   5.042  49.038  1.00  0.00     0.054 A 
HETATM    4  C5  UNL     1      26.650   3.805  49.469  1.00  0.00     0.031 A 
HETATM    5  C6  UNL     1      25.337   3.439  49.555  1.00  0.00     0.002 A 
HETATM    6  C7  UNL     1      24.350   4.321  49.203  1.00  0.00     0.001 A 
HETATM    7  C8  UNL     1      24.697   5.591  48.758  1.00  0.00     0.009 A 
HETATM    8  C9  UNL     1      26.044   5.940  48.679  1.00  0.00    -0.030 A 
HETATM    9  C10 UNL     1      26.147   7.352  48.175  1.00  0.00     0.043 C 
HETATM   10  C11 UNL     1      27.429   7.912  48.701  1.00  0.00     0.037 C 
HETATM   11  C12 UNL     1      28.629   7.565  47.804  1.00  0.00     0.143 C 
HETATM   12  H4  UNL     1      28.979   4.550  49.565  1.00  0.00     0.187 HD
ENDROOT
BRANCH   1  13
HETATM   13  C3  UNL     1      30.553   5.875  48.264  1.00  0.00     0.189 A 
HETATM   14  S1  UNL     1      32.014   6.454  49.376  1.00  0.00    -0.047 SA
HETATM   15  P1  UNL     1      33.436   5.074  48.298  1.00  0.00     0.051 P 
HETATM   16  C2  UNL     1      31.948   4.507  47.193  1.00  0.00     0.081 A 
HETATM   17  N3  UNL     1      31.004   5.074  47.520  1.00  0.00    -0.224 NA
BRANCH  16  18
HETATM   18  C1  UNL     1      32.345   3.446  46.138  1.00  0.00     0.225 C 
BRANCH  18  19
HETATM   19  O1  UNL     1      31.437   2.415  46.175  1.00  0.00    -0.395 OA
HETATM   20  H1  UNL     1      31.575   1.795  46.928  1.00  0.00     0.209 HD
ENDBRANCH  18  19
ENDBRANCH  16  18
ENDBRANCH   1  13
BRANCH  11  21
HETATM   21  C13 UNL     1      29.526   8.724  47.883  1.00  0.00    -0.033 A 
HETATM   22  C14 UNL     1      30.243   9.240  46.827  1.00  0.00     0.009 A 
HETATM   23  C15 UNL     1      31.070  10.339  46.960  1.00  0.00     0.001 A 
HETATM   24  C16 UNL     1      31.198  10.962  48.192  1.00  0.00     0.000 A 
HETATM   25  C17 UNL     1      30.501  10.481  49.279  1.00  0.00     0.001 A 
HETATM   26  C18 UNL     1      29.694   9.391  49.103  1.00  0.00     0.009 A 
ENDBRANCH  11  21
TORSDOF 4
ENDMDL
