MODEL 1
REMARK VINA RESULT:      -9.3      0.000      0.000
REMARK  5 active torsions:
REMARK  status: ('A' for Active; 'I' for Inactive)
REMARK    1  A    between atoms: N1_1  and  C1_2 
REMARK    2  A    between atoms: C5_8  and  C6_9 
REMARK    3  A    between atoms: N4_22  and  C18_23 
REMARK    4  A    between atoms: C20_25  and  C21_26 
REMARK    5  A    between atoms: C21_26  and  N5_27 
ROOT
HETATM    1  C1  UNL     1      26.810   1.986  53.021  1.00  0.00     0.117 A 
HETATM    2  N2  UNL     1      27.113   1.181  54.053  1.00  0.00    -0.229 NA
HETATM    3  C2  UNL     1      26.240   0.260  54.546  1.00  0.00     0.237 A 
HETATM    4  N3  UNL     1      25.012   0.171  53.945  1.00  0.00    -0.223 NA
HETATM    5  C3  UNL     1      24.693   0.962  52.920  1.00  0.00     0.145 A 
HETATM    6  C4  UNL     1      25.564   1.881  52.433  1.00  0.00     0.062 A 
HETATM    7  C5  UNL     1      25.120   2.605  51.360  1.00  0.00     0.007 A 
HETATM    8  C17 UNL     1      23.842   2.035  51.200  1.00  0.00     0.106 A 
HETATM    9  N4  UNL     1      23.620   1.082  52.120  1.00  0.00    -0.335 N 
ENDROOT
BRANCH   7  10
HETATM   10  C6  UNL     1      25.540   3.770  50.602  1.00  0.00    -0.027 C 
HETATM   11  C7  UNL     1      26.594   3.477  49.811  1.00  0.00    -0.013 C 
HETATM   12  C8  UNL     1      27.275   4.464  48.883  1.00  0.00     0.005 C 
HETATM   13  C9  UNL     1      27.394   5.711  48.338  1.00  0.00     0.062 C 
HETATM   14  C10 UNL     1      26.604   6.974  48.554  1.00  0.00    -0.056 C 
HETATM   15  C11 UNL     1      26.670   7.807  49.626  1.00  0.00    -0.010 C 
HETATM   16  C14 UNL     1      25.578   7.693  47.745  1.00  0.00     0.004 C 
HETATM   17  C12 UNL     1      25.330   8.402  49.804  1.00  0.00     0.042 C 
HETATM   18  C13 UNL     1      25.138   8.821  48.348  1.00  0.00    -0.017 C 
HETATM   19  O1  UNL     1      24.321   7.514  50.217  1.00  0.00     0.000 OA
HETATM   20  C15 UNL     1      24.493   6.215  50.563  1.00  0.00     0.001 C 
HETATM   21  C16 UNL     1      24.940   5.078  50.613  1.00  0.00     0.012 C 
ENDBRANCH   7  10
BRANCH   1  22
HETATM   22  N1  UNL     1      27.898   2.811  52.645  1.00  0.00    -0.286 NA
HETATM   23  H1  UNL     1      28.375   3.695  52.926  1.00  0.00     0.125 HD
HETATM   24  H2  UNL     1      27.852   3.601  53.355  1.00  0.00     0.125 HD
ENDBRANCH   1  22
BRANCH   9  25
HETATM   25  C18 UNL     1      22.447   0.215  52.331  1.00  0.00     0.092 C 
HETATM   26  C19 UNL     1      21.501   0.246  51.155  1.00  0.00     0.032 C 
HETATM   27  C20 UNL     1      20.356   0.334  52.149  1.00  0.00     0.018 C 
HETATM   28  C25 UNL     1      21.368   0.781  53.186  1.00  0.00     0.032 C 
BRANCH  27  29
HETATM   29  C21 UNL     1      19.334   1.391  51.784  1.00  0.00     0.277 C 
BRANCH  29  30
HETATM   30  N5  UNL     1      18.018   0.824  51.944  1.00  0.00     0.088 N 
HETATM   31  C22 UNL     1      17.780  -0.442  51.277  1.00  0.00     0.274 C 
HETATM   32  C23 UNL     1      17.441   0.327  50.020  1.00  0.00     0.060 C 
HETATM   33  C24 UNL     1      17.087   1.434  50.976  1.00  0.00     0.274 C 
ENDBRANCH  29  30
ENDBRANCH  27  29
ENDBRANCH   9  25
TORSDOF 5
ENDMDL
MODEL 2
REMARK VINA RESULT:      -8.8      4.206      6.699
REMARK  5 active torsions:
REMARK  status: ('A' for Active; 'I' for Inactive)
REMARK    1  A    between atoms: N1_1  and  C1_2 
REMARK    2  A    between atoms: C5_8  and  C6_9 
REMARK    3  A    between atoms: N4_22  and  C18_23 
REMARK    4  A    between atoms: C20_25  and  C21_26 
REMARK    5  A    between atoms: C21_26  and  N5_27 
ROOT
HETATM    1  C1  UNL     1      21.598  -0.690  53.829  1.00  0.00     0.117 A 
HETATM    2  N2  UNL     1      20.375  -1.139  54.157  1.00  0.00    -0.229 NA
HETATM    3  C2  UNL     1      19.272  -0.882  53.402  1.00  0.00     0.237 A 
HETATM    4  N3  UNL     1      19.446  -0.135  52.266  1.00  0.00    -0.223 NA
HETATM    5  C3  UNL     1      20.652   0.320  51.925  1.00  0.00     0.145 A 
HETATM    6  C4  UNL     1      21.750   0.064  52.681  1.00  0.00     0.062 A 
HETATM    7  C5  UNL     1      22.928   0.564  52.200  1.00  0.00     0.007 A 
HETATM    8  C17 UNL     1      22.464   1.177  51.020  1.00  0.00     0.106 A 
HETATM    9  N4  UNL     1      21.137   1.020  50.885  1.00  0.00    -0.335 N 
ENDROOT
BRANCH   7  10
HETATM   10  C6  UNL     1      24.294   0.734  52.665  1.00  0.00    -0.027 C 
HETATM   11  C7  UNL     1      24.512   2.004  53.066  1.00  0.00    -0.013 C 
HETATM   12  C8  UNL     1      25.828   2.519  53.616  1.00  0.00     0.005 C 
HETATM   13  C9  UNL     1      27.132   2.331  53.979  1.00  0.00     0.062 C 
HETATM   14  C10 UNL     1      28.011   1.111  53.942  1.00  0.00    -0.056 C 
HETATM   15  C11 UNL     1      28.590   0.552  52.847  1.00  0.00    -0.010 C 
HETATM   16  C14 UNL     1      28.516   0.178  54.991  1.00  0.00     0.004 C 
HETATM   17  C12 UNL     1      28.684  -0.901  53.092  1.00  0.00     0.042 C 
HETATM   18  C13 UNL     1      29.304  -0.797  54.483  1.00  0.00    -0.017 C 
HETATM   19  O1  UNL     1      27.461  -1.592  53.128  1.00  0.00     0.000 OA
HETATM   20  C15 UNL     1      26.240  -1.069  52.855  1.00  0.00     0.001 C 
HETATM   21  C16 UNL     1      25.316  -0.275  52.750  1.00  0.00     0.012 C 
ENDBRANCH   7  10
BRANCH   1  22
HETATM   22  N1  UNL     1      22.595  -1.141  54.729  1.00  0.00    -0.286 NA
HETATM   23  H1  UNL     1      22.902  -2.004  55.227  1.00  0.00     0.125 HD
HETATM   24  H2  UNL     1      22.350  -2.166  54.860  1.00  0.00     0.125 HD
ENDBRANCH   1  22
BRANCH   9  25
HETATM   25  C18 UNL     1      20.227   1.471  49.817  1.00  0.00     0.092 C 
HETATM   26  C19 UNL     1      20.947   1.663  48.504  1.00  0.00     0.032 C 
HETATM   27  C20 UNL     1      20.169   2.956  48.330  1.00  0.00     0.018 C 
HETATM   28  C25 UNL     1      19.892   2.921  49.820  1.00  0.00     0.032 C 
BRANCH  27  29
HETATM   29  C21 UNL     1      21.037   4.116  47.887  1.00  0.00     0.277 C 
BRANCH  29  30
HETATM   30  N5  UNL     1      20.434   4.715  46.723  1.00  0.00     0.088 N 
HETATM   31  C22 UNL     1      20.328   3.871  45.548  1.00  0.00     0.274 C 
HETATM   32  C23 UNL     1      21.741   4.266  45.183  1.00  0.00     0.060 C 
HETATM   33  C24 UNL     1      21.439   5.503  45.986  1.00  0.00     0.274 C 
ENDBRANCH  29  30
ENDBRANCH  27  29
ENDBRANCH   9  25
TORSDOF 5
ENDMDL
MODEL 3
REMARK VINA RESULT:      -8.6      1.111      1.915
REMARK  5 active torsions:
REMARK  status: ('A' for Active; 'I' for Inactive)
REMARK    1  A    between atoms: N1_1  and  C1_2 
REMARK    2  A    between atoms: C5_8  and  C6_9 
REMARK    3  A    between atoms: N4_22  and  C18_23 
REMARK    4  A    between atoms: C20_25  and  C21_26 
REMARK    5  A    between atoms: C21_26  and  N5_27 
ROOT
HETATM    1  C1  UNL     1      26.518   1.941  52.298  1.00  0.00     0.117 A 
HETATM    2  N2  UNL     1      26.986   0.888  52.987  1.00  0.00    -0.229 NA
HETATM    3  C2  UNL     1      26.193  -0.150  53.369  1.00  0.00     0.237 A 
HETATM    4  N3  UNL     1      24.869  -0.092  53.022  1.00  0.00    -0.223 NA
HETATM    5  C3  UNL     1      24.386   0.946  52.339  1.00  0.00     0.145 A 
HETATM    6  C4  UNL     1      25.179   1.980  51.961  1.00  0.00     0.062 A 
HETATM    7  C5  UNL     1      24.562   2.965  51.239  1.00  0.00     0.007 A 
HETATM    8  C17 UNL     1      23.257   2.438  51.184  1.00  0.00     0.106 A 
HETATM    9  N4  UNL     1      23.183   1.263  51.831  1.00  0.00    -0.335 N 
ENDROOT
BRANCH   7  10
HETATM   10  C6  UNL     1      24.869   4.302  50.764  1.00  0.00    -0.027 C 
HETATM   11  C7  UNL     1      24.074   5.219  51.356  1.00  0.00    -0.013 C 
HETATM   12  C8  UNL     1      24.136   6.710  51.094  1.00  0.00     0.005 C 
HETATM   13  C9  UNL     1      24.673   7.795  50.460  1.00  0.00     0.062 C 
HETATM   14  C10 UNL     1      25.781   7.911  49.447  1.00  0.00    -0.056 C 
HETATM   15  C11 UNL     1      25.720   7.596  48.127  1.00  0.00    -0.010 C 
HETATM   16  C14 UNL     1      27.196   8.376  49.525  1.00  0.00     0.004 C 
HETATM   17  C12 UNL     1      27.064   7.140  47.721  1.00  0.00     0.042 C 
HETATM   18  C13 UNL     1      27.830   8.310  48.332  1.00  0.00    -0.017 C 
HETATM   19  O1  UNL     1      27.482   5.914  48.269  1.00  0.00     0.000 OA
HETATM   20  C15 UNL     1      26.730   5.084  49.033  1.00  0.00     0.001 C 
HETATM   21  C16 UNL     1      25.890   4.678  49.823  1.00  0.00     0.012 C 
ENDBRANCH   7  10
BRANCH   1  22
HETATM   22  N1  UNL     1      27.543   2.858  51.957  1.00  0.00    -0.286 NA
HETATM   23  H1  UNL     1      27.784   3.868  52.047  1.00  0.00     0.125 HD
HETATM   24  H2  UNL     1      27.175   3.777  52.341  1.00  0.00     0.125 HD
ENDBRANCH   1  22
BRANCH   9  25
HETATM   25  C18 UNL     1      22.042   0.350  52.022  1.00  0.00     0.092 C 
HETATM   26  C19 UNL     1      21.171   0.267  50.792  1.00  0.00     0.032 C 
HETATM   27  C20 UNL     1      19.963   0.351  51.709  1.00  0.00     0.018 C 
HETATM   28  C25 UNL     1      20.886   0.906  52.776  1.00  0.00     0.032 C 
BRANCH  27  29
HETATM   29  C21 UNL     1      18.916   1.332  51.222  1.00  0.00     0.277 C 
BRANCH  29  30
HETATM   30  N5  UNL     1      17.625   0.880  51.677  1.00  0.00     0.088 N 
HETATM   31  C22 UNL     1      17.315  -0.517  51.442  1.00  0.00     0.274 C 
HETATM   32  C23 UNL     1      16.842  -0.141  50.056  1.00  0.00     0.060 C 
HETATM   33  C24 UNL     1      16.596   1.209  50.673  1.00  0.00     0.274 C 
ENDBRANCH  29  30
ENDBRANCH  27  29
ENDBRANCH   9  25
TORSDOF 5
ENDMDL
MODEL 4
REMARK VINA RESULT:      -8.4      3.158      6.147
REMARK  5 active torsions:
REMARK  status: ('A' for Active; 'I' for Inactive)
REMARK    1  A    between atoms: N1_1  and  C1_2 
REMARK    2  A    between atoms: C5_8  and  C6_9 
REMARK    3  A    between atoms: N4_22  and  C18_23 
REMARK    4  A    between atoms: C20_25  and  C21_26 
REMARK    5  A    between atoms: C21_26  and  N5_27 
ROOT
HETATM    1  C1  UNL     1      23.475   5.815  48.185  1.00  0.00     0.117 A 
HETATM    2  N2  UNL     1      22.239   5.343  47.955  1.00  0.00    -0.229 NA
HETATM    3  C2  UNL     1      21.785   4.179  48.496  1.00  0.00     0.237 A 
HETATM    4  N3  UNL     1      22.645   3.483  49.305  1.00  0.00    -0.223 NA
HETATM    5  C3  UNL     1      23.876   3.936  49.544  1.00  0.00     0.145 A 
HETATM    6  C4  UNL     1      24.327   5.095  49.001  1.00  0.00     0.062 A 
HETATM    7  C5  UNL     1      25.598   5.458  49.353  1.00  0.00     0.007 A 
HETATM    8  C17 UNL     1      25.924   4.386  50.207  1.00  0.00     0.106 A 
HETATM    9  N4  UNL     1      24.905   3.516  50.300  1.00  0.00    -0.335 N 
ENDROOT
BRANCH   7  10
HETATM   10  C6  UNL     1      26.584   6.444  48.950  1.00  0.00    -0.027 C 
HETATM   11  C7  UNL     1      27.610   5.860  48.293  1.00  0.00    -0.013 C 
HETATM   12  C8  UNL     1      28.805   6.603  47.729  1.00  0.00     0.005 C 
HETATM   13  C9  UNL     1      29.502   7.756  47.500  1.00  0.00     0.062 C 
HETATM   14  C10 UNL     1      29.208   9.187  47.862  1.00  0.00    -0.056 C 
HETATM   15  C11 UNL     1      29.323   9.762  49.088  1.00  0.00    -0.010 C 
HETATM   16  C14 UNL     1      28.742  10.368  47.078  1.00  0.00     0.004 C 
HETATM   17  C12 UNL     1      28.297  10.820  49.176  1.00  0.00     0.042 C 
HETATM   18  C13 UNL     1      28.622  11.480  47.838  1.00  0.00    -0.017 C 
HETATM   19  O1  UNL     1      26.965  10.373  49.214  1.00  0.00     0.000 OA
HETATM   20  C15 UNL     1      26.557   9.082  49.287  1.00  0.00     0.001 C 
HETATM   21  C16 UNL     1      26.527   7.867  49.154  1.00  0.00     0.012 C 
ENDBRANCH   7  10
BRANCH   1  22
HETATM   22  N1  UNL     1      23.693   7.073  47.570  1.00  0.00    -0.286 NA
HETATM   23  H1  UNL     1      23.349   8.057  47.601  1.00  0.00     0.125 HD
HETATM   24  H2  UNL     1      22.993   7.702  48.062  1.00  0.00     0.125 HD
ENDBRANCH   1  22
BRANCH   9  25
HETATM   25  C18 UNL     1      24.783   2.270  51.077  1.00  0.00     0.092 C 
HETATM   26  C19 UNL     1      24.804   2.527  52.565  1.00  0.00     0.032 C 
HETATM   27  C20 UNL     1      25.736   1.336  52.702  1.00  0.00     0.018 C 
HETATM   28  C25 UNL     1      26.030   1.471  51.221  1.00  0.00     0.032 C 
BRANCH  27  29
HETATM   29  C21 UNL     1      26.925   1.614  53.599  1.00  0.00     0.277 C 
BRANCH  29  30
HETATM   30  N5  UNL     1      27.239   0.407  54.322  1.00  0.00     0.088 N 
HETATM   31  C22 UNL     1      28.567   0.334  54.902  1.00  0.00     0.274 C 
HETATM   32  C23 UNL     1      29.079  -0.172  53.573  1.00  0.00     0.060 C 
HETATM   33  C24 UNL     1      27.664  -0.646  53.381  1.00  0.00     0.274 C 
ENDBRANCH  29  30
ENDBRANCH  27  29
ENDBRANCH   9  25
TORSDOF 5
ENDMDL
MODEL 5
REMARK VINA RESULT:      -8.4      2.150      5.574
REMARK  5 active torsions:
REMARK  status: ('A' for Active; 'I' for Inactive)
REMARK    1  A    between atoms: N1_1  and  C1_2 
REMARK    2  A    between atoms: C5_8  and  C6_9 
REMARK    3  A    between atoms: N4_22  and  C18_23 
REMARK    4  A    between atoms: C20_25  and  C21_26 
REMARK    5  A    between atoms: C21_26  and  N5_27 
ROOT
HETATM    1  C1  UNL     1      22.491   3.584  49.463  1.00  0.00     0.117 A 
HETATM    2  N2  UNL     1      21.349   2.883  49.365  1.00  0.00    -0.229 NA
HETATM    3  C2  UNL     1      21.167   1.686  49.987  1.00  0.00     0.237 A 
HETATM    4  N3  UNL     1      22.206   1.202  50.738  1.00  0.00    -0.223 NA
HETATM    5  C3  UNL     1      23.347   1.883  50.846  1.00  0.00     0.145 A 
HETATM    6  C4  UNL     1      23.527   3.075  50.222  1.00  0.00     0.062 A 
HETATM    7  C5  UNL     1      24.733   3.681  50.442  1.00  0.00     0.007 A 
HETATM    8  C17 UNL     1      25.323   2.733  51.300  1.00  0.00     0.106 A 
HETATM    9  N4  UNL     1      24.496   1.699  51.519  1.00  0.00    -0.335 N 
ENDROOT
BRANCH   7  10
HETATM   10  C6  UNL     1      25.482   4.808  49.914  1.00  0.00    -0.027 C 
HETATM   11  C7  UNL     1      26.562   4.387  49.222  1.00  0.00    -0.013 C 
HETATM   12  C8  UNL     1      27.553   5.304  48.532  1.00  0.00     0.005 C 
HETATM   13  C9  UNL     1      27.996   6.551  48.188  1.00  0.00     0.062 C 
HETATM   14  C10 UNL     1      27.448   7.920  48.487  1.00  0.00    -0.056 C 
HETATM   15  C11 UNL     1      27.518   8.592  49.666  1.00  0.00    -0.010 C 
HETATM   16  C14 UNL     1      26.714   8.931  47.671  1.00  0.00     0.004 C 
HETATM   17  C12 UNL     1      26.311   9.436  49.765  1.00  0.00     0.042 C 
HETATM   18  C13 UNL     1      26.422  10.051  48.372  1.00  0.00    -0.017 C 
HETATM   19  O1  UNL     1      25.097   8.746  49.923  1.00  0.00     0.000 OA
HETATM   20  C15 UNL     1      24.956   7.408  50.099  1.00  0.00     0.001 C 
HETATM   21  C16 UNL     1      25.157   6.204  50.039  1.00  0.00     0.012 C 
ENDBRANCH   7  10
BRANCH   1  22
HETATM   22  N1  UNL     1      22.418   4.826  48.785  1.00  0.00    -0.286 NA
HETATM   23  H1  UNL     1      22.354   5.216  47.820  1.00  0.00     0.125 HD
HETATM   24  H2  UNL     1      22.374   4.536  47.764  1.00  0.00     0.125 HD
ENDBRANCH   1  22
BRANCH   9  25
HETATM   25  C18 UNL     1      24.673   0.494  52.349  1.00  0.00     0.092 C 
HETATM   26  C19 UNL     1      24.883   0.836  53.805  1.00  0.00     0.032 C 
HETATM   27  C20 UNL     1      25.987  -0.208  53.833  1.00  0.00     0.018 C 
HETATM   28  C25 UNL     1      26.029  -0.119  52.321  1.00  0.00     0.032 C 
BRANCH  27  29
HETATM   29  C21 UNL     1      27.246   0.280  54.520  1.00  0.00     0.277 C 
BRANCH  29  30
HETATM   30  N5  UNL     1      28.189   0.681  53.506  1.00  0.00     0.088 N 
HETATM   31  C22 UNL     1      29.592   0.561  53.852  1.00  0.00     0.274 C 
HETATM   32  C23 UNL     1      29.510   1.924  54.502  1.00  0.00     0.060 C 
HETATM   33  C24 UNL     1      28.373   2.144  53.542  1.00  0.00     0.274 C 
ENDBRANCH  29  30
ENDBRANCH  27  29
ENDBRANCH   9  25
TORSDOF 5
ENDMDL
MODEL 6
REMARK VINA RESULT:      -8.3      3.343      6.225
REMARK  5 active torsions:
REMARK  status: ('A' for Active; 'I' for Inactive)
REMARK    1  A    between atoms: N1_1  and  C1_2 
REMARK    2  A    between atoms: C5_8  and  C6_9 
REMARK    3  A    between atoms: N4_22  and  C18_23 
REMARK    4  A    between atoms: C20_25  and  C21_26 
REMARK    5  A    between atoms: C21_26  and  N5_27 
ROOT
HETATM    1  C1  UNL     1      23.591   6.549  47.646  1.00  0.00     0.117 A 
HETATM    2  N2  UNL     1      22.414   6.222  47.088  1.00  0.00    -0.229 NA
HETATM    3  C2  UNL     1      21.629   5.218  47.567  1.00  0.00     0.237 A 
HETATM    4  N3  UNL     1      22.082   4.533  48.664  1.00  0.00    -0.223 NA
HETATM    5  C3  UNL     1      23.248   4.843  49.230  1.00  0.00     0.145 A 
HETATM    6  C4  UNL     1      24.030   5.842  48.749  1.00  0.00     0.062 A 
HETATM    7  C5  UNL     1      25.185   6.075  49.443  1.00  0.00     0.007 A 
HETATM    8  C17 UNL     1      25.058   5.100  50.452  1.00  0.00     0.106 A 
HETATM    9  N4  UNL     1      23.922   4.399  50.304  1.00  0.00    -0.335 N 
ENDROOT
BRANCH   7  10
HETATM   10  C6  UNL     1      26.401   6.851  49.277  1.00  0.00    -0.027 C 
HETATM   11  C7  UNL     1      26.310   8.034  49.922  1.00  0.00    -0.013 C 
HETATM   12  C8  UNL     1      27.406   9.081  49.959  1.00  0.00     0.005 C 
HETATM   13  C9  UNL     1      28.653   9.524  49.620  1.00  0.00     0.062 C 
HETATM   14  C10 UNL     1      29.748   8.892  48.804  1.00  0.00    -0.056 C 
HETATM   15  C11 UNL     1      29.795   8.768  47.452  1.00  0.00    -0.010 C 
HETATM   16  C14 UNL     1      31.047   8.247  49.156  1.00  0.00     0.004 C 
HETATM   17  C12 UNL     1      30.541   7.531  47.148  1.00  0.00     0.042 C 
HETATM   18  C13 UNL     1      31.726   7.819  48.067  1.00  0.00    -0.017 C 
HETATM   19  O1  UNL     1      29.899   6.331  47.503  1.00  0.00     0.000 OA
HETATM   20  C15 UNL     1      28.638   6.214  47.988  1.00  0.00     0.001 C 
HETATM   21  C16 UNL     1      27.591   6.464  48.568  1.00  0.00     0.012 C 
ENDBRANCH   7  10
BRANCH   1  22
HETATM   22  N1  UNL     1      24.192   7.666  47.015  1.00  0.00    -0.286 NA
HETATM   23  H1  UNL     1      25.101   7.967  46.602  1.00  0.00     0.125 HD
HETATM   24  H2  UNL     1      25.182   7.329  46.829  1.00  0.00     0.125 HD
ENDBRANCH   1  22
BRANCH   9  25
HETATM   25  C18 UNL     1      23.366   3.303  51.118  1.00  0.00     0.092 C 
HETATM   26  C19 UNL     1      23.698   3.460  52.582  1.00  0.00     0.032 C 
HETATM   27  C20 UNL     1      24.014   1.975  52.613  1.00  0.00     0.018 C 
HETATM   28  C25 UNL     1      24.135   2.029  51.103  1.00  0.00     0.032 C 
BRANCH  27  29
HETATM   29  C21 UNL     1      25.312   1.660  53.329  1.00  0.00     0.277 C 
BRANCH  29  30
HETATM   30  N5  UNL     1      25.221   0.325  53.865  1.00  0.00     0.088 N 
HETATM   31  C22 UNL     1      26.207  -0.033  54.867  1.00  0.00     0.274 C 
HETATM   32  C23 UNL     1      27.155  -0.403  53.750  1.00  0.00     0.060 C 
HETATM   33  C24 UNL     1      25.893  -0.626  52.960  1.00  0.00     0.274 C 
ENDBRANCH  29  30
ENDBRANCH  27  29
ENDBRANCH   9  25
TORSDOF 5
ENDMDL
MODEL 7
REMARK VINA RESULT:      -8.3      4.502      6.265
REMARK  5 active torsions:
REMARK  status: ('A' for Active; 'I' for Inactive)
REMARK    1  A    between atoms: N1_1  and  C1_2 
REMARK    2  A    between atoms: C5_8  and  C6_9 
REMARK    3  A    between atoms: N4_22  and  C18_23 
REMARK    4  A    between atoms: C20_25  and  C21_26 
REMARK    5  A    between atoms: C21_26  and  N5_27 
ROOT
HETATM    1  C1  UNL     1      21.621  -1.057  54.115  1.00  0.00     0.117 A 
HETATM    2  N2  UNL     1      20.465  -1.619  54.505  1.00  0.00    -0.229 NA
HETATM    3  C2  UNL     1      19.279  -1.363  53.889  1.00  0.00     0.237 A 
HETATM    4  N3  UNL     1      19.294  -0.493  52.830  1.00  0.00    -0.223 NA
HETATM    5  C3  UNL     1      20.432   0.075  52.429  1.00  0.00     0.145 A 
HETATM    6  C4  UNL     1      21.612  -0.180  53.047  1.00  0.00     0.062 A 
HETATM    7  C5  UNL     1      22.706   0.445  52.514  1.00  0.00     0.007 A 
HETATM    8  C17 UNL     1      22.090   1.143  51.457  1.00  0.00     0.106 A 
HETATM    9  N4  UNL     1      20.768   0.910  51.430  1.00  0.00    -0.335 N 
ENDROOT
BRANCH   7  10
HETATM   10  C6  UNL     1      24.099   0.659  52.866  1.00  0.00    -0.027 C 
HETATM   11  C7  UNL     1      24.326   1.956  53.166  1.00  0.00    -0.013 C 
HETATM   12  C8  UNL     1      25.670   2.520  53.583  1.00  0.00     0.005 C 
HETATM   13  C9  UNL     1      27.000   2.370  53.860  1.00  0.00     0.062 C 
HETATM   14  C10 UNL     1      27.893   1.158  53.837  1.00  0.00    -0.056 C 
HETATM   15  C11 UNL     1      28.399   0.535  52.740  1.00  0.00    -0.010 C 
HETATM   16  C14 UNL     1      28.488   0.302  54.903  1.00  0.00     0.004 C 
HETATM   17  C12 UNL     1      28.533  -0.897  53.070  1.00  0.00     0.042 C 
HETATM   18  C13 UNL     1      29.251  -0.696  54.402  1.00  0.00    -0.017 C 
HETATM   19  O1  UNL     1      27.326  -1.598  53.242  1.00  0.00     0.000 OA
HETATM   20  C15 UNL     1      26.081  -1.106  53.026  1.00  0.00     0.001 C 
HETATM   21  C16 UNL     1      25.140  -0.331  52.940  1.00  0.00     0.012 C 
ENDBRANCH   7  10
BRANCH   1  22
HETATM   22  N1  UNL     1      22.727  -1.528  54.863  1.00  0.00    -0.286 NA
HETATM   23  H1  UNL     1      23.456  -2.273  54.843  1.00  0.00     0.125 HD
HETATM   24  H2  UNL     1      23.064  -2.357  54.291  1.00  0.00     0.125 HD
ENDBRANCH   1  22
BRANCH   9  25
HETATM   25  C18 UNL     1      19.731   1.405  50.508  1.00  0.00     0.092 C 
HETATM   26  C19 UNL     1      18.898   2.501  51.128  1.00  0.00     0.032 C 
HETATM   27  C20 UNL     1      17.671   1.823  50.544  1.00  0.00     0.018 C 
HETATM   28  C25 UNL     1      18.506   0.567  50.400  1.00  0.00     0.032 C 
BRANCH  27  29
HETATM   29  C21 UNL     1      16.532   1.701  51.536  1.00  0.00     0.277 C 
BRANCH  29  30
HETATM   30  N5  UNL     1      15.412   2.459  51.037  1.00  0.00     0.088 N 
HETATM   31  C22 UNL     1      15.579   3.900  50.996  1.00  0.00     0.274 C 
HETATM   32  C23 UNL     1      15.141   3.954  52.442  1.00  0.00     0.060 C 
HETATM   33  C24 UNL     1      14.428   2.670  52.115  1.00  0.00     0.274 C 
ENDBRANCH  29  30
ENDBRANCH  27  29
ENDBRANCH   9  25
TORSDOF 5
ENDMDL
MODEL 8
REMARK VINA RESULT:      -8.2      4.260      6.886
REMARK  5 active torsions:
REMARK  status: ('A' for Active; 'I' for Inactive)
REMARK    1  A    between atoms: N1_1  and  C1_2 
REMARK    2  A    between atoms: C5_8  and  C6_9 
REMARK    3  A    between atoms: N4_22  and  C18_23 
REMARK    4  A    between atoms: C20_25  and  C21_26 
REMARK    5  A    between atoms: C21_26  and  N5_27 
ROOT
HETATM    1  C1  UNL     1      23.639   5.976  51.329  1.00  0.00     0.117 A 
HETATM    2  N2  UNL     1      23.424   7.294  51.189  1.00  0.00    -0.229 NA
HETATM    3  C2  UNL     1      22.958   7.843  50.033  1.00  0.00     0.237 A 
HETATM    4  N3  UNL     1      22.707   6.992  48.988  1.00  0.00    -0.223 NA
HETATM    5  C3  UNL     1      22.915   5.681  49.109  1.00  0.00     0.145 A 
HETATM    6  C4  UNL     1      23.382   5.137  50.261  1.00  0.00     0.062 A 
HETATM    7  C5  UNL     1      23.522   3.777  50.258  1.00  0.00     0.007 A 
HETATM    8  C17 UNL     1      23.078   3.494  48.952  1.00  0.00     0.106 A 
HETATM    9  N4  UNL     1      22.731   4.619  48.306  1.00  0.00    -0.335 N 
ENDROOT
BRANCH   7  10
HETATM   10  C6  UNL     1      24.113   2.755  51.105  1.00  0.00    -0.027 C 
HETATM   11  C7  UNL     1      23.167   1.921  51.585  1.00  0.00    -0.013 C 
HETATM   12  C8  UNL     1      23.442   0.739  52.493  1.00  0.00     0.005 C 
HETATM   13  C9  UNL     1      24.300  -0.057  53.200  1.00  0.00     0.062 C 
HETATM   14  C10 UNL     1      25.795  -0.007  53.370  1.00  0.00    -0.056 C 
HETATM   15  C11 UNL     1      26.503   0.859  54.141  1.00  0.00    -0.010 C 
HETATM   16  C14 UNL     1      26.918  -0.817  52.814  1.00  0.00     0.004 C 
HETATM   17  C12 UNL     1      27.807   1.071  53.482  1.00  0.00     0.042 C 
HETATM   18  C13 UNL     1      28.126  -0.405  53.263  1.00  0.00    -0.017 C 
HETATM   19  O1  UNL     1      27.766   1.772  52.264  1.00  0.00     0.000 OA
HETATM   20  C15 UNL     1      26.670   2.350  51.712  1.00  0.00     0.001 C 
HETATM   21  C16 UNL     1      25.508   2.574  51.405  1.00  0.00     0.012 C 
ENDBRANCH   7  10
BRANCH   1  22
HETATM   22  N1  UNL     1      24.059   5.637  52.638  1.00  0.00    -0.286 NA
HETATM   23  H1  UNL     1      23.960   5.957  53.626  1.00  0.00     0.125 HD
HETATM   24  H2  UNL     1      23.603   6.388  53.235  1.00  0.00     0.125 HD
ENDBRANCH   1  22
BRANCH   9  25
HETATM   25  C18 UNL     1      22.203   4.813  46.944  1.00  0.00     0.092 C 
HETATM   26  C19 UNL     1      20.748   5.215  46.953  1.00  0.00     0.032 C 
HETATM   27  C20 UNL     1      20.527   4.234  45.815  1.00  0.00     0.018 C 
HETATM   28  C25 UNL     1      21.832   3.573  46.209  1.00  0.00     0.032 C 
BRANCH  27  29
HETATM   29  C21 UNL     1      19.304   3.361  46.013  1.00  0.00     0.277 C 
BRANCH  29  30
HETATM   30  N5  UNL     1      18.550   3.350  44.785  1.00  0.00     0.088 N 
HETATM   31  C22 UNL     1      18.132   4.643  44.277  1.00  0.00     0.274 C 
HETATM   32  C23 UNL     1      16.919   4.561  45.176  1.00  0.00     0.060 C 
HETATM   33  C24 UNL     1      17.130   3.075  45.070  1.00  0.00     0.274 C 
ENDBRANCH  29  30
ENDBRANCH  27  29
ENDBRANCH   9  25
TORSDOF 5
ENDMDL
MODEL 9
REMARK VINA RESULT:      -8.2      3.939      8.430
REMARK  5 active torsions:
REMARK  status: ('A' for Active; 'I' for Inactive)
REMARK    1  A    between atoms: N1_1  and  C1_2 
REMARK    2  A    between atoms: C5_8  and  C6_9 
REMARK    3  A    between atoms: N4_22  and  C18_23 
REMARK    4  A    between atoms: C20_25  and  C21_26 
REMARK    5  A    between atoms: C21_26  and  N5_27 
ROOT
HETATM    1  C1  UNL     1      20.489  -0.583  53.801  1.00  0.00     0.117 A 
HETATM    2  N2  UNL     1      21.233  -1.324  54.639  1.00  0.00    -0.229 NA
HETATM    3  C2  UNL     1      22.583  -1.184  54.740  1.00  0.00     0.237 A 
HETATM    4  N3  UNL     1      23.180  -0.243  53.944  1.00  0.00    -0.223 NA
HETATM    5  C3  UNL     1      22.458   0.501  53.105  1.00  0.00     0.145 A 
HETATM    6  C4  UNL     1      21.113   0.358  53.005  1.00  0.00     0.062 A 
HETATM    7  C5  UNL     1      20.492   1.205  52.129  1.00  0.00     0.007 A 
HETATM    8  C17 UNL     1      21.607   1.932  51.669  1.00  0.00     0.106 A 
HETATM    9  N4  UNL     1      22.737   1.502  52.253  1.00  0.00    -0.335 N 
ENDROOT
BRANCH   7  10
HETATM   10  C6  UNL     1      19.178   1.358  51.530  1.00  0.00    -0.027 C 
HETATM   11  C7  UNL     1      18.815   0.238  50.869  1.00  0.00    -0.013 C 
HETATM   12  C8  UNL     1      17.500   0.058  50.138  1.00  0.00     0.005 C 
HETATM   13  C9  UNL     1      16.280   0.521  49.731  1.00  0.00     0.062 C 
HETATM   14  C10 UNL     1      15.588   1.838  49.957  1.00  0.00    -0.056 C 
HETATM   15  C11 UNL     1      15.861   3.022  49.348  1.00  0.00    -0.010 C 
HETATM   16  C14 UNL     1      14.462   2.267  50.836  1.00  0.00     0.004 C 
HETATM   17  C12 UNL     1      15.550   4.095  50.313  1.00  0.00     0.042 C 
HETATM   18  C13 UNL     1      14.165   3.579  50.697  1.00  0.00    -0.017 C 
HETATM   19  O1  UNL     1      16.396   4.170  51.434  1.00  0.00     0.000 OA
HETATM   20  C15 UNL     1      17.512   3.428  51.643  1.00  0.00     0.001 C 
HETATM   21  C16 UNL     1      18.309   2.502  51.618  1.00  0.00     0.012 C 
ENDBRANCH   7  10
BRANCH   1  22
HETATM   22  N1  UNL     1      19.105  -0.861  53.923  1.00  0.00    -0.286 NA
HETATM   23  H1  UNL     1      18.338  -0.845  54.629  1.00  0.00     0.125 HD
HETATM   24  H2  UNL     1      18.907  -0.638  54.942  1.00  0.00     0.125 HD
ENDBRANCH   1  22
BRANCH   9  25
HETATM   25  C18 UNL     1      24.127   1.966  52.097  1.00  0.00     0.092 C 
HETATM   26  C19 UNL     1      25.111   0.820  52.108  1.00  0.00     0.032 C 
HETATM   27  C20 UNL     1      25.995   1.660  53.014  1.00  0.00     0.018 C 
HETATM   28  C25 UNL     1      24.774   2.502  53.326  1.00  0.00     0.032 C 
BRANCH  27  29
HETATM   29  C21 UNL     1      26.534   0.885  54.200  1.00  0.00     0.277 C 
BRANCH  29  30
HETATM   30  N5  UNL     1      27.939   1.176  54.330  1.00  0.00     0.088 N 
HETATM   31  C22 UNL     1      28.756   0.937  53.156  1.00  0.00     0.274 C 
HETATM   32  C23 UNL     1      28.880  -0.509  53.583  1.00  0.00     0.060 C 
HETATM   33  C24 UNL     1      28.631   0.038  54.963  1.00  0.00     0.274 C 
ENDBRANCH  29  30
ENDBRANCH  27  29
ENDBRANCH   9  25
TORSDOF 5
ENDMDL
