MODEL 1
REMARK VINA RESULT:      -8.1      0.000      0.000
REMARK  9 active torsions:
REMARK  status: ('A' for Active; 'I' for Inactive)
REMARK       I    between atoms: C1_2  and  N1_3 
REMARK       I    between atoms: C1_2  and  N3_12 
REMARK    1  A    between atoms: N1_3  and  C2_4 
REMARK    2  A    between atoms: C2_4  and  C3_5 
REMARK    3  A    between atoms: C3_5  and  N2_6 
REMARK    4  A    between atoms: N3_12  and  C8_13 
REMARK    5  A    between atoms: C13_20  and  C14_21 
REMARK    6  A    between atoms: C14_21  and  C15_22 
REMARK    7  A    between atoms: C14_21  and  C17_25 
REMARK    8  A    between atoms: C15_22  and  C16_23 
REMARK    9  A    between atoms: C17_25  and  C18_26 
ROOT
HETATM    1  C8  UNL     1      24.837   3.269  51.298  1.00  0.00     0.037 A 
HETATM    2  C9  UNL     1      23.504   3.467  51.004  1.00  0.00     0.032 A 
HETATM    3  C10 UNL     1      22.585   2.507  51.425  1.00  0.00     0.035 A 
HETATM    4  C11 UNL     1      23.037   1.401  52.114  1.00  0.00     0.070 A 
HETATM    5  N4  UNL     1      22.088   0.497  52.499  1.00  0.00    -0.241 NA
HETATM    6  C12 UNL     1      22.516  -0.604  53.182  1.00  0.00     0.234 A 
HETATM    7  N5  UNL     1      23.825  -0.825  53.486  1.00  0.00    -0.240 NA
HETATM    8  C13 UNL     1      24.776   0.059  53.114  1.00  0.00     0.089 A 
HETATM    9  C19 UNL     1      24.352   1.176  52.421  1.00  0.00     0.025 A 
HETATM   10  C20 UNL     1      25.236   2.144  51.991  1.00  0.00     0.045 A 
ENDROOT
BRANCH   1  11
HETATM   11  N3  UNL     1      25.713   4.292  50.836  1.00  0.00    -0.309 N 
HETATM   12  C1  UNL     1      26.612   4.127  49.753  1.00  0.00     0.320 C 
HETATM   13  O1  UNL     1      26.623   3.021  49.187  1.00  0.00    -0.247 OA
HETATM   14  N1  UNL     1      27.446   5.181  49.356  1.00  0.00    -0.341 N 
HETATM   15  H1  UNL     1      27.377   6.093  49.893  1.00  0.00     0.164 HD
HETATM   16  H14 UNL     1      25.632   5.199  51.383  1.00  0.00     0.170 HD
BRANCH  14  17
HETATM   17  C2  UNL     1      28.401   5.128  48.267  1.00  0.00     0.154 C 
BRANCH  17  18
HETATM   18  C3  UNL     1      28.999   6.486  48.090  1.00  0.00     0.292 C 
BRANCH  18  19
HETATM   19  N2  UNL     1      30.429   6.471  47.951  1.00  0.00     0.094 N 
HETATM   20  C4  UNL     1      30.972   5.170  47.721  1.00  0.00     0.298 C 
HETATM   21  C5  UNL     1      32.461   5.097  47.828  1.00  0.00     0.198 C 
HETATM   22  O2  UNL     1      32.991   5.716  48.949  1.00  0.00    -0.388 OA
HETATM   23  C6  UNL     1      32.009   6.309  49.736  1.00  0.00     0.198 C 
HETATM   24  C7  UNL     1      31.126   7.237  48.931  1.00  0.00     0.298 C 
ENDBRANCH  18  19
ENDBRANCH  17  18
ENDBRANCH  14  17
ENDBRANCH   1  11
BRANCH   8  25
HETATM   25  C14 UNL     1      26.147  -0.151  53.423  1.00  0.00     0.042 C 
BRANCH  25  26
HETATM   26  C15 UNL     1      26.597  -1.240  52.848  1.00  0.00    -0.085 C 
BRANCH  26  27
HETATM   27  C16 UNL     1      27.082  -2.388  52.404  1.00  0.00     0.244 C 
HETATM   28  F1  UNL     1      28.296  -2.643  52.907  1.00  0.00    -0.211 F 
ENDBRANCH  26  27
ENDBRANCH  25  26
BRANCH  25  29
HETATM   29  C17 UNL     1      27.047   0.612  54.224  1.00  0.00     0.034 C 
BRANCH  29  30
HETATM   30  C18 UNL     1      28.226   0.229  54.682  1.00  0.00     0.086 C 
HETATM   31 CL1  UNL     1      29.768   0.205  53.835  1.00  0.00    -0.097 Cl
ENDBRANCH  29  30
ENDBRANCH  25  29
ENDBRANCH   8  25
TORSDOF 9
ENDMDL
MODEL 2
REMARK VINA RESULT:      -7.7      2.494      3.103
REMARK  9 active torsions:
REMARK  status: ('A' for Active; 'I' for Inactive)
REMARK       I    between atoms: C1_2  and  N1_3 
REMARK       I    between atoms: C1_2  and  N3_12 
REMARK    1  A    between atoms: N1_3  and  C2_4 
REMARK    2  A    between atoms: C2_4  and  C3_5 
REMARK    3  A    between atoms: C3_5  and  N2_6 
REMARK    4  A    between atoms: N3_12  and  C8_13 
REMARK    5  A    between atoms: C13_20  and  C14_21 
REMARK    6  A    between atoms: C14_21  and  C15_22 
REMARK    7  A    between atoms: C14_21  and  C17_25 
REMARK    8  A    between atoms: C15_22  and  C16_23 
REMARK    9  A    between atoms: C17_25  and  C18_26 
ROOT
HETATM    1  C8  UNL     1      23.329   1.445  51.617  1.00  0.00     0.037 A 
HETATM    2  C9  UNL     1      21.997   1.333  51.957  1.00  0.00     0.032 A 
HETATM    3  C10 UNL     1      21.662   0.568  53.072  1.00  0.00     0.035 A 
HETATM    4  C11 UNL     1      22.665  -0.048  53.791  1.00  0.00     0.070 A 
HETATM    5  N4  UNL     1      22.273  -0.785  54.871  1.00  0.00    -0.241 NA
HETATM    6  C12 UNL     1      23.251  -1.402  55.595  1.00  0.00     0.234 A 
HETATM    7  N5  UNL     1      24.574  -1.309  55.283  1.00  0.00    -0.240 NA
HETATM    8  C13 UNL     1      24.980  -0.585  54.218  1.00  0.00     0.089 A 
HETATM    9  C19 UNL     1      23.995   0.043  53.479  1.00  0.00     0.025 A 
HETATM   10  C20 UNL     1      24.295   0.808  52.371  1.00  0.00     0.045 A 
ENDROOT
BRANCH   1  11
HETATM   11  N3  UNL     1      23.592   2.244  50.468  1.00  0.00    -0.309 N 
HETATM   12  C1  UNL     1      23.913   3.623  50.526  1.00  0.00     0.320 C 
HETATM   13  O1  UNL     1      23.965   4.147  51.652  1.00  0.00    -0.247 OA
HETATM   14  N1  UNL     1      24.157   4.345  49.351  1.00  0.00    -0.341 N 
HETATM   15  H1  UNL     1      24.091   3.824  48.429  1.00  0.00     0.164 HD
HETATM   16  H14 UNL     1      23.522   1.708  49.553  1.00  0.00     0.170 HD
BRANCH  14  17
HETATM   17  C2  UNL     1      24.494   5.753  49.288  1.00  0.00     0.154 C 
BRANCH  17  18
HETATM   18  C3  UNL     1      25.982   5.891  49.327  1.00  0.00     0.292 C 
BRANCH  18  19
HETATM   19  N2  UNL     1      26.456   7.156  48.837  1.00  0.00     0.094 N 
HETATM   20  C4  UNL     1      27.849   7.167  48.523  1.00  0.00     0.298 C 
HETATM   21  C5  UNL     1      28.409   8.528  48.258  1.00  0.00     0.198 C 
HETATM   22  O2  UNL     1      28.056   9.489  49.191  1.00  0.00    -0.388 OA
HETATM   23  C6  UNL     1      27.216   8.982  50.178  1.00  0.00     0.198 C 
HETATM   24  C7  UNL     1      26.011   8.284  49.587  1.00  0.00     0.298 C 
ENDBRANCH  18  19
ENDBRANCH  17  18
ENDBRANCH  14  17
ENDBRANCH   1  11
BRANCH   8  25
HETATM   25  C14 UNL     1      26.355  -0.473  53.875  1.00  0.00     0.042 C 
BRANCH  25  26
HETATM   26  C15 UNL     1      26.712  -1.425  53.048  1.00  0.00    -0.085 C 
BRANCH  26  27
HETATM   27  C16 UNL     1      27.204  -2.384  52.282  1.00  0.00     0.244 C 
HETATM   28  F1  UNL     1      28.272  -2.968  52.839  1.00  0.00    -0.211 F 
ENDBRANCH  26  27
ENDBRANCH  25  26
BRANCH  25  29
HETATM   29  C17 UNL     1      27.340   0.474  54.283  1.00  0.00     0.034 C 
BRANCH  29  30
HETATM   30  C18 UNL     1      28.590   0.223  54.631  1.00  0.00     0.086 C 
HETATM   31 CL1  UNL     1      29.961  -0.125  53.584  1.00  0.00    -0.097 Cl
ENDBRANCH  29  30
ENDBRANCH  25  29
ENDBRANCH   8  25
TORSDOF 9
ENDMDL
MODEL 3
REMARK VINA RESULT:      -7.5      3.951      5.190
REMARK  9 active torsions:
REMARK  status: ('A' for Active; 'I' for Inactive)
REMARK       I    between atoms: C1_2  and  N1_3 
REMARK       I    between atoms: C1_2  and  N3_12 
REMARK    1  A    between atoms: N1_3  and  C2_4 
REMARK    2  A    between atoms: C2_4  and  C3_5 
REMARK    3  A    between atoms: C3_5  and  N2_6 
REMARK    4  A    between atoms: N3_12  and  C8_13 
REMARK    5  A    between atoms: C13_20  and  C14_21 
REMARK    6  A    between atoms: C14_21  and  C15_22 
REMARK    7  A    between atoms: C14_21  and  C17_25 
REMARK    8  A    between atoms: C15_22  and  C16_23 
REMARK    9  A    between atoms: C17_25  and  C18_26 
ROOT
HETATM    1  C8  UNL     1      21.761   0.625  52.107  1.00  0.00     0.037 A 
HETATM    2  C9  UNL     1      20.735   0.090  52.857  1.00  0.00     0.032 A 
HETATM    3  C10 UNL     1      21.059  -0.608  54.019  1.00  0.00     0.035 A 
HETATM    4  C11 UNL     1      22.386  -0.739  54.376  1.00  0.00     0.070 A 
HETATM    5  N4  UNL     1      22.639  -1.433  55.524  1.00  0.00    -0.241 NA
HETATM    6  C12 UNL     1      23.945  -1.574  55.893  1.00  0.00     0.234 A 
HETATM    7  N5  UNL     1      24.979  -1.056  55.173  1.00  0.00    -0.240 NA
HETATM    8  C13 UNL     1      24.746  -0.366  54.035  1.00  0.00     0.089 A 
HETATM    9  C19 UNL     1      23.426  -0.220  53.653  1.00  0.00     0.025 A 
HETATM   10  C20 UNL     1      23.073   0.465  52.510  1.00  0.00     0.045 A 
ENDROOT
BRANCH   1  11
HETATM   11  N3  UNL     1      21.350   1.323  50.936  1.00  0.00    -0.309 N 
HETATM   12  C1  UNL     1      21.223   2.733  50.866  1.00  0.00     0.320 C 
HETATM   13  O1  UNL     1      21.491   3.380  51.892  1.00  0.00    -0.247 OA
HETATM   14  N1  UNL     1      20.811   3.349  49.677  1.00  0.00    -0.341 N 
HETATM   15  H1  UNL     1      20.600   2.725  48.846  1.00  0.00     0.164 HD
HETATM   16  H14 UNL     1      21.143   0.685  50.112  1.00  0.00     0.170 HD
BRANCH  14  17
HETATM   17  C2  UNL     1      20.647   4.777  49.488  1.00  0.00     0.154 C 
BRANCH  17  18
HETATM   18  C3  UNL     1      21.922   5.336  48.942  1.00  0.00     0.292 C 
BRANCH  18  19
HETATM   19  N2  UNL     1      22.781   5.898  49.948  1.00  0.00     0.094 N 
HETATM   20  C4  UNL     1      22.923   7.316  49.858  1.00  0.00     0.298 C 
HETATM   21  C5  UNL     1      24.001   7.883  50.725  1.00  0.00     0.198 C 
HETATM   22  O2  UNL     1      25.211   7.212  50.655  1.00  0.00    -0.388 OA
HETATM   23  C6  UNL     1      25.156   6.115  49.801  1.00  0.00     0.198 C 
HETATM   24  C7  UNL     1      24.005   5.193  50.140  1.00  0.00     0.298 C 
ENDBRANCH  18  19
ENDBRANCH  17  18
ENDBRANCH  14  17
ENDBRANCH   1  11
BRANCH   8  25
HETATM   25  C14 UNL     1      25.810   0.184  53.269  1.00  0.00     0.042 C 
BRANCH  25  26
HETATM   26  C15 UNL     1      26.608  -0.757  52.828  1.00  0.00    -0.085 C 
BRANCH  26  27
HETATM   27  C16 UNL     1      27.361  -1.792  52.494  1.00  0.00     0.244 C 
HETATM   28  F1  UNL     1      26.671  -2.708  51.803  1.00  0.00    -0.211 F 
ENDBRANCH  26  27
ENDBRANCH  25  26
BRANCH  25  29
HETATM   29  C17 UNL     1      26.110   1.538  52.935  1.00  0.00     0.034 C 
BRANCH  29  30
HETATM   30  C18 UNL     1      27.295   2.038  52.631  1.00  0.00     0.086 C 
HETATM   31 CL1  UNL     1      28.618   2.442  53.719  1.00  0.00    -0.097 Cl
ENDBRANCH  29  30
ENDBRANCH  25  29
ENDBRANCH   8  25
TORSDOF 9
ENDMDL
MODEL 4
REMARK VINA RESULT:      -7.5      2.601      3.130
REMARK  9 active torsions:
REMARK  status: ('A' for Active; 'I' for Inactive)
REMARK       I    between atoms: C1_2  and  N1_3 
REMARK       I    between atoms: C1_2  and  N3_12 
REMARK    1  A    between atoms: N1_3  and  C2_4 
REMARK    2  A    between atoms: C2_4  and  C3_5 
REMARK    3  A    between atoms: C3_5  and  N2_6 
REMARK    4  A    between atoms: N3_12  and  C8_13 
REMARK    5  A    between atoms: C13_20  and  C14_21 
REMARK    6  A    between atoms: C14_21  and  C15_22 
REMARK    7  A    between atoms: C14_21  and  C17_25 
REMARK    8  A    between atoms: C15_22  and  C16_23 
REMARK    9  A    between atoms: C17_25  and  C18_26 
ROOT
HETATM    1  C8  UNL     1      23.286   4.592  52.360  1.00  0.00     0.037 A 
HETATM    2  C9  UNL     1      21.909   4.636  52.289  1.00  0.00     0.032 A 
HETATM    3  C10 UNL     1      21.205   3.435  52.344  1.00  0.00     0.035 A 
HETATM    4  C11 UNL     1      21.904   2.251  52.465  1.00  0.00     0.070 A 
HETATM    5  N4  UNL     1      21.158   1.109  52.512  1.00  0.00    -0.241 NA
HETATM    6  C12 UNL     1      21.831  -0.072  52.631  1.00  0.00     0.234 A 
HETATM    7  N5  UNL     1      23.190  -0.146  52.704  1.00  0.00    -0.240 NA
HETATM    8  C13 UNL     1      23.943   0.974  52.659  1.00  0.00     0.089 A 
HETATM    9  C19 UNL     1      23.269   2.174  52.537  1.00  0.00     0.025 A 
HETATM   10  C20 UNL     1      23.936   3.380  52.481  1.00  0.00     0.045 A 
ENDROOT
BRANCH   1  11
HETATM   11  N3  UNL     1      23.932   5.859  52.299  1.00  0.00    -0.309 N 
HETATM   12  C1  UNL     1      24.362   6.464  51.092  1.00  0.00     0.320 C 
HETATM   13  O1  UNL     1      24.155   5.840  50.037  1.00  0.00    -0.247 OA
HETATM   14  N1  UNL     1      24.994   7.714  51.111  1.00  0.00    -0.341 N 
HETATM   15  H1  UNL     1      25.135   8.181  52.053  1.00  0.00     0.164 HD
HETATM   16  H14 UNL     1      24.066   6.314  53.250  1.00  0.00     0.170 HD
BRANCH  14  17
HETATM   17  C2  UNL     1      25.475   8.427  49.943  1.00  0.00     0.154 C 
BRANCH  17  18
HETATM   18  C3  UNL     1      26.898   8.820  50.176  1.00  0.00     0.292 C 
BRANCH  18  19
HETATM   19  N2  UNL     1      27.726   8.701  49.007  1.00  0.00     0.094 N 
HETATM   20  C4  UNL     1      27.797   7.373  48.485  1.00  0.00     0.298 C 
HETATM   21  C5  UNL     1      28.843   7.181  47.435  1.00  0.00     0.198 C 
HETATM   22  O2  UNL     1      30.086   7.705  47.754  1.00  0.00    -0.388 OA
HETATM   23  C6  UNL     1      30.087   8.337  48.994  1.00  0.00     0.198 C 
HETATM   24  C7  UNL     1      28.984   9.366  49.104  1.00  0.00     0.298 C 
ENDBRANCH  18  19
ENDBRANCH  17  18
ENDBRANCH  14  17
ENDBRANCH   1  11
BRANCH   8  25
HETATM   25  C14 UNL     1      25.361   0.920  52.735  1.00  0.00     0.042 C 
BRANCH  25  26
HETATM   26  C15 UNL     1      25.754   0.566  53.935  1.00  0.00    -0.085 C 
BRANCH  26  27
HETATM   27  C16 UNL     1      26.274   0.160  55.081  1.00  0.00     0.244 C 
HETATM   28  F1  UNL     1      27.597  -0.025  54.989  1.00  0.00    -0.211 F 
ENDBRANCH  26  27
ENDBRANCH  25  26
BRANCH  25  29
HETATM   29  C17 UNL     1      26.355   1.181  51.747  1.00  0.00     0.034 C 
BRANCH  29  30
HETATM   30  C18 UNL     1      26.877   2.354  51.434  1.00  0.00     0.086 C 
HETATM   31 CL1  UNL     1      26.616   3.309  49.979  1.00  0.00    -0.097 Cl
ENDBRANCH  29  30
ENDBRANCH  25  29
ENDBRANCH   8  25
TORSDOF 9
ENDMDL
MODEL 5
REMARK VINA RESULT:      -7.4      5.592      9.130
REMARK  9 active torsions:
REMARK  status: ('A' for Active; 'I' for Inactive)
REMARK       I    between atoms: C1_2  and  N1_3 
REMARK       I    between atoms: C1_2  and  N3_12 
REMARK    1  A    between atoms: N1_3  and  C2_4 
REMARK    2  A    between atoms: C2_4  and  C3_5 
REMARK    3  A    between atoms: C3_5  and  N2_6 
REMARK    4  A    between atoms: N3_12  and  C8_13 
REMARK    5  A    between atoms: C13_20  and  C14_21 
REMARK    6  A    between atoms: C14_21  and  C15_22 
REMARK    7  A    between atoms: C14_21  and  C17_25 
REMARK    8  A    between atoms: C15_22  and  C16_23 
REMARK    9  A    between atoms: C17_25  and  C18_26 
ROOT
HETATM    1  C8  UNL     1      21.037   0.256  52.588  1.00  0.00     0.037 A 
HETATM    2  C9  UNL     1      20.277  -0.506  53.450  1.00  0.00     0.032 A 
HETATM    3  C10 UNL     1      20.924  -1.171  54.491  1.00  0.00     0.035 A 
HETATM    4  C11 UNL     1      22.292  -1.045  54.620  1.00  0.00     0.070 A 
HETATM    5  N4  UNL     1      22.867  -1.721  55.658  1.00  0.00    -0.241 NA
HETATM    6  C12 UNL     1      24.219  -1.609  55.802  1.00  0.00     0.234 A 
HETATM    7  N5  UNL     1      24.995  -0.864  54.966  1.00  0.00    -0.240 NA
HETATM    8  C13 UNL     1      24.442  -0.189  53.935  1.00  0.00     0.089 A 
HETATM    9  C19 UNL     1      23.074  -0.297  53.781  1.00  0.00     0.025 A 
HETATM   10  C20 UNL     1      22.404   0.348  52.763  1.00  0.00     0.045 A 
ENDROOT
BRANCH   1  11
HETATM   11  N3  UNL     1      20.304   0.904  51.554  1.00  0.00    -0.309 N 
HETATM   12  C1  UNL     1      19.757   2.205  51.675  1.00  0.00     0.320 C 
HETATM   13  O1  UNL     1      19.936   2.800  52.752  1.00  0.00    -0.247 OA
HETATM   14  N1  UNL     1      19.045   2.778  50.613  1.00  0.00    -0.341 N 
HETATM   15  H1  UNL     1      18.935   2.204  49.727  1.00  0.00     0.164 HD
HETATM   16  H14 UNL     1      20.203   0.317  50.673  1.00  0.00     0.170 HD
BRANCH  14  17
HETATM   17  C2  UNL     1      18.443   4.096  50.623  1.00  0.00     0.154 C 
BRANCH  17  18
HETATM   18  C3  UNL     1      17.151   4.038  49.872  1.00  0.00     0.292 C 
BRANCH  18  19
HETATM   19  N2  UNL     1      16.002   3.864  50.717  1.00  0.00     0.094 N 
HETATM   20  C4  UNL     1      16.194   4.331  52.053  1.00  0.00     0.298 C 
HETATM   21  C5  UNL     1      15.113   3.931  53.006  1.00  0.00     0.198 C 
HETATM   22  O2  UNL     1      14.756   2.594  52.945  1.00  0.00    -0.388 OA
HETATM   23  C6  UNL     1      15.470   1.901  51.973  1.00  0.00     0.198 C 
HETATM   24  C7  UNL     1      15.389   2.580  50.623  1.00  0.00     0.298 C 
ENDBRANCH  18  19
ENDBRANCH  17  18
ENDBRANCH  14  17
ENDBRANCH   1  11
BRANCH   8  25
HETATM   25  C14 UNL     1      25.232   0.596  53.052  1.00  0.00     0.042 C 
BRANCH  25  26
HETATM   26  C15 UNL     1      26.134  -0.139  52.449  1.00  0.00    -0.085 C 
BRANCH  26  27
HETATM   27  C16 UNL     1      26.975  -0.998  51.897  1.00  0.00     0.244 C 
HETATM   28  F1  UNL     1      26.668  -2.264  52.208  1.00  0.00    -0.211 F 
ENDBRANCH  26  27
ENDBRANCH  25  26
BRANCH  25  29
HETATM   29  C17 UNL     1      25.183   1.989  52.751  1.00  0.00     0.034 C 
BRANCH  29  30
HETATM   30  C18 UNL     1      25.189   2.545  51.552  1.00  0.00     0.086 C 
HETATM   31 CL1  UNL     1      26.575   2.936  50.541  1.00  0.00    -0.097 Cl
ENDBRANCH  29  30
ENDBRANCH  25  29
ENDBRANCH   8  25
TORSDOF 9
ENDMDL
MODEL 6
REMARK VINA RESULT:      -7.2      3.087      4.513
REMARK  9 active torsions:
REMARK  status: ('A' for Active; 'I' for Inactive)
REMARK       I    between atoms: C1_2  and  N1_3 
REMARK       I    between atoms: C1_2  and  N3_12 
REMARK    1  A    between atoms: N1_3  and  C2_4 
REMARK    2  A    between atoms: C2_4  and  C3_5 
REMARK    3  A    between atoms: C3_5  and  N2_6 
REMARK    4  A    between atoms: N3_12  and  C8_13 
REMARK    5  A    between atoms: C13_20  and  C14_21 
REMARK    6  A    between atoms: C14_21  and  C15_22 
REMARK    7  A    between atoms: C14_21  and  C17_25 
REMARK    8  A    between atoms: C15_22  and  C16_23 
REMARK    9  A    between atoms: C17_25  and  C18_26 
ROOT
HETATM    1  C8  UNL     1      24.923   2.741  51.843  1.00  0.00     0.037 A 
HETATM    2  C9  UNL     1      25.727   2.236  52.843  1.00  0.00     0.032 A 
HETATM    3  C10 UNL     1      25.286   1.116  53.545  1.00  0.00     0.035 A 
HETATM    4  C11 UNL     1      24.068   0.555  53.217  1.00  0.00     0.070 A 
HETATM    5  N4  UNL     1      23.691  -0.540  53.941  1.00  0.00    -0.241 NA
HETATM    6  C12 UNL     1      22.489  -1.108  53.632  1.00  0.00     0.234 A 
HETATM    7  N5  UNL     1      21.675  -0.632  52.649  1.00  0.00    -0.240 NA
HETATM    8  C13 UNL     1      22.033   0.450  51.923  1.00  0.00     0.089 A 
HETATM    9  C19 UNL     1      23.248   1.032  52.231  1.00  0.00     0.025 A 
HETATM   10  C20 UNL     1      23.713   2.141  51.555  1.00  0.00     0.045 A 
ENDROOT
BRANCH   1  11
HETATM   11  N3  UNL     1      25.443   3.884  51.173  1.00  0.00    -0.309 N 
HETATM   12  C1  UNL     1      26.422   3.818  50.150  1.00  0.00     0.320 C 
HETATM   13  O1  UNL     1      26.838   2.691  49.833  1.00  0.00    -0.247 OA
HETATM   14  N1  UNL     1      26.888   4.989  49.537  1.00  0.00    -0.341 N 
HETATM   15  H1  UNL     1      26.483   5.913  49.867  1.00  0.00     0.164 HD
HETATM   16  H14 UNL     1      25.028   4.802  51.513  1.00  0.00     0.170 HD
BRANCH  14  17
HETATM   17  C2  UNL     1      27.882   5.044  48.484  1.00  0.00     0.154 C 
BRANCH  17  18
HETATM   18  C3  UNL     1      28.269   6.471  48.265  1.00  0.00     0.292 C 
BRANCH  18  19
HETATM   19  N2  UNL     1      29.637   6.641  47.860  1.00  0.00     0.094 N 
HETATM   20  C4  UNL     1      30.411   5.442  47.928  1.00  0.00     0.298 C 
HETATM   21  C5  UNL     1      31.881   5.649  47.757  1.00  0.00     0.198 C 
HETATM   22  O2  UNL     1      32.411   6.681  48.516  1.00  0.00    -0.388 OA
HETATM   23  C6  UNL     1      31.440   7.336  49.266  1.00  0.00     0.198 C 
HETATM   24  C7  UNL     1      30.278   7.790  48.410  1.00  0.00     0.298 C 
ENDBRANCH  18  19
ENDBRANCH  17  18
ENDBRANCH  14  17
ENDBRANCH   1  11
BRANCH   8  25
HETATM   25  C14 UNL     1      21.200   0.963  50.893  1.00  0.00     0.042 C 
BRANCH  25  26
HETATM   26  C15 UNL     1      20.281   1.759  51.383  1.00  0.00    -0.085 C 
BRANCH  26  27
HETATM   27  C16 UNL     1      19.464   2.657  51.908  1.00  0.00     0.244 C 
HETATM   28  F1  UNL     1      19.415   3.775  51.174  1.00  0.00    -0.211 F 
ENDBRANCH  26  27
ENDBRANCH  25  26
BRANCH  25  29
HETATM   29  C17 UNL     1      21.222   0.743  49.484  1.00  0.00     0.034 C 
BRANCH  29  30
HETATM   30  C18 UNL     1      21.244   1.662  48.535  1.00  0.00     0.086 C 
HETATM   31 CL1  UNL     1      22.585   2.117  47.490  1.00  0.00    -0.097 Cl
ENDBRANCH  29  30
ENDBRANCH  25  29
ENDBRANCH   8  25
TORSDOF 9
ENDMDL
MODEL 7
REMARK VINA RESULT:      -7.1      4.365      5.804
REMARK  9 active torsions:
REMARK  status: ('A' for Active; 'I' for Inactive)
REMARK       I    between atoms: C1_2  and  N1_3 
REMARK       I    between atoms: C1_2  and  N3_12 
REMARK    1  A    between atoms: N1_3  and  C2_4 
REMARK    2  A    between atoms: C2_4  and  C3_5 
REMARK    3  A    between atoms: C3_5  and  N2_6 
REMARK    4  A    between atoms: N3_12  and  C8_13 
REMARK    5  A    between atoms: C13_20  and  C14_21 
REMARK    6  A    between atoms: C14_21  and  C15_22 
REMARK    7  A    between atoms: C14_21  and  C17_25 
REMARK    8  A    between atoms: C15_22  and  C16_23 
REMARK    9  A    between atoms: C17_25  and  C18_26 
ROOT
HETATM    1  C8  UNL     1      22.690   0.896  51.609  1.00  0.00     0.037 A 
HETATM    2  C9  UNL     1      21.457   0.474  52.061  1.00  0.00     0.032 A 
HETATM    3  C10 UNL     1      21.400  -0.254  53.248  1.00  0.00     0.035 A 
HETATM    4  C11 UNL     1      22.571  -0.526  53.926  1.00  0.00     0.070 A 
HETATM    5  N4  UNL     1      22.450  -1.243  55.081  1.00  0.00    -0.241 NA
HETATM    6  C12 UNL     1      23.597  -1.523  55.765  1.00  0.00     0.234 A 
HETATM    7  N5  UNL     1      24.829  -1.119  55.344  1.00  0.00    -0.240 NA
HETATM    8  C13 UNL     1      24.966  -0.409  54.204  1.00  0.00     0.089 A 
HETATM    9  C19 UNL     1      23.810  -0.122  53.504  1.00  0.00     0.025 A 
HETATM   10  C20 UNL     1      23.832   0.596  52.327  1.00  0.00     0.045 A 
ENDROOT
BRANCH   1  11
HETATM   11  N3  UNL     1      22.665   1.633  50.392  1.00  0.00    -0.309 N 
HETATM   12  C1  UNL     1      23.072   2.986  50.285  1.00  0.00     0.320 C 
HETATM   13  O1  UNL     1      23.470   3.544  51.321  1.00  0.00    -0.247 OA
HETATM   14  N1  UNL     1      23.018   3.647  49.051  1.00  0.00    -0.341 N 
HETATM   15  H1  UNL     1      22.664   3.101  48.214  1.00  0.00     0.164 HD
HETATM   16  H14 UNL     1      22.309   1.072  49.563  1.00  0.00     0.170 HD
BRANCH  14  17
HETATM   17  C2  UNL     1      23.407   5.025  48.822  1.00  0.00     0.154 C 
BRANCH  17  18
HETATM   18  C3  UNL     1      22.654   5.544  47.638  1.00  0.00     0.292 C 
BRANCH  18  19
HETATM   19  N2  UNL     1      21.751   6.615  47.956  1.00  0.00     0.094 N 
HETATM   20  C4  UNL     1      22.252   7.518  48.943  1.00  0.00     0.298 C 
HETATM   21  C5  UNL     1      21.237   8.481  49.468  1.00  0.00     0.198 C 
HETATM   22  O2  UNL     1      20.026   7.908  49.822  1.00  0.00    -0.388 OA
HETATM   23  C6  UNL     1      20.001   6.538  49.582  1.00  0.00     0.198 C 
HETATM   24  C7  UNL     1      20.400   6.208  48.160  1.00  0.00     0.298 C 
ENDBRANCH  18  19
ENDBRANCH  17  18
ENDBRANCH  14  17
ENDBRANCH   1  11
BRANCH   8  25
HETATM   25  C14 UNL     1      26.240   0.024  53.747  1.00  0.00     0.042 C 
BRANCH  25  26
HETATM   26  C15 UNL     1      26.922  -0.975  53.241  1.00  0.00    -0.085 C 
BRANCH  26  27
HETATM   27  C16 UNL     1      27.544  -1.952  52.602  1.00  0.00     0.244 C 
HETATM   28  F1  UNL     1      26.697  -2.683  51.867  1.00  0.00    -0.211 F 
ENDBRANCH  26  27
ENDBRANCH  25  26
BRANCH  25  29
HETATM   29  C17 UNL     1      26.844   1.316  53.763  1.00  0.00     0.034 C 
BRANCH  29  30
HETATM   30  C18 UNL     1      27.431   1.933  52.753  1.00  0.00     0.086 C 
HETATM   31 CL1  UNL     1      26.742   2.362  51.191  1.00  0.00    -0.097 Cl
ENDBRANCH  29  30
ENDBRANCH  25  29
ENDBRANCH   8  25
TORSDOF 9
ENDMDL
MODEL 8
REMARK VINA RESULT:      -7.1      3.324      4.942
REMARK  9 active torsions:
REMARK  status: ('A' for Active; 'I' for Inactive)
REMARK       I    between atoms: C1_2  and  N1_3 
REMARK       I    between atoms: C1_2  and  N3_12 
REMARK    1  A    between atoms: N1_3  and  C2_4 
REMARK    2  A    between atoms: C2_4  and  C3_5 
REMARK    3  A    between atoms: C3_5  and  N2_6 
REMARK    4  A    between atoms: N3_12  and  C8_13 
REMARK    5  A    between atoms: C13_20  and  C14_21 
REMARK    6  A    between atoms: C14_21  and  C15_22 
REMARK    7  A    between atoms: C14_21  and  C17_25 
REMARK    8  A    between atoms: C15_22  and  C16_23 
REMARK    9  A    between atoms: C17_25  and  C18_26 
ROOT
HETATM    1  C8  UNL     1      26.212   7.375  49.175  1.00  0.00     0.037 A 
HETATM    2  C9  UNL     1      25.524   8.044  48.184  1.00  0.00     0.032 A 
HETATM    3  C10 UNL     1      24.412   7.424  47.616  1.00  0.00     0.035 A 
HETATM    4  C11 UNL     1      24.042   6.171  48.061  1.00  0.00     0.070 A 
HETATM    5  N4  UNL     1      22.945   5.616  47.465  1.00  0.00    -0.241 NA
HETATM    6  C12 UNL     1      22.563   4.378  47.891  1.00  0.00     0.234 A 
HETATM    7  N5  UNL     1      23.223   3.693  48.868  1.00  0.00    -0.240 NA
HETATM    8  C13 UNL     1      24.309   4.228  49.468  1.00  0.00     0.089 A 
HETATM    9  C19 UNL     1      24.703   5.482  49.041  1.00  0.00     0.025 A 
HETATM   10  C20 UNL     1      25.798   6.122  49.583  1.00  0.00     0.045 A 
ENDROOT
BRANCH   1  11
HETATM   11  N3  UNL     1      27.333   8.073  49.704  1.00  0.00    -0.309 N 
HETATM   12  C1  UNL     1      28.578   8.183  49.036  1.00  0.00     0.320 C 
HETATM   13  O1  UNL     1      28.678   7.633  47.926  1.00  0.00    -0.247 OA
HETATM   14  N1  UNL     1      29.638   8.886  49.622  1.00  0.00    -0.341 N 
HETATM   15  H1  UNL     1      29.473   9.325  50.574  1.00  0.00     0.164 HD
HETATM   16  H14 UNL     1      27.151   8.508  50.657  1.00  0.00     0.170 HD
BRANCH  14  17
HETATM   17  C2  UNL     1      30.951   9.064  49.034  1.00  0.00     0.154 C 
BRANCH  17  18
HETATM   18  C3  UNL     1      31.869   8.021  49.588  1.00  0.00     0.292 C 
BRANCH  18  19
HETATM   19  N2  UNL     1      32.259   7.029  48.625  1.00  0.00     0.094 N 
HETATM   20  C4  UNL     1      31.733   5.728  48.892  1.00  0.00     0.298 C 
HETATM   21  C5  UNL     1      32.328   4.640  48.057  1.00  0.00     0.198 C 
HETATM   22  O2  UNL     1      33.711   4.660  47.982  1.00  0.00    -0.388 OA
HETATM   23  C6  UNL     1      34.261   5.725  48.688  1.00  0.00     0.198 C 
HETATM   24  C7  UNL     1      33.644   7.047  48.286  1.00  0.00     0.298 C 
ENDBRANCH  18  19
ENDBRANCH  17  18
ENDBRANCH  14  17
ENDBRANCH   1  11
BRANCH   8  25
HETATM   25  C14 UNL     1      25.011   3.533  50.490  1.00  0.00     0.042 C 
BRANCH  25  26
HETATM   26  C15 UNL     1      24.340   3.550  51.616  1.00  0.00    -0.085 C 
BRANCH  26  27
HETATM   27  C16 UNL     1      23.761   3.668  52.799  1.00  0.00     0.244 C 
HETATM   28  F1  UNL     1      24.591   3.332  53.794  1.00  0.00    -0.211 F 
ENDBRANCH  26  27
ENDBRANCH  25  26
BRANCH  25  29
HETATM   29  C17 UNL     1      26.268   2.860  50.461  1.00  0.00     0.034 C 
BRANCH  29  30
HETATM   30  C18 UNL     1      26.709   1.961  51.323  1.00  0.00     0.086 C 
HETATM   31 CL1  UNL     1      27.698   2.219  52.755  1.00  0.00    -0.097 Cl
ENDBRANCH  29  30
ENDBRANCH  25  29
ENDBRANCH   8  25
TORSDOF 9
ENDMDL
MODEL 9
REMARK VINA RESULT:      -7.0      3.478      5.363
REMARK  9 active torsions:
REMARK  status: ('A' for Active; 'I' for Inactive)
REMARK       I    between atoms: C1_2  and  N1_3 
REMARK       I    between atoms: C1_2  and  N3_12 
REMARK    1  A    between atoms: N1_3  and  C2_4 
REMARK    2  A    between atoms: C2_4  and  C3_5 
REMARK    3  A    between atoms: C3_5  and  N2_6 
REMARK    4  A    between atoms: N3_12  and  C8_13 
REMARK    5  A    between atoms: C13_20  and  C14_21 
REMARK    6  A    between atoms: C14_21  and  C15_22 
REMARK    7  A    between atoms: C14_21  and  C17_25 
REMARK    8  A    between atoms: C15_22  and  C16_23 
REMARK    9  A    between atoms: C17_25  and  C18_26 
ROOT
HETATM    1  C8  UNL     1      25.986   2.068  51.746  1.00  0.00     0.037 A 
HETATM    2  C9  UNL     1      26.639   1.124  52.511  1.00  0.00     0.032 A 
HETATM    3  C10 UNL     1      25.880   0.123  53.116  1.00  0.00     0.035 A 
HETATM    4  C11 UNL     1      24.513   0.113  52.930  1.00  0.00     0.070 A 
HETATM    5  N4  UNL     1      23.825  -0.892  53.549  1.00  0.00    -0.241 NA
HETATM    6  C12 UNL     1      22.471  -0.919  53.378  1.00  0.00     0.234 A 
HETATM    7  N5  UNL     1      21.800   0.000  52.628  1.00  0.00    -0.240 NA
HETATM    8  C13 UNL     1      22.465   1.000  52.009  1.00  0.00     0.089 A 
HETATM    9  C19 UNL     1      23.836   1.035  52.178  1.00  0.00     0.025 A 
HETATM   10  C20 UNL     1      24.615   2.011  51.593  1.00  0.00     0.045 A 
ENDROOT
BRANCH   1  11
HETATM   11  N3  UNL     1      26.829   3.055  51.162  1.00  0.00    -0.309 N 
HETATM   12  C1  UNL     1      26.446   3.865  50.064  1.00  0.00     0.320 C 
HETATM   13  O1  UNL     1      25.308   3.690  49.598  1.00  0.00    -0.247 OA
HETATM   14  N1  UNL     1      27.333   4.816  49.541  1.00  0.00    -0.341 N 
HETATM   15  H1  UNL     1      28.287   4.902  49.994  1.00  0.00     0.164 HD
HETATM   16  H14 UNL     1      27.781   3.130  51.627  1.00  0.00     0.170 HD
BRANCH  14  17
HETATM   17  C2  UNL     1      27.051   5.697  48.424  1.00  0.00     0.154 C 
BRANCH  17  18
HETATM   18  C3  UNL     1      27.061   7.109  48.916  1.00  0.00     0.292 C 
BRANCH  18  19
HETATM   19  N2  UNL     1      25.748   7.674  49.067  1.00  0.00     0.094 N 
HETATM   20  C4  UNL     1      25.224   7.566  50.391  1.00  0.00     0.298 C 
HETATM   21  C5  UNL     1      23.774   7.913  50.509  1.00  0.00     0.198 C 
HETATM   22  O2  UNL     1      22.960   7.326  49.553  1.00  0.00    -0.388 OA
HETATM   23  C6  UNL     1      23.682   6.548  48.654  1.00  0.00     0.198 C 
HETATM   24  C7  UNL     1      24.829   7.317  48.037  1.00  0.00     0.298 C 
ENDBRANCH  18  19
ENDBRANCH  17  18
ENDBRANCH  14  17
ENDBRANCH   1  11
BRANCH   8  25
HETATM   25  C14 UNL     1      21.786   1.967  51.221  1.00  0.00     0.042 C 
BRANCH  25  26
HETATM   26  C15 UNL     1      21.596   1.530  50.000  1.00  0.00    -0.085 C 
BRANCH  26  27
HETATM   27  C16 UNL     1      21.538   1.143  48.737  1.00  0.00     0.244 C 
HETATM   28  F1  UNL     1      22.563   1.622  48.022  1.00  0.00    -0.211 F 
ENDBRANCH  26  27
ENDBRANCH  25  26
BRANCH  25  29
HETATM   29  C17 UNL     1      21.311   3.270  51.554  1.00  0.00     0.034 C 
BRANCH  29  30
HETATM   30  C18 UNL     1      21.990   4.403  51.499  1.00  0.00     0.086 C 
HETATM   31 CL1  UNL     1      23.245   4.975  52.592  1.00  0.00    -0.097 Cl
ENDBRANCH  29  30
ENDBRANCH  25  29
ENDBRANCH   8  25
TORSDOF 9
ENDMDL
