MODEL 1
REMARK VINA RESULT:      -7.7      0.000      0.000
REMARK  6 active torsions:
REMARK  status: ('A' for Active; 'I' for Inactive)
REMARK    1  A    between atoms: C2_2  and  N1_3 
REMARK    2  A    between atoms: N1_3  and  C4_5 
REMARK    3  A    between atoms: C4_5  and  C5_6 
REMARK    4  A    between atoms: C5_6  and  C6_7 
REMARK    5  A    between atoms: C9_10  and  N2_11 
REMARK    6  A    between atoms: N2_11  and  C10_12 
ROOT
HETATM    1  C6  UNL     1      21.969  -0.605  53.852  1.00  0.00    -0.056 A 
HETATM    2  C7  UNL     1      22.771  -0.006  52.908  1.00  0.00     0.009 A 
HETATM    3  C8  UNL     1      24.110  -0.019  53.081  1.00  0.00     0.029 A 
HETATM    4  C9  UNL     1      24.751  -0.605  54.160  1.00  0.00     0.028 A 
HETATM    5  C15 UNL     1      23.886  -1.184  55.058  1.00  0.00     0.029 A 
HETATM    6  C16 UNL     1      22.510  -1.222  54.973  1.00  0.00     0.009 A 
ENDROOT
BRANCH   4   7
HETATM    7  N2  UNL     1      26.155  -0.595  54.291  1.00  0.00    -0.375 N 
HETATM    8  H15 UNL     1      26.512  -1.040  55.180  1.00  0.00     0.160 HD
BRANCH   7   9
HETATM    9  C10 UNL     1      27.179  -0.081  53.421  1.00  0.00     0.186 A 
HETATM   10  C11 UNL     1      28.320  -1.003  53.222  1.00  0.00     0.023 A 
HETATM   11  C12 UNL     1      29.647  -0.953  53.420  1.00  0.00     0.090 A 
HETATM   12  N3  UNL     1      30.086   0.302  53.964  1.00  0.00    -0.331 N 
HETATM   13  C13 UNL     1      29.162   1.339  54.243  1.00  0.00     0.293 A 
HETATM   14  H19 UNL     1      31.114   0.369  54.125  1.00  0.00     0.168 HD
HETATM   15  O1  UNL     1      29.552   2.418  54.710  1.00  0.00    -0.264 OA
HETATM   16  C14 UNL     1      27.712   1.186  53.995  1.00  0.00     0.242 A 
HETATM   17  O2  UNL     1      26.893   2.092  54.252  1.00  0.00    -0.285 OA
ENDBRANCH   7   9
ENDBRANCH   4   7
BRANCH   1  18
HETATM   18  C5  UNL     1      20.490  -0.603  53.690  1.00  0.00     0.068 C 
BRANCH  18  19
HETATM   19  C4  UNL     1      19.998   0.545  52.819  1.00  0.00     0.276 C 
BRANCH  19  20
HETATM   20  N1  UNL     1      19.615   0.123  51.515  1.00  0.00     0.084 N 
HETATM   21  C3  UNL     1      18.221  -0.272  51.518  1.00  0.00     0.309 C 
BRANCH  20  22
HETATM   22  C2  UNL     1      19.882   1.054  50.462  1.00  0.00     0.267 C 
HETATM   23  C1  UNL     1      21.126   0.842  49.690  1.00  0.00     0.037 C 
ENDBRANCH  20  22
ENDBRANCH  19  20
ENDBRANCH  18  19
ENDBRANCH   1  18
TORSDOF 6
ENDMDL
MODEL 2
REMARK VINA RESULT:      -7.5      0.798      1.477
REMARK  6 active torsions:
REMARK  status: ('A' for Active; 'I' for Inactive)
REMARK    1  A    between atoms: C2_2  and  N1_3 
REMARK    2  A    between atoms: N1_3  and  C4_5 
REMARK    3  A    between atoms: C4_5  and  C5_6 
REMARK    4  A    between atoms: C5_6  and  C6_7 
REMARK    5  A    between atoms: C9_10  and  N2_11 
REMARK    6  A    between atoms: N2_11  and  C10_12 
ROOT
HETATM    1  C6  UNL     1      21.874  -0.646  54.039  1.00  0.00    -0.056 A 
HETATM    2  C7  UNL     1      22.520  -1.287  55.072  1.00  0.00     0.009 A 
HETATM    3  C8  UNL     1      23.868  -1.253  55.124  1.00  0.00     0.029 A 
HETATM    4  C9  UNL     1      24.669  -0.607  54.196  1.00  0.00     0.028 A 
HETATM    5  C15 UNL     1      23.954   0.009  53.195  1.00  0.00     0.029 A 
HETATM    6  C16 UNL     1      22.583   0.031  53.054  1.00  0.00     0.009 A 
ENDROOT
BRANCH   4   7
HETATM    7  N2  UNL     1      26.075  -0.599  54.297  1.00  0.00    -0.375 N 
HETATM    8  H15 UNL     1      26.450  -1.050  55.176  1.00  0.00     0.160 HD
BRANCH   7   9
HETATM    9  C10 UNL     1      27.081  -0.082  53.407  1.00  0.00     0.186 A 
HETATM   10  C11 UNL     1      28.214  -1.006  53.176  1.00  0.00     0.023 A 
HETATM   11  C12 UNL     1      29.545  -0.961  53.344  1.00  0.00     0.090 A 
HETATM   12  N3  UNL     1      30.000   0.287  53.887  1.00  0.00    -0.331 N 
HETATM   13  C13 UNL     1      29.087   1.326  54.195  1.00  0.00     0.293 A 
HETATM   14  H19 UNL     1      31.032   0.350  54.026  1.00  0.00     0.168 HD
HETATM   15  O1  UNL     1      29.491   2.400  54.661  1.00  0.00    -0.264 OA
HETATM   16  C14 UNL     1      27.631   1.179  53.978  1.00  0.00     0.242 A 
HETATM   17  O2  UNL     1      26.820   2.085  54.260  1.00  0.00    -0.285 OA
ENDBRANCH   7   9
ENDBRANCH   4   7
BRANCH   1  18
HETATM   18  C5  UNL     1      20.389  -0.669  53.954  1.00  0.00     0.068 C 
BRANCH  18  19
HETATM   19  C4  UNL     1      19.852   0.230  52.848  1.00  0.00     0.276 C 
BRANCH  19  20
HETATM   20  N1  UNL     1      18.934  -0.439  51.990  1.00  0.00     0.084 N 
HETATM   21  C3  UNL     1      17.796  -0.904  52.757  1.00  0.00     0.309 C 
BRANCH  20  22
HETATM   22  C2  UNL     1      18.511   0.302  50.842  1.00  0.00     0.267 C 
HETATM   23  C1  UNL     1      17.077   0.218  50.492  1.00  0.00     0.037 C 
ENDBRANCH  20  22
ENDBRANCH  19  20
ENDBRANCH  18  19
ENDBRANCH   1  18
TORSDOF 6
ENDMDL
MODEL 3
REMARK VINA RESULT:      -7.2      1.906      2.974
REMARK  6 active torsions:
REMARK  status: ('A' for Active; 'I' for Inactive)
REMARK    1  A    between atoms: C2_2  and  N1_3 
REMARK    2  A    between atoms: N1_3  and  C4_5 
REMARK    3  A    between atoms: C4_5  and  C5_6 
REMARK    4  A    between atoms: C5_6  and  C6_7 
REMARK    5  A    between atoms: C9_10  and  N2_11 
REMARK    6  A    between atoms: N2_11  and  C10_12 
ROOT
HETATM    1  C6  UNL     1      21.734   0.317  52.351  1.00  0.00    -0.056 A 
HETATM    2  C7  UNL     1      22.484  -0.416  53.243  1.00  0.00     0.009 A 
HETATM    3  C8  UNL     1      23.822  -0.241  53.273  1.00  0.00     0.029 A 
HETATM    4  C9  UNL     1      24.513   0.640  52.456  1.00  0.00     0.028 A 
HETATM    5  C15 UNL     1      23.698   1.335  51.594  1.00  0.00     0.029 A 
HETATM    6  C16 UNL     1      22.327   1.229  51.486  1.00  0.00     0.009 A 
ENDROOT
BRANCH   4   7
HETATM    7  N2  UNL     1      25.913   0.787  52.530  1.00  0.00    -0.375 N 
HETATM    8  H15 UNL     1      26.396   0.827  51.591  1.00  0.00     0.160 HD
BRANCH   7   9
HETATM    9  C10 UNL     1      26.791   0.891  53.665  1.00  0.00     0.186 A 
HETATM   10  C11 UNL     1      27.603   2.129  53.687  1.00  0.00     0.023 A 
HETATM   11  C12 UNL     1      28.913   2.423  53.715  1.00  0.00     0.090 A 
HETATM   12  N3  UNL     1      29.749   1.256  53.722  1.00  0.00    -0.331 N 
HETATM   13  C13 UNL     1      29.188  -0.045  53.698  1.00  0.00     0.293 A 
HETATM   14  H19 UNL     1      30.773   1.456  53.747  1.00  0.00     0.168 HD
HETATM   15  O1  UNL     1      29.920  -1.045  53.708  1.00  0.00    -0.264 OA
HETATM   16  C14 UNL     1      27.727  -0.268  53.663  1.00  0.00     0.242 A 
HETATM   17  O2  UNL     1      27.227  -1.411  53.628  1.00  0.00    -0.285 OA
ENDBRANCH   7   9
ENDBRANCH   4   7
BRANCH   1  18
HETATM   18  C5  UNL     1      20.258   0.143  52.293  1.00  0.00     0.068 C 
BRANCH  18  19
HETATM   19  C4  UNL     1      19.712  -0.635  53.482  1.00  0.00     0.276 C 
BRANCH  19  20
HETATM   20  N1  UNL     1      18.346  -1.002  53.323  1.00  0.00     0.084 N 
HETATM   21  C3  UNL     1      17.909  -0.689  51.977  1.00  0.00     0.309 C 
BRANCH  20  22
HETATM   22  C2  UNL     1      18.027  -2.353  53.664  1.00  0.00     0.267 C 
HETATM   23  C1  UNL     1      16.792  -2.913  53.072  1.00  0.00     0.037 C 
ENDBRANCH  20  22
ENDBRANCH  19  20
ENDBRANCH  18  19
ENDBRANCH   1  18
TORSDOF 6
ENDMDL
MODEL 4
REMARK VINA RESULT:      -6.7      1.731      2.602
REMARK  6 active torsions:
REMARK  status: ('A' for Active; 'I' for Inactive)
REMARK    1  A    between atoms: C2_2  and  N1_3 
REMARK    2  A    between atoms: N1_3  and  C4_5 
REMARK    3  A    between atoms: C4_5  and  C5_6 
REMARK    4  A    between atoms: C5_6  and  C6_7 
REMARK    5  A    between atoms: C9_10  and  N2_11 
REMARK    6  A    between atoms: N2_11  and  C10_12 
ROOT
HETATM    1  C6  UNL     1      21.088   0.593  51.556  1.00  0.00    -0.056 A 
HETATM    2  C7  UNL     1      22.004   1.294  50.805  1.00  0.00     0.009 A 
HETATM    3  C8  UNL     1      23.227   1.536  51.322  1.00  0.00     0.029 A 
HETATM    4  C9  UNL     1      23.640   1.121  52.578  1.00  0.00     0.028 A 
HETATM    5  C15 UNL     1      22.672   0.429  53.267  1.00  0.00     0.029 A 
HETATM    6  C16 UNL     1      21.399   0.132  52.829  1.00  0.00     0.009 A 
ENDROOT
BRANCH   4   7
HETATM    7  N2  UNL     1      24.931   1.398  53.070  1.00  0.00    -0.375 N 
HETATM    8  H15 UNL     1      24.950   2.052  53.899  1.00  0.00     0.160 HD
BRANCH   7   9
HETATM    9  C10 UNL     1      26.224   0.939  52.633  1.00  0.00     0.186 A 
HETATM   10  C11 UNL     1      26.267  -0.499  52.286  1.00  0.00     0.023 A 
HETATM   11  C12 UNL     1      26.965  -1.570  52.697  1.00  0.00     0.090 A 
HETATM   12  N3  UNL     1      27.906  -1.261  53.737  1.00  0.00    -0.331 N 
HETATM   13  C13 UNL     1      28.035   0.058  54.236  1.00  0.00     0.293 A 
HETATM   14  H19 UNL     1      28.464  -2.076  54.074  1.00  0.00     0.168 HD
HETATM   15  O1  UNL     1      28.853   0.314  55.131  1.00  0.00    -0.264 OA
HETATM   16  C14 UNL     1      27.215   1.176  53.720  1.00  0.00     0.242 A 
HETATM   17  O2  UNL     1      27.315   2.337  54.165  1.00  0.00    -0.285 OA
ENDBRANCH   7   9
ENDBRANCH   4   7
BRANCH   1  18
HETATM   18  C5  UNL     1      19.731   0.315  51.014  1.00  0.00     0.068 C 
BRANCH  18  19
HETATM   19  C4  UNL     1      18.659   0.308  52.095  1.00  0.00     0.276 C 
BRANCH  19  20
HETATM   20  N1  UNL     1      17.845  -0.860  52.058  1.00  0.00     0.084 N 
HETATM   21  C3  UNL     1      17.856  -1.506  53.356  1.00  0.00     0.309 C 
BRANCH  20  22
HETATM   22  C2  UNL     1      16.507  -0.664  51.594  1.00  0.00     0.267 C 
HETATM   23  C1  UNL     1      16.323  -0.549  50.131  1.00  0.00     0.037 C 
ENDBRANCH  20  22
ENDBRANCH  19  20
ENDBRANCH  18  19
ENDBRANCH   1  18
TORSDOF 6
ENDMDL
MODEL 5
REMARK VINA RESULT:      -6.7      5.895      7.380
REMARK  6 active torsions:
REMARK  status: ('A' for Active; 'I' for Inactive)
REMARK    1  A    between atoms: C2_2  and  N1_3 
REMARK    2  A    between atoms: N1_3  and  C4_5 
REMARK    3  A    between atoms: C4_5  and  C5_6 
REMARK    4  A    between atoms: C5_6  and  C6_7 
REMARK    5  A    between atoms: C9_10  and  N2_11 
REMARK    6  A    between atoms: N2_11  and  C10_12 
ROOT
HETATM    1  C6  UNL     1      25.941   5.489  49.212  1.00  0.00    -0.056 A 
HETATM    2  C7  UNL     1      26.870   4.491  49.028  1.00  0.00     0.009 A 
HETATM    3  C8  UNL     1      26.809   3.388  49.805  1.00  0.00     0.029 A 
HETATM    4  C9  UNL     1      25.861   3.180  50.793  1.00  0.00     0.028 A 
HETATM    5  C15 UNL     1      24.968   4.219  50.917  1.00  0.00     0.029 A 
HETATM    6  C16 UNL     1      24.946   5.382  50.177  1.00  0.00     0.009 A 
ENDROOT
BRANCH   4   7
HETATM    7  N2  UNL     1      25.840   2.008  51.575  1.00  0.00    -0.375 N 
HETATM    8  H15 UNL     1      24.921   1.828  52.065  1.00  0.00     0.160 HD
BRANCH   7   9
HETATM    9  C10 UNL     1      26.856   1.017  51.816  1.00  0.00     0.186 A 
HETATM   10  C11 UNL     1      26.324  -0.321  52.158  1.00  0.00     0.023 A 
HETATM   11  C12 UNL     1      26.444  -1.172  53.190  1.00  0.00     0.090 A 
HETATM   12  N3  UNL     1      27.295  -0.672  54.233  1.00  0.00    -0.331 N 
HETATM   13  C13 UNL     1      27.913   0.598  54.125  1.00  0.00     0.293 A 
HETATM   14  H19 UNL     1      27.407  -1.315  55.047  1.00  0.00     0.168 HD
HETATM   15  O1  UNL     1      28.647   1.019  55.030  1.00  0.00    -0.264 OA
HETATM   16  C14 UNL     1      27.715   1.469  52.946  1.00  0.00     0.242 A 
HETATM   17  O2  UNL     1      28.246   2.594  52.851  1.00  0.00    -0.285 OA
ENDBRANCH   7   9
ENDBRANCH   4   7
BRANCH   1  18
HETATM   18  C5  UNL     1      25.985   6.717  48.374  1.00  0.00     0.068 C 
BRANCH  18  19
HETATM   19  C4  UNL     1      27.279   7.500  48.549  1.00  0.00     0.276 C 
BRANCH  19  20
HETATM   20  N1  UNL     1      27.192   8.492  49.566  1.00  0.00     0.084 N 
HETATM   21  C3  UNL     1      28.396   9.297  49.569  1.00  0.00     0.309 C 
BRANCH  20  22
HETATM   22  C2  UNL     1      26.024   9.315  49.525  1.00  0.00     0.267 C 
HETATM   23  C1  UNL     1      26.077  10.497  48.636  1.00  0.00     0.037 C 
ENDBRANCH  20  22
ENDBRANCH  19  20
ENDBRANCH  18  19
ENDBRANCH   1  18
TORSDOF 6
ENDMDL
MODEL 6
REMARK VINA RESULT:      -6.7      3.051      8.238
REMARK  6 active torsions:
REMARK  status: ('A' for Active; 'I' for Inactive)
REMARK    1  A    between atoms: C2_2  and  N1_3 
REMARK    2  A    between atoms: N1_3  and  C4_5 
REMARK    3  A    between atoms: C4_5  and  C5_6 
REMARK    4  A    between atoms: C5_6  and  C6_7 
REMARK    5  A    between atoms: C9_10  and  N2_11 
REMARK    6  A    between atoms: N2_11  and  C10_12 
ROOT
HETATM    1  C6  UNL     1      24.756  -0.162  53.450  1.00  0.00    -0.056 A 
HETATM    2  C7  UNL     1      23.516  -0.660  53.778  1.00  0.00     0.009 A 
HETATM    3  C8  UNL     1      22.429  -0.190  53.131  1.00  0.00     0.029 A 
HETATM    4  C9  UNL     1      22.468   0.777  52.139  1.00  0.00     0.028 A 
HETATM    5  C15 UNL     1      23.739   1.225  51.866  1.00  0.00     0.029 A 
HETATM    6  C16 UNL     1      24.908   0.811  52.469  1.00  0.00     0.009 A 
ENDROOT
BRANCH   4   7
HETATM    7  N2  UNL     1      21.301   1.231  51.491  1.00  0.00    -0.375 N 
HETATM    8  H15 UNL     1      21.475   1.697  50.559  1.00  0.00     0.160 HD
BRANCH   7   9
HETATM    9  C10 UNL     1      19.919   1.168  51.886  1.00  0.00     0.186 A 
HETATM   10  C11 UNL     1      19.063   0.389  50.962  1.00  0.00     0.023 A 
HETATM   11  C12 UNL     1      17.966   0.632  50.228  1.00  0.00     0.090 A 
HETATM   12  N3  UNL     1      17.491   1.981  50.357  1.00  0.00    -0.331 N 
HETATM   13  C13 UNL     1      18.160   2.913  51.188  1.00  0.00     0.293 A 
HETATM   14  H19 UNL     1      16.637   2.196  49.799  1.00  0.00     0.168 HD
HETATM   15  O1  UNL     1      17.741   4.074  51.295  1.00  0.00    -0.264 OA
HETATM   16  C14 UNL     1      19.370   2.551  51.957  1.00  0.00     0.242 A 
HETATM   17  O2  UNL     1      19.971   3.371  52.681  1.00  0.00    -0.285 OA
ENDBRANCH   7   9
ENDBRANCH   4   7
BRANCH   1  18
HETATM   18  C5  UNL     1      25.972  -0.658  54.148  1.00  0.00     0.068 C 
BRANCH  18  19
HETATM   19  C4  UNL     1      26.889   0.471  54.602  1.00  0.00     0.276 C 
BRANCH  19  20
HETATM   20  N1  UNL     1      28.269   0.147  54.471  1.00  0.00     0.084 N 
HETATM   21  C3  UNL     1      28.445  -0.833  53.418  1.00  0.00     0.309 C 
BRANCH  20  22
HETATM   22  C2  UNL     1      29.148   1.260  54.289  1.00  0.00     0.267 C 
HETATM   23  C1  UNL     1      28.591   2.437  53.587  1.00  0.00     0.037 C 
ENDBRANCH  20  22
ENDBRANCH  19  20
ENDBRANCH  18  19
ENDBRANCH   1  18
TORSDOF 6
ENDMDL
MODEL 7
REMARK VINA RESULT:      -6.7      3.007      7.472
REMARK  6 active torsions:
REMARK  status: ('A' for Active; 'I' for Inactive)
REMARK    1  A    between atoms: C2_2  and  N1_3 
REMARK    2  A    between atoms: N1_3  and  C4_5 
REMARK    3  A    between atoms: C4_5  and  C5_6 
REMARK    4  A    between atoms: C5_6  and  C6_7 
REMARK    5  A    between atoms: C9_10  and  N2_11 
REMARK    6  A    between atoms: N2_11  and  C10_12 
ROOT
HETATM    1  C6  UNL     1      25.173  -0.059  53.006  1.00  0.00    -0.056 A 
HETATM    2  C7  UNL     1      23.910  -0.433  53.406  1.00  0.00     0.009 A 
HETATM    3  C8  UNL     1      22.858   0.341  53.063  1.00  0.00     0.029 A 
HETATM    4  C9  UNL     1      22.956   1.508  52.322  1.00  0.00     0.028 A 
HETATM    5  C15 UNL     1      24.246   1.815  51.960  1.00  0.00     0.029 A 
HETATM    6  C16 UNL     1      25.383   1.094  52.259  1.00  0.00     0.009 A 
ENDROOT
BRANCH   4   7
HETATM    7  N2  UNL     1      21.824   2.279  51.988  1.00  0.00    -0.375 N 
HETATM    8  H15 UNL     1      21.375   2.771  52.809  1.00  0.00     0.160 HD
BRANCH   7   9
HETATM    9  C10 UNL     1      21.181   2.509  50.721  1.00  0.00     0.186 A 
HETATM   10  C11 UNL     1      21.192   1.335  49.819  1.00  0.00     0.023 A 
HETATM   11  C12 UNL     1      21.648   1.074  48.583  1.00  0.00     0.090 A 
HETATM   12  N3  UNL     1      22.290   2.203  47.971  1.00  0.00    -0.331 N 
HETATM   13  C13 UNL     1      22.403   3.438  48.655  1.00  0.00     0.293 A 
HETATM   14  H19 UNL     1      22.652   2.027  47.008  1.00  0.00     0.168 HD
HETATM   15  O1  UNL     1      22.957   4.407  48.117  1.00  0.00    -0.264 OA
HETATM   16  C14 UNL     1      21.872   3.628  50.022  1.00  0.00     0.242 A 
HETATM   17  O2  UNL     1      21.980   4.710  50.635  1.00  0.00    -0.285 OA
ENDBRANCH   7   9
ENDBRANCH   4   7
BRANCH   1  18
HETATM   18  C5  UNL     1      26.351  -0.890  53.372  1.00  0.00     0.068 C 
BRANCH  18  19
HETATM   19  C4  UNL     1      27.669  -0.259  52.942  1.00  0.00     0.276 C 
BRANCH  19  20
HETATM   20  N1  UNL     1      28.635  -0.233  53.986  1.00  0.00     0.084 N 
HETATM   21  C3  UNL     1      29.794  -1.013  53.600  1.00  0.00     0.309 C 
BRANCH  20  22
HETATM   22  C2  UNL     1      29.020   1.067  54.439  1.00  0.00     0.267 C 
HETATM   23  C1  UNL     1      28.603   2.211  53.599  1.00  0.00     0.037 C 
ENDBRANCH  20  22
ENDBRANCH  19  20
ENDBRANCH  18  19
ENDBRANCH   1  18
TORSDOF 6
ENDMDL
MODEL 8
REMARK VINA RESULT:      -6.6      2.153      2.947
REMARK  6 active torsions:
REMARK  status: ('A' for Active; 'I' for Inactive)
REMARK    1  A    between atoms: C2_2  and  N1_3 
REMARK    2  A    between atoms: N1_3  and  C4_5 
REMARK    3  A    between atoms: C4_5  and  C5_6 
REMARK    4  A    between atoms: C5_6  and  C6_7 
REMARK    5  A    between atoms: C9_10  and  N2_11 
REMARK    6  A    between atoms: N2_11  and  C10_12 
ROOT
HETATM    1  C6  UNL     1      21.835   2.247  52.310  1.00  0.00    -0.056 A 
HETATM    2  C7  UNL     1      22.600   1.359  53.031  1.00  0.00     0.009 A 
HETATM    3  C8  UNL     1      23.936   1.543  53.092  1.00  0.00     0.029 A 
HETATM    4  C9  UNL     1      24.610   2.581  52.471  1.00  0.00     0.028 A 
HETATM    5  C15 UNL     1      23.781   3.426  51.771  1.00  0.00     0.029 A 
HETATM    6  C16 UNL     1      22.412   3.325  51.647  1.00  0.00     0.009 A 
ENDROOT
BRANCH   4   7
HETATM    7  N2  UNL     1      26.009   2.730  52.568  1.00  0.00    -0.375 N 
HETATM    8  H15 UNL     1      26.324   3.694  52.864  1.00  0.00     0.160 HD
BRANCH   7   9
HETATM    9  C10 UNL     1      27.074   1.792  52.333  1.00  0.00     0.186 A 
HETATM   10  C11 UNL     1      26.615   0.458  51.884  1.00  0.00     0.023 A 
HETATM   11  C12 UNL     1      26.740  -0.804  52.327  1.00  0.00     0.090 A 
HETATM   12  N3  UNL     1      27.505  -0.901  53.538  1.00  0.00    -0.331 N 
HETATM   13  C13 UNL     1      28.044   0.255  54.156  1.00  0.00     0.293 A 
HETATM   14  H19 UNL     1      27.620  -1.872  53.902  1.00  0.00     0.168 HD
HETATM   15  O1  UNL     1      28.704   0.160  55.200  1.00  0.00    -0.264 OA
HETATM   16  C14 UNL     1      27.847   1.609  53.593  1.00  0.00     0.242 A 
HETATM   17  O2  UNL     1      28.307   2.632  54.140  1.00  0.00    -0.285 OA
ENDBRANCH   7   9
ENDBRANCH   4   7
BRANCH   1  18
HETATM   18  C5  UNL     1      20.361   2.069  52.222  1.00  0.00     0.068 C 
BRANCH  18  19
HETATM   19  C4  UNL     1      19.765   2.720  50.981  1.00  0.00     0.276 C 
BRANCH  19  20
HETATM   20  N1  UNL     1      19.530   1.791  49.929  1.00  0.00     0.084 N 
HETATM   21  C3  UNL     1      18.122   1.783  49.588  1.00  0.00     0.309 C 
BRANCH  20  22
HETATM   22  C2  UNL     1      20.339   1.962  48.763  1.00  0.00     0.267 C 
HETATM   23  C1  UNL     1      21.590   1.175  48.702  1.00  0.00     0.037 C 
ENDBRANCH  20  22
ENDBRANCH  19  20
ENDBRANCH  18  19
ENDBRANCH   1  18
TORSDOF 6
ENDMDL
MODEL 9
REMARK VINA RESULT:      -6.6      4.912      7.389
REMARK  6 active torsions:
REMARK  status: ('A' for Active; 'I' for Inactive)
REMARK    1  A    between atoms: C2_2  and  N1_3 
REMARK    2  A    between atoms: N1_3  and  C4_5 
REMARK    3  A    between atoms: C4_5  and  C5_6 
REMARK    4  A    between atoms: C5_6  and  C6_7 
REMARK    5  A    between atoms: C9_10  and  N2_11 
REMARK    6  A    between atoms: N2_11  and  C10_12 
ROOT
HETATM    1  C6  UNL     1      25.609   3.630  50.089  1.00  0.00    -0.056 A 
HETATM    2  C7  UNL     1      26.174   2.843  51.067  1.00  0.00     0.009 A 
HETATM    3  C8  UNL     1      25.367   2.163  51.909  1.00  0.00     0.029 A 
HETATM    4  C9  UNL     1      23.983   2.197  51.861  1.00  0.00     0.028 A 
HETATM    5  C15 UNL     1      23.493   3.003  50.860  1.00  0.00     0.029 A 
HETATM    6  C16 UNL     1      24.229   3.735  49.954  1.00  0.00     0.009 A 
ENDROOT
BRANCH   4   7
HETATM    7  N2  UNL     1      23.185   1.465  52.763  1.00  0.00    -0.375 N 
HETATM    8  H15 UNL     1      22.925   1.992  53.641  1.00  0.00     0.160 HD
BRANCH   7   9
HETATM    9  C10 UNL     1      22.666   0.124  52.688  1.00  0.00     0.186 A 
HETATM   10  C11 UNL     1      21.188   0.050  52.667  1.00  0.00     0.023 A 
HETATM   11  C12 UNL     1      20.240  -0.530  53.420  1.00  0.00     0.090 A 
HETATM   12  N3  UNL     1      20.778  -1.263  54.532  1.00  0.00    -0.331 N 
HETATM   13  C13 UNL     1      22.175  -1.327  54.757  1.00  0.00     0.293 A 
HETATM   14  H19 UNL     1      20.062  -1.727  55.133  1.00  0.00     0.168 HD
HETATM   15  O1  UNL     1      22.628  -1.965  55.718  1.00  0.00    -0.264 OA
HETATM   16  C14 UNL     1      23.144  -0.647  53.870  1.00  0.00     0.242 A 
HETATM   17  O2  UNL     1      24.375  -0.689  54.071  1.00  0.00    -0.285 OA
ENDBRANCH   7   9
ENDBRANCH   4   7
BRANCH   1  18
HETATM   18  C5  UNL     1      26.473   4.394  49.149  1.00  0.00     0.068 C 
BRANCH  18  19
HETATM   19  C4  UNL     1      25.883   5.749  48.782  1.00  0.00     0.276 C 
BRANCH  19  20
HETATM   20  N1  UNL     1      26.472   6.822  49.508  1.00  0.00     0.084 N 
HETATM   21  C3  UNL     1      27.458   7.489  48.682  1.00  0.00     0.309 C 
BRANCH  20  22
HETATM   22  C2  UNL     1      25.554   7.762  50.071  1.00  0.00     0.267 C 
HETATM   23  C1  UNL     1      24.451   7.206  50.885  1.00  0.00     0.037 C 
ENDBRANCH  20  22
ENDBRANCH  19  20
ENDBRANCH  18  19
ENDBRANCH   1  18
TORSDOF 6
ENDMDL
