MODEL 1
REMARK VINA RESULT:      -9.5      0.000      0.000
REMARK  5 active torsions:
REMARK  status: ('A' for Active; 'I' for Inactive)
REMARK    1  A    between atoms: C3_3  and  C4_4 
REMARK    2  A    between atoms: C7_8  and  C8_9 
REMARK    3  A    between atoms: C8_9  and  O1_10 
REMARK    4  A    between atoms: O1_10  and  C9_11 
REMARK    5  A    between atoms: C9_11  and  C10_12 
ROOT
HETATM    1  C4  UNL     1      23.516   4.191  50.375  1.00  0.00     0.224 C 
HETATM    2  N1  UNL     1      24.019   3.176  51.178  1.00  0.00    -0.276 NA
HETATM    3  C5  UNL     1      23.822   2.755  52.350  1.00  0.00     0.090 C 
HETATM    4  C6  UNL     1      24.589   1.615  52.860  1.00  0.00     0.085 C 
HETATM    5  C7  UNL     1      23.855   0.467  53.369  1.00  0.00    -0.020 C 
HETATM    6  C14 UNL     1      22.640   0.025  53.649  1.00  0.00     0.100 A 
HETATM    7  N3  UNL     1      22.547  -1.278  54.161  1.00  0.00    -0.273 N 
HETATM    8  N4  UNL     1      21.380  -1.974  54.431  1.00  0.00    -0.167 NA
HETATM    9  C15 UNL     1      20.255  -1.393  54.202  1.00  0.00     0.257 A 
HETATM   10  N5  UNL     1      20.220  -0.073  53.690  1.00  0.00    -0.221 NA
HETATM   11  C16 UNL     1      21.270   0.591  53.433  1.00  0.00     0.154 A 
HETATM   12  N6  UNL     1      20.431   1.759  53.046  1.00  0.00    -0.362 N 
HETATM   13  C17 UNL     1      20.579   2.212  51.674  1.00  0.00     0.049 A 
HETATM   14  C18 UNL     1      20.726   1.307  50.664  1.00  0.00     0.030 A 
HETATM   15  C19 UNL     1      21.247   2.402  50.031  1.00  0.00     0.050 A 
HETATM   16  C20 UNL     1      21.324   3.605  50.632  1.00  0.00     0.045 A 
HETATM   17  C21 UNL     1      21.226   4.604  51.545  1.00  0.00     0.030 A 
HETATM   18  C22 UNL     1      20.723   3.495  52.141  1.00  0.00     0.050 A 
HETATM   19  N7  UNL     1      22.297   4.009  49.619  1.00  0.00    -0.387 N 
HETATM   20  H22 UNL     1      23.262  -1.938  54.457  1.00  0.00     0.189 HD
HETATM   21  H24 UNL     1      19.777   2.226  53.785  1.00  0.00     0.162 HD
HETATM   22  H29 UNL     1      22.295   4.187  48.560  1.00  0.00     0.156 HD
ENDROOT
BRANCH   5  23
HETATM   23  C8  UNL     1      25.052  -0.455  53.443  1.00  0.00     0.204 C 
BRANCH  23  24
HETATM   24  O1  UNL     1      25.490  -0.682  54.708  1.00  0.00    -0.384 OA
BRANCH  24  25
HETATM   25  C9  UNL     1      26.596  -0.141  55.201  1.00  0.00     0.201 C 
BRANCH  25  26
HETATM   26  C10 UNL     1      27.750  -0.123  54.260  1.00  0.00     0.173 C 
HETATM   27  C11 UNL     1      28.831   0.777  54.862  1.00  0.00     0.303 C 
HETATM   28  N2  UNL     1      29.731   1.085  53.761  1.00  0.00     0.088 N 
HETATM   29  C12 UNL     1      30.141  -0.113  53.075  1.00  0.00     0.295 C 
HETATM   30  H17 UNL     1      29.222   1.753  53.145  1.00  0.00     0.316 HD
HETATM   31  C13 UNL     1      29.664  -1.338  53.808  1.00  0.00     0.198 C 
HETATM   32  O2  UNL     1      28.275  -1.305  53.878  1.00  0.00    -0.380 OA
ENDBRANCH  25  26
ENDBRANCH  24  25
ENDBRANCH  23  24
ENDBRANCH   5  23
BRANCH   1  33
HETATM   33  C3  UNL     1      24.604   4.481  49.343  1.00  0.00     0.016 C 
HETATM   34  C2  UNL     1      25.900   4.385  49.611  1.00  0.00    -0.031 C 
HETATM   35  C1  UNL     1      27.210   4.568  48.935  1.00  0.00     0.036 C 
ENDBRANCH   1  33
TORSDOF 5
ENDMDL
MODEL 2
REMARK VINA RESULT:      -8.9      1.409      1.827
REMARK  5 active torsions:
REMARK  status: ('A' for Active; 'I' for Inactive)
REMARK    1  A    between atoms: C3_3  and  C4_4 
REMARK    2  A    between atoms: C7_8  and  C8_9 
REMARK    3  A    between atoms: C8_9  and  O1_10 
REMARK    4  A    between atoms: O1_10  and  C9_11 
REMARK    5  A    between atoms: C9_11  and  C10_12 
ROOT
HETATM    1  C4  UNL     1      24.388   3.872  50.040  1.00  0.00     0.224 C 
HETATM    2  N1  UNL     1      24.184   2.969  51.075  1.00  0.00    -0.276 NA
HETATM    3  C5  UNL     1      23.365   2.835  52.023  1.00  0.00     0.090 C 
HETATM    4  C6  UNL     1      23.490   1.706  52.948  1.00  0.00     0.085 C 
HETATM    5  C7  UNL     1      22.339   0.831  53.123  1.00  0.00    -0.020 C 
HETATM    6  C14 UNL     1      21.067   0.676  52.796  1.00  0.00     0.100 A 
HETATM    7  N3  UNL     1      20.420  -0.459  53.309  1.00  0.00    -0.273 N 
HETATM    8  N4  UNL     1      19.129  -0.870  53.020  1.00  0.00    -0.167 NA
HETATM    9  C15 UNL     1      18.428  -0.158  52.209  1.00  0.00     0.257 A 
HETATM   10  N5  UNL     1      18.970   1.016  51.631  1.00  0.00    -0.221 NA
HETATM   11  C16 UNL     1      20.149   1.419  51.875  1.00  0.00     0.154 A 
HETATM   12  N6  UNL     1      19.912   2.613  51.018  1.00  0.00    -0.362 N 
HETATM   13  C17 UNL     1      20.792   2.746  49.868  1.00  0.00     0.049 A 
HETATM   14  C18 UNL     1      21.158   1.643  49.153  1.00  0.00     0.030 A 
HETATM   15  C19 UNL     1      22.171   2.479  48.771  1.00  0.00     0.050 A 
HETATM   16  C20 UNL     1      22.261   3.746  49.219  1.00  0.00     0.045 A 
HETATM   17  C21 UNL     1      22.005   4.910  49.866  1.00  0.00     0.030 A 
HETATM   18  C22 UNL     1      21.021   4.051  50.228  1.00  0.00     0.050 A 
HETATM   19  N7  UNL     1      23.660   3.759  48.795  1.00  0.00    -0.387 N 
HETATM   20  H22 UNL     1      20.722  -1.161  53.980  1.00  0.00     0.189 HD
HETATM   21  H24 UNL     1      19.132   3.328  51.285  1.00  0.00     0.162 HD
HETATM   22  H29 UNL     1      24.196   3.716  47.867  1.00  0.00     0.156 HD
ENDROOT
BRANCH   5  23
HETATM   23  C8  UNL     1      23.087  -0.252  53.868  1.00  0.00     0.204 C 
BRANCH  23  24
HETATM   24  O1  UNL     1      24.337  -0.480  53.394  1.00  0.00    -0.384 OA
BRANCH  24  25
HETATM   25  C9  UNL     1      25.355  -0.833  54.168  1.00  0.00     0.201 C 
BRANCH  25  26
HETATM   26  C10 UNL     1      26.637  -0.140  53.862  1.00  0.00     0.173 C 
HETATM   27  C11 UNL     1      26.627   1.207  54.586  1.00  0.00     0.303 C 
HETATM   28  N2  UNL     1      27.672   1.993  53.949  1.00  0.00     0.088 N 
HETATM   29  C12 UNL     1      28.910   1.258  53.887  1.00  0.00     0.295 C 
HETATM   30  H17 UNL     1      27.308   2.258  53.009  1.00  0.00     0.316 HD
HETATM   31  C13 UNL     1      28.805  -0.030  54.658  1.00  0.00     0.198 C 
HETATM   32  O2  UNL     1      27.788  -0.801  54.105  1.00  0.00    -0.380 OA
ENDBRANCH  25  26
ENDBRANCH  24  25
ENDBRANCH  23  24
ENDBRANCH   5  23
BRANCH   1  33
HETATM   33  C3  UNL     1      25.864   3.751  49.668  1.00  0.00     0.016 C 
HETATM   34  C2  UNL     1      26.542   4.723  49.071  1.00  0.00    -0.031 C 
HETATM   35  C1  UNL     1      27.911   4.999  48.565  1.00  0.00     0.036 C 
ENDBRANCH   1  33
TORSDOF 5
ENDMDL
MODEL 3
REMARK VINA RESULT:      -8.8      3.815      7.357
REMARK  5 active torsions:
REMARK  status: ('A' for Active; 'I' for Inactive)
REMARK    1  A    between atoms: C3_3  and  C4_4 
REMARK    2  A    between atoms: C7_8  and  C8_9 
REMARK    3  A    between atoms: C8_9  and  O1_10 
REMARK    4  A    between atoms: O1_10  and  C9_11 
REMARK    5  A    between atoms: C9_11  and  C10_12 
ROOT
HETATM    1  C4  UNL     1      26.489   1.378  52.435  1.00  0.00     0.224 C 
HETATM    2  N1  UNL     1      26.769   2.300  51.436  1.00  0.00    -0.276 NA
HETATM    3  C5  UNL     1      26.259   2.636  50.334  1.00  0.00     0.090 C 
HETATM    4  C6  UNL     1      26.877   3.694  49.530  1.00  0.00     0.085 C 
HETATM    5  C7  UNL     1      26.055   4.832  49.146  1.00  0.00    -0.020 C 
HETATM    6  C14 UNL     1      24.821   5.308  49.177  1.00  0.00     0.100 A 
HETATM    7  N3  UNL     1      24.618   6.569  48.597  1.00  0.00    -0.273 N 
HETATM    8  N4  UNL     1      23.439   7.296  48.603  1.00  0.00    -0.167 NA
HETATM    9  C15 UNL     1      22.410   6.788  49.187  1.00  0.00     0.257 A 
HETATM   10  N5  UNL     1      22.491   5.517  49.805  1.00  0.00    -0.221 NA
HETATM   11  C16 UNL     1      23.555   4.826  49.817  1.00  0.00     0.154 A 
HETATM   12  N6  UNL     1      22.833   3.734  50.525  1.00  0.00    -0.362 N 
HETATM   13  C17 UNL     1      23.351   3.384  51.837  1.00  0.00     0.049 A 
HETATM   14  C18 UNL     1      23.798   4.359  52.680  1.00  0.00     0.030 A 
HETATM   15  C19 UNL     1      24.452   3.294  53.237  1.00  0.00     0.050 A 
HETATM   16  C20 UNL     1      24.328   2.044  52.749  1.00  0.00     0.045 A 
HETATM   17  C21 UNL     1      23.953   0.982  51.993  1.00  0.00     0.030 A 
HETATM   18  C22 UNL     1      23.328   2.063  51.464  1.00  0.00     0.050 A 
HETATM   19  N7  UNL     1      25.537   1.676  53.483  1.00  0.00    -0.387 N 
HETATM   20  H22 UNL     1      25.235   7.169  48.055  1.00  0.00     0.189 HD
HETATM   21  H24 UNL     1      21.986   3.241  50.043  1.00  0.00     0.162 HD
HETATM   22  H29 UNL     1      25.830   1.584  54.511  1.00  0.00     0.156 HD
ENDROOT
BRANCH   5  23
HETATM   23  C8  UNL     1      27.203   5.688  48.657  1.00  0.00     0.204 C 
BRANCH  23  24
HETATM   24  O1  UNL     1      28.367   5.007  48.504  1.00  0.00    -0.384 OA
BRANCH  24  25
HETATM   25  C9  UNL     1      29.466   5.551  48.001  1.00  0.00     0.201 C 
BRANCH  25  26
HETATM   26  C10 UNL     1      29.778   6.913  48.518  1.00  0.00     0.173 C 
HETATM   27  C11 UNL     1      31.208   6.893  49.059  1.00  0.00     0.303 C 
HETATM   28  N2  UNL     1      31.318   8.077  49.896  1.00  0.00     0.088 N 
HETATM   29  C12 UNL     1      30.867   9.252  49.196  1.00  0.00     0.295 C 
HETATM   30  H17 UNL     1      30.766   7.879  50.758  1.00  0.00     0.316 HD
HETATM   31  C13 UNL     1      30.586   8.938  47.751  1.00  0.00     0.198 C 
HETATM   32  O2  UNL     1      29.598   7.962  47.689  1.00  0.00    -0.380 OA
ENDBRANCH  25  26
ENDBRANCH  24  25
ENDBRANCH  23  24
ENDBRANCH   5  23
BRANCH   1  33
HETATM   33  C3  UNL     1      27.817   1.119  53.144  1.00  0.00     0.016 C 
HETATM   34  C2  UNL     1      28.352  -0.089  53.261  1.00  0.00    -0.031 C 
HETATM   35  C1  UNL     1      29.554  -0.741  53.840  1.00  0.00     0.036 C 
ENDBRANCH   1  33
TORSDOF 5
ENDMDL
MODEL 4
REMARK VINA RESULT:      -8.6      2.952      5.656
REMARK  5 active torsions:
REMARK  status: ('A' for Active; 'I' for Inactive)
REMARK    1  A    between atoms: C3_3  and  C4_4 
REMARK    2  A    between atoms: C7_8  and  C8_9 
REMARK    3  A    between atoms: C8_9  and  O1_10 
REMARK    4  A    between atoms: O1_10  and  C9_11 
REMARK    5  A    between atoms: C9_11  and  C10_12 
ROOT
HETATM    1  C4  UNL     1      26.257   3.044  50.294  1.00  0.00     0.224 C 
HETATM    2  N1  UNL     1      24.877   2.894  50.255  1.00  0.00    -0.276 NA
HETATM    3  C5  UNL     1      24.061   1.933  50.270  1.00  0.00     0.090 C 
HETATM    4  C6  UNL     1      22.620   2.191  50.203  1.00  0.00     0.085 C 
HETATM    5  C7  UNL     1      21.777   1.649  51.258  1.00  0.00    -0.020 C 
HETATM    6  C14 UNL     1      21.786   0.873  52.329  1.00  0.00     0.100 A 
HETATM    7  N3  UNL     1      20.563   0.707  52.995  1.00  0.00    -0.273 N 
HETATM    8  N4  UNL     1      20.360   0.023  54.183  1.00  0.00    -0.167 NA
HETATM    9  C15 UNL     1      21.375  -0.527  54.753  1.00  0.00     0.257 A 
HETATM   10  N5  UNL     1      22.663  -0.433  54.171  1.00  0.00    -0.221 NA
HETATM   11  C16 UNL     1      22.881   0.185  53.084  1.00  0.00     0.154 A 
HETATM   12  N6  UNL     1      24.313  -0.219  53.148  1.00  0.00    -0.362 N 
HETATM   13  C17 UNL     1      25.271   0.872  53.216  1.00  0.00     0.049 A 
HETATM   14  C18 UNL     1      24.998   1.980  53.964  1.00  0.00     0.030 A 
HETATM   15  C19 UNL     1      25.946   2.521  53.139  1.00  0.00     0.050 A 
HETATM   16  C20 UNL     1      26.559   1.796  52.183  1.00  0.00     0.045 A 
HETATM   17  C21 UNL     1      26.931   0.772  51.375  1.00  0.00     0.030 A 
HETATM   18  C22 UNL     1      25.983   0.274  52.206  1.00  0.00     0.050 A 
HETATM   19  N7  UNL     1      26.973   3.047  51.551  1.00  0.00    -0.387 N 
HETATM   20  H22 UNL     1      19.619   1.001  52.756  1.00  0.00     0.189 HD
HETATM   21  H24 UNL     1      24.580  -1.277  53.122  1.00  0.00     0.162 HD
HETATM   22  H29 UNL     1      27.624   3.866  51.790  1.00  0.00     0.156 HD
ENDROOT
BRANCH   5  23
HETATM   23  C8  UNL     1      20.543   2.441  50.885  1.00  0.00     0.204 C 
BRANCH  23  24
HETATM   24  O1  UNL     1      20.768   3.772  50.747  1.00  0.00    -0.384 OA
BRANCH  24  25
HETATM   25  C9  UNL     1      20.993   4.581  51.774  1.00  0.00     0.201 C 
BRANCH  25  26
HETATM   26  C10 UNL     1      21.984   5.660  51.509  1.00  0.00     0.173 C 
HETATM   27  C11 UNL     1      23.316   5.237  52.131  1.00  0.00     0.303 C 
HETATM   28  N2  UNL     1      24.108   6.455  52.207  1.00  0.00     0.088 N 
HETATM   29  C12 UNL     1      24.131   7.140  50.940  1.00  0.00     0.295 C 
HETATM   30  H17 UNL     1      23.693   7.027  52.972  1.00  0.00     0.316 HD
HETATM   31  C13 UNL     1      23.481   6.304  49.870  1.00  0.00     0.198 C 
HETATM   32  O2  UNL     1      22.162   6.059  50.233  1.00  0.00    -0.380 OA
ENDBRANCH  25  26
ENDBRANCH  24  25
ENDBRANCH  23  24
ENDBRANCH   5  23
BRANCH   1  33
HETATM   33  C3  UNL     1      26.545   4.398  49.649  1.00  0.00     0.016 C 
HETATM   34  C2  UNL     1      27.606   4.624  48.886  1.00  0.00    -0.031 C 
HETATM   35  C1  UNL     1      28.225   5.731  48.111  1.00  0.00     0.036 C 
ENDBRANCH   1  33
TORSDOF 5
ENDMDL
MODEL 5
REMARK VINA RESULT:      -8.5      4.924      8.514
REMARK  5 active torsions:
REMARK  status: ('A' for Active; 'I' for Inactive)
REMARK    1  A    between atoms: C3_3  and  C4_4 
REMARK    2  A    between atoms: C7_8  and  C8_9 
REMARK    3  A    between atoms: C8_9  and  O1_10 
REMARK    4  A    between atoms: O1_10  and  C9_11 
REMARK    5  A    between atoms: C9_11  and  C10_12 
ROOT
HETATM    1  C4  UNL     1      25.986   3.112  50.562  1.00  0.00     0.224 C 
HETATM    2  N1  UNL     1      26.994   3.833  49.938  1.00  0.00    -0.276 NA
HETATM    3  C5  UNL     1      27.160   4.395  48.822  1.00  0.00     0.090 C 
HETATM    4  C6  UNL     1      28.423   5.077  48.523  1.00  0.00     0.085 C 
HETATM    5  C7  UNL     1      28.369   6.475  48.121  1.00  0.00    -0.020 C 
HETATM    6  C14 UNL     1      27.540   7.460  47.819  1.00  0.00     0.100 A 
HETATM    7  N3  UNL     1      28.122   8.690  47.479  1.00  0.00    -0.273 N 
HETATM    8  N4  UNL     1      27.450   9.875  47.224  1.00  0.00    -0.167 NA
HETATM    9  C15 UNL     1      26.164   9.876  47.294  1.00  0.00     0.257 A 
HETATM   10  N5  UNL     1      25.463   8.691  47.623  1.00  0.00    -0.221 NA
HETATM   11  C16 UNL     1      26.048   7.591  47.861  1.00  0.00     0.154 A 
HETATM   12  N6  UNL     1      24.725   6.929  48.030  1.00  0.00    -0.362 N 
HETATM   13  C17 UNL     1      24.476   6.345  49.337  1.00  0.00     0.049 A 
HETATM   14  C18 UNL     1      24.897   6.984  50.466  1.00  0.00     0.030 A 
HETATM   15  C19 UNL     1      24.773   5.723  50.982  1.00  0.00     0.050 A 
HETATM   16  C20 UNL     1      24.360   4.682  50.233  1.00  0.00     0.045 A 
HETATM   17  C21 UNL     1      23.927   3.930  49.191  1.00  0.00     0.030 A 
HETATM   18  C22 UNL     1      24.070   5.191  48.714  1.00  0.00     0.050 A 
HETATM   19  N7  UNL     1      24.904   3.782  51.249  1.00  0.00    -0.387 N 
HETATM   20  H22 UNL     1      29.091   8.957  47.324  1.00  0.00     0.189 HD
HETATM   21  H24 UNL     1      24.027   6.891  47.192  1.00  0.00     0.162 HD
HETATM   22  H29 UNL     1      24.689   3.538  52.272  1.00  0.00     0.156 HD
ENDROOT
BRANCH   5  23
HETATM   23  C8  UNL     1      29.855   6.726  48.254  1.00  0.00     0.204 C 
BRANCH  23  24
HETATM   24  O1  UNL     1      30.531   5.708  48.843  1.00  0.00    -0.384 OA
BRANCH  24  25
HETATM   25  C9  UNL     1      31.843   5.724  49.038  1.00  0.00     0.201 C 
BRANCH  25  26
HETATM   26  C10 UNL     1      32.632   4.979  48.017  1.00  0.00     0.173 C 
HETATM   27  C11 UNL     1      34.097   5.393  48.163  1.00  0.00     0.303 C 
HETATM   28  N2  UNL     1      34.739   4.974  46.927  1.00  0.00     0.088 N 
HETATM   29  C12 UNL     1      34.443   3.596  46.628  1.00  0.00     0.295 C 
HETATM   30  H17 UNL     1      34.408   5.631  46.188  1.00  0.00     0.316 HD
HETATM   31  C13 UNL     1      33.709   2.948  47.772  1.00  0.00     0.198 C 
HETATM   32  O2  UNL     1      32.519   3.635  47.986  1.00  0.00    -0.380 OA
ENDBRANCH  25  26
ENDBRANCH  24  25
ENDBRANCH  23  24
ENDBRANCH   5  23
BRANCH   1  33
HETATM   33  C3  UNL     1      26.680   2.257  51.619  1.00  0.00     0.016 C 
HETATM   34  C2  UNL     1      26.513   0.944  51.712  1.00  0.00    -0.031 C 
HETATM   35  C1  UNL     1      26.973  -0.198  52.544  1.00  0.00     0.036 C 
ENDBRANCH   1  33
TORSDOF 5
ENDMDL
MODEL 6
REMARK VINA RESULT:      -8.3      6.699     11.842
REMARK  5 active torsions:
REMARK  status: ('A' for Active; 'I' for Inactive)
REMARK    1  A    between atoms: C3_3  and  C4_4 
REMARK    2  A    between atoms: C7_8  and  C8_9 
REMARK    3  A    between atoms: C8_9  and  O1_10 
REMARK    4  A    between atoms: O1_10  and  C9_11 
REMARK    5  A    between atoms: C9_11  and  C10_12 
ROOT
HETATM    1  C4  UNL     1      33.604   4.207  47.448  1.00  0.00     0.224 C 
HETATM    2  N1  UNL     1      32.298   4.628  47.658  1.00  0.00    -0.276 NA
HETATM    3  C5  UNL     1      31.708   5.422  48.439  1.00  0.00     0.090 C 
HETATM    4  C6  UNL     1      30.255   5.595  48.352  1.00  0.00     0.085 C 
HETATM    5  C7  UNL     1      29.735   6.940  48.159  1.00  0.00    -0.020 C 
HETATM    6  C14 UNL     1      30.087   8.214  48.095  1.00  0.00     0.100 A 
HETATM    7  N3  UNL     1      29.057   9.140  47.870  1.00  0.00    -0.273 N 
HETATM    8  N4  UNL     1      29.207  10.503  47.671  1.00  0.00    -0.167 NA
HETATM    9  C15 UNL     1      30.395  10.998  47.694  1.00  0.00     0.257 A 
HETATM   10  N5  UNL     1      31.516  10.162  47.919  1.00  0.00    -0.221 NA
HETATM   11  C16 UNL     1      31.413   8.911  48.105  1.00  0.00     0.154 A 
HETATM   12  N6  UNL     1      32.885   8.824  48.308  1.00  0.00    -0.362 N 
HETATM   13  C17 UNL     1      33.600   7.979  47.366  1.00  0.00     0.049 A 
HETATM   14  C18 UNL     1      33.244   7.963  46.050  1.00  0.00     0.030 A 
HETATM   15  C19 UNL     1      33.905   6.766  46.095  1.00  0.00     0.050 A 
HETATM   16  C20 UNL     1      34.475   6.307  47.226  1.00  0.00     0.045 A 
HETATM   17  C21 UNL     1      34.900   6.202  48.510  1.00  0.00     0.030 A 
HETATM   18  C22 UNL     1      34.231   7.378  48.428  1.00  0.00     0.050 A 
HETATM   19  N7  UNL     1      34.512   4.975  46.625  1.00  0.00    -0.387 N 
HETATM   20  H22 UNL     1      28.046   9.030  47.837  1.00  0.00     0.189 HD
HETATM   21  H24 UNL     1      33.351   9.361  49.135  1.00  0.00     0.162 HD
HETATM   22  H29 UNL     1      35.017   4.502  45.804  1.00  0.00     0.156 HD
ENDROOT
BRANCH   5  23
HETATM   23  C8  UNL     1      28.321   6.509  47.836  1.00  0.00     0.204 C 
BRANCH  23  24
HETATM   24  O1  UNL     1      27.457   6.646  48.873  1.00  0.00    -0.384 OA
BRANCH  24  25
HETATM   25  C9  UNL     1      26.139   6.599  48.732  1.00  0.00     0.201 C 
BRANCH  25  26
HETATM   26  C10 UNL     1      25.408   6.047  49.906  1.00  0.00     0.173 C 
HETATM   27  C11 UNL     1      24.697   7.207  50.604  1.00  0.00     0.303 C 
HETATM   28  N2  UNL     1      24.353   6.707  51.926  1.00  0.00     0.088 N 
HETATM   29  C12 UNL     1      23.674   5.439  51.841  1.00  0.00     0.295 C 
HETATM   30  H17 UNL     1      25.246   6.656  52.461  1.00  0.00     0.316 HD
HETATM   31  C13 UNL     1      23.362   5.095  50.409  1.00  0.00     0.198 C 
HETATM   32  O2  UNL     1      24.554   5.024  49.696  1.00  0.00    -0.380 OA
ENDBRANCH  25  26
ENDBRANCH  24  25
ENDBRANCH  23  24
ENDBRANCH   5  23
BRANCH   1  33
HETATM   33  C3  UNL     1      33.497   2.838  46.780  1.00  0.00     0.016 C 
HETATM   34  C2  UNL     1      32.497   1.997  47.011  1.00  0.00    -0.031 C 
HETATM   35  C1  UNL     1      32.038   0.647  46.595  1.00  0.00     0.036 C 
ENDBRANCH   1  33
TORSDOF 5
ENDMDL
MODEL 7
REMARK VINA RESULT:      -8.0      6.066      9.723
REMARK  5 active torsions:
REMARK  status: ('A' for Active; 'I' for Inactive)
REMARK    1  A    between atoms: C3_3  and  C4_4 
REMARK    2  A    between atoms: C7_8  and  C8_9 
REMARK    3  A    between atoms: C8_9  and  O1_10 
REMARK    4  A    between atoms: O1_10  and  C9_11 
REMARK    5  A    between atoms: C9_11  and  C10_12 
ROOT
HETATM    1  C4  UNL     1      25.523   4.717  49.323  1.00  0.00     0.224 C 
HETATM    2  N1  UNL     1      26.883   4.913  49.123  1.00  0.00    -0.276 NA
HETATM    3  C5  UNL     1      27.605   5.539  48.301  1.00  0.00     0.090 C 
HETATM    4  C6  UNL     1      29.065   5.493  48.422  1.00  0.00     0.085 C 
HETATM    5  C7  UNL     1      29.785   6.754  48.525  1.00  0.00    -0.020 C 
HETATM    6  C14 UNL     1      29.635   8.067  48.476  1.00  0.00     0.100 A 
HETATM    7  N3  UNL     1      30.791   8.839  48.660  1.00  0.00    -0.273 N 
HETATM    8  N4  UNL     1      30.852  10.221  48.745  1.00  0.00    -0.167 NA
HETATM    9  C15 UNL     1      29.756  10.889  48.643  1.00  0.00     0.257 A 
HETATM   10  N5  UNL     1      28.524  10.219  48.448  1.00  0.00    -0.221 NA
HETATM   11  C16 UNL     1      28.434   8.956  48.367  1.00  0.00     0.154 A 
HETATM   12  N6  UNL     1      26.971   9.080  48.123  1.00  0.00    -0.362 N 
HETATM   13  C17 UNL     1      26.113   8.437  49.105  1.00  0.00     0.049 A 
HETATM   14  C18 UNL     1      26.436   8.477  50.429  1.00  0.00     0.030 A 
HETATM   15  C19 UNL     1      25.598   7.396  50.457  1.00  0.00     0.050 A 
HETATM   16  C20 UNL     1      24.986   6.937  49.348  1.00  0.00     0.045 A 
HETATM   17  C21 UNL     1      24.576   6.791  48.064  1.00  0.00     0.030 A 
HETATM   18  C22 UNL     1      25.418   7.853  48.074  1.00  0.00     0.050 A 
HETATM   19  N7  UNL     1      24.730   5.682  50.053  1.00  0.00    -0.387 N 
HETATM   20  H22 UNL     1      31.772   8.578  48.734  1.00  0.00     0.189 HD
HETATM   21  H24 UNL     1      26.610   9.612  47.240  1.00  0.00     0.162 HD
HETATM   22  H29 UNL     1      24.141   5.362  50.891  1.00  0.00     0.156 HD
ENDROOT
BRANCH   5  23
HETATM   23  C8  UNL     1      31.108   6.139  48.927  1.00  0.00     0.204 C 
BRANCH  23  24
HETATM   24  O1  UNL     1      32.111   6.376  48.045  1.00  0.00    -0.384 OA
BRANCH  24  25
HETATM   25  C9  UNL     1      33.393   6.203  48.340  1.00  0.00     0.201 C 
BRANCH  25  26
HETATM   26  C10 UNL     1      34.157   5.403  47.343  1.00  0.00     0.173 C 
HETATM   27  C11 UNL     1      33.985   3.925  47.695  1.00  0.00     0.303 C 
HETATM   28  N2  UNL     1      35.043   3.233  46.976  1.00  0.00     0.088 N 
HETATM   29  C12 UNL     1      35.057   3.608  45.585  1.00  0.00     0.295 C 
HETATM   30  H17 UNL     1      35.931   3.463  47.469  1.00  0.00     0.316 HD
HETATM   31  C13 UNL     1      33.864   4.464  45.251  1.00  0.00     0.198 C 
HETATM   32  O2  UNL     1      33.904   5.612  46.035  1.00  0.00    -0.380 OA
ENDBRANCH  25  26
ENDBRANCH  24  25
ENDBRANCH  23  24
ENDBRANCH   5  23
BRANCH   1  33
HETATM   33  C3  UNL     1      25.402   3.409  50.101  1.00  0.00     0.016 C 
HETATM   34  C2  UNL     1      26.420   2.855  50.748  1.00  0.00    -0.031 C 
HETATM   35  C1  UNL     1      26.714   1.660  51.579  1.00  0.00     0.036 C 
ENDBRANCH   1  33
TORSDOF 5
ENDMDL
MODEL 8
REMARK VINA RESULT:      -8.0      4.065      6.805
REMARK  5 active torsions:
REMARK  status: ('A' for Active; 'I' for Inactive)
REMARK    1  A    between atoms: C3_3  and  C4_4 
REMARK    2  A    between atoms: C7_8  and  C8_9 
REMARK    3  A    between atoms: C8_9  and  O1_10 
REMARK    4  A    between atoms: O1_10  and  C9_11 
REMARK    5  A    between atoms: C9_11  and  C10_12 
ROOT
HETATM    1  C4  UNL     1      25.230   3.800  50.098  1.00  0.00     0.224 C 
HETATM    2  N1  UNL     1      24.142   3.563  49.269  1.00  0.00    -0.276 NA
HETATM    3  C5  UNL     1      23.462   2.562  48.917  1.00  0.00     0.090 C 
HETATM    4  C6  UNL     1      22.348   2.723  47.979  1.00  0.00     0.085 C 
HETATM    5  C7  UNL     1      21.034   2.248  48.387  1.00  0.00    -0.020 C 
HETATM    6  C14 UNL     1      20.391   1.596  49.341  1.00  0.00     0.100 A 
HETATM    7  N3  UNL     1      19.009   1.429  49.169  1.00  0.00    -0.273 N 
HETATM    8  N4  UNL     1      18.129   0.869  50.080  1.00  0.00    -0.167 NA
HETATM    9  C15 UNL     1      18.597   0.446  51.202  1.00  0.00     0.257 A 
HETATM   10  N5  UNL     1      19.980   0.554  51.489  1.00  0.00    -0.221 NA
HETATM   11  C16 UNL     1      20.811   1.062  50.677  1.00  0.00     0.154 A 
HETATM   12  N6  UNL     1      21.918   0.756  51.625  1.00  0.00    -0.362 N 
HETATM   13  C17 UNL     1      22.664   1.904  52.111  1.00  0.00     0.049 A 
HETATM   14  C18 UNL     1      22.018   3.068  52.408  1.00  0.00     0.030 A 
HETATM   15  C19 UNL     1      23.279   3.573  52.245  1.00  0.00     0.050 A 
HETATM   16  C20 UNL     1      24.329   2.787  51.935  1.00  0.00     0.045 A 
HETATM   17  C21 UNL     1      25.092   1.705  51.640  1.00  0.00     0.030 A 
HETATM   18  C22 UNL     1      23.828   1.244  51.802  1.00  0.00     0.050 A 
HETATM   19  N7  UNL     1      25.058   3.984  51.522  1.00  0.00    -0.387 N 
HETATM   20  H22 UNL     1      18.398   1.638  48.383  1.00  0.00     0.189 HD
HETATM   21  H24 UNL     1      22.131  -0.280  51.893  1.00  0.00     0.162 HD
HETATM   22  H29 UNL     1      25.452   4.862  51.997  1.00  0.00     0.156 HD
ENDROOT
BRANCH   5  23
HETATM   23  C8  UNL     1      20.277   2.919  47.261  1.00  0.00     0.204 C 
BRANCH  23  24
HETATM   24  O1  UNL     1      19.437   3.901  47.675  1.00  0.00    -0.384 OA
BRANCH  24  25
HETATM   25  C9  UNL     1      19.740   5.191  47.609  1.00  0.00     0.201 C 
BRANCH  25  26
HETATM   26  C10 UNL     1      20.331   5.754  48.854  1.00  0.00     0.173 C 
HETATM   27  C11 UNL     1      21.775   6.155  48.548  1.00  0.00     0.303 C 
HETATM   28  N2  UNL     1      22.414   6.307  49.846  1.00  0.00     0.088 N 
HETATM   29  C12 UNL     1      21.637   7.156  50.712  1.00  0.00     0.295 C 
HETATM   30  H17 UNL     1      22.540   5.345  50.225  1.00  0.00     0.316 HD
HETATM   31  C13 UNL     1      20.490   7.778  49.961  1.00  0.00     0.198 C 
HETATM   32  O2  UNL     1      19.678   6.764  49.465  1.00  0.00    -0.380 OA
ENDBRANCH  25  26
ENDBRANCH  24  25
ENDBRANCH  23  24
ENDBRANCH   5  23
BRANCH   1  33
HETATM   33  C3  UNL     1      25.867   5.091  49.587  1.00  0.00     0.016 C 
HETATM   34  C2  UNL     1      26.989   5.113  48.880  1.00  0.00    -0.031 C 
HETATM   35  C1  UNL     1      27.894   6.095  48.228  1.00  0.00     0.036 C 
ENDBRANCH   1  33
TORSDOF 5
ENDMDL
MODEL 9
REMARK VINA RESULT:      -7.9      3.813      7.082
REMARK  5 active torsions:
REMARK  status: ('A' for Active; 'I' for Inactive)
REMARK    1  A    between atoms: C3_3  and  C4_4 
REMARK    2  A    between atoms: C7_8  and  C8_9 
REMARK    3  A    between atoms: C8_9  and  O1_10 
REMARK    4  A    between atoms: O1_10  and  C9_11 
REMARK    5  A    between atoms: C9_11  and  C10_12 
ROOT
HETATM    1  C4  UNL     1      19.156   2.783  51.853  1.00  0.00     0.224 C 
HETATM    2  N1  UNL     1      20.173   3.686  51.573  1.00  0.00    -0.276 NA
HETATM    3  C5  UNL     1      21.259   4.034  52.109  1.00  0.00     0.090 C 
HETATM    4  C6  UNL     1      22.086   5.071  51.486  1.00  0.00     0.085 C 
HETATM    5  C7  UNL     1      23.471   4.749  51.175  1.00  0.00    -0.020 C 
HETATM    6  C14 UNL     1      24.398   3.815  51.310  1.00  0.00     0.100 A 
HETATM    7  N3  UNL     1      25.657   4.094  50.757  1.00  0.00    -0.273 N 
HETATM    8  N4  UNL     1      26.737   3.229  50.696  1.00  0.00    -0.167 NA
HETATM    9  C15 UNL     1      26.605   2.048  51.191  1.00  0.00     0.257 A 
HETATM   10  N5  UNL     1      25.381   1.653  51.784  1.00  0.00    -0.221 NA
HETATM   11  C16 UNL     1      24.374   2.420  51.856  1.00  0.00     0.154 A 
HETATM   12  N6  UNL     1      23.629   1.365  52.597  1.00  0.00    -0.362 N 
HETATM   13  C17 UNL     1      22.415   0.886  51.958  1.00  0.00     0.049 A 
HETATM   14  C18 UNL     1      22.373   0.714  50.605  1.00  0.00     0.030 A 
HETATM   15  C19 UNL     1      21.028   0.799  50.840  1.00  0.00     0.050 A 
HETATM   16  C20 UNL     1      20.528   0.972  52.080  1.00  0.00     0.045 A 
HETATM   17  C21 UNL     1      20.428   1.138  53.422  1.00  0.00     0.030 A 
HETATM   18  C22 UNL     1      21.753   1.056  53.149  1.00  0.00     0.050 A 
HETATM   19  N7  UNL     1      19.266   1.392  51.473  1.00  0.00    -0.387 N 
HETATM   20  H22 UNL     1      26.037   4.940  50.339  1.00  0.00     0.189 HD
HETATM   21  H24 UNL     1      23.997   1.020  53.565  1.00  0.00     0.162 HD
HETATM   22  H29 UNL     1      18.493   0.937  50.884  1.00  0.00     0.156 HD
ENDROOT
BRANCH   5  23
HETATM   23  C8  UNL     1      23.721   5.972  50.320  1.00  0.00     0.204 C 
BRANCH  23  24
HETATM   24  O1  UNL     1      24.621   6.837  50.853  1.00  0.00    -0.384 OA
BRANCH  24  25
HETATM   25  C9  UNL     1      24.827   8.057  50.374  1.00  0.00     0.201 C 
BRANCH  25  26
HETATM   26  C10 UNL     1      26.260   8.436  50.236  1.00  0.00     0.173 C 
HETATM   27  C11 UNL     1      26.851   7.623  49.083  1.00  0.00     0.303 C 
HETATM   28  N2  UNL     1      28.293   7.715  49.249  1.00  0.00     0.088 N 
HETATM   29  C12 UNL     1      28.712   9.084  49.407  1.00  0.00     0.295 C 
HETATM   30  H17 UNL     1      28.533   7.119  50.069  1.00  0.00     0.316 HD
HETATM   31  C13 UNL     1      27.560  10.025  49.173  1.00  0.00     0.198 C 
HETATM   32  O2  UNL     1      26.559   9.744  50.097  1.00  0.00    -0.380 OA
ENDBRANCH  25  26
ENDBRANCH  24  25
ENDBRANCH  23  24
ENDBRANCH   5  23
BRANCH   1  33
HETATM   33  C3  UNL     1      17.920   3.313  51.129  1.00  0.00     0.016 C 
HETATM   34  C2  UNL     1      16.817   3.691  51.763  1.00  0.00    -0.031 C 
HETATM   35  C1  UNL     1      15.468   4.233  51.457  1.00  0.00     0.036 C 
ENDBRANCH   1  33
TORSDOF 5
ENDMDL
