MODEL 1
REMARK VINA RESULT:      -6.9      0.000      0.000
REMARK  9 active torsions:
REMARK  status: ('A' for Active; 'I' for Inactive)
REMARK    1  A    between atoms: O1_2  and  C2_3 
REMARK    2  A    between atoms: N1_4  and  C3_5 
REMARK    3  A    between atoms: C7_11  and  C8_12 
REMARK    4  A    between atoms: C8_12  and  O2_13 
REMARK    5  A    between atoms: O2_13  and  C9_14 
REMARK    6  A    between atoms: N3_15  and  C10_16 
REMARK    7  A    between atoms: N4_17  and  C11_18 
REMARK    8  A    between atoms: C11_18  and  N5_19 
REMARK    9  A    between atoms: N5_19  and  C12_20 
ROOT
HETATM    1  O2  UNL     1      28.730   6.445  47.787  1.00  0.00    -0.344 OA
ENDROOT
BRANCH   1   2
HETATM    2  C8  UNL     1      30.087   6.797  47.581  1.00  0.00     0.192 C 
BRANCH   2   3
HETATM    3  C7  UNL     1      30.490   7.458  48.911  1.00  0.00     0.103 C 
HETATM    4  C3  UNL     1      30.321   8.930  48.827  1.00  0.00     0.062 C 
HETATM    5  C4  UNL     1      31.286   9.696  48.342  1.00  0.00     0.034 C 
HETATM    6 BR1  UNL     1      31.022  11.583  48.253  1.00  0.00    -0.052 Br
HETATM    7  C5  UNL     1      32.591   9.134  47.855  1.00  0.00     0.196 C 
HETATM    8  N2  UNL     1      32.837   7.935  48.604  1.00  0.00    -0.300 NA
HETATM    9  C6  UNL     1      31.943   7.181  49.080  1.00  0.00     0.096 C 
BRANCH   4  10
HETATM   10  N1  UNL     1      29.207   9.764  49.204  1.00  0.00    -0.240 NA
HETATM   11  C2  UNL     1      28.156   9.214  49.746  1.00  0.00     0.250 C 
BRANCH  11  12
HETATM   12  O1  UNL     1      27.017   9.887  50.156  1.00  0.00    -0.349 OA
HETATM   13  C1  UNL     1      25.792   9.213  49.936  1.00  0.00     0.211 C 
ENDBRANCH  11  12
ENDBRANCH   4  10
ENDBRANCH   2   3
ENDBRANCH   1   2
BRANCH   1  14
HETATM   14  C9  UNL     1      28.548   5.181  48.327  1.00  0.00     0.252 C 
HETATM   15  N3  UNL     1      27.568   4.576  48.874  1.00  0.00    -0.231 NA
BRANCH  15  16
HETATM   16  C10 UNL     1      26.330   5.232  49.021  1.00  0.00     0.230 C 
HETATM   17  N4  UNL     1      25.729   4.332  49.741  1.00  0.00    -0.263 NA
BRANCH  17  18
HETATM   18  C11 UNL     1      26.498   3.143  50.065  1.00  0.00     0.272 C 
BRANCH  18  19
HETATM   19  N5  UNL     1      26.697   3.149  51.501  1.00  0.00    -0.372 N 
HETATM   20  H15 UNL     1      26.545   4.004  52.080  1.00  0.00     0.161 HD
BRANCH  19  21
HETATM   21  C12 UNL     1      27.113   1.966  52.168  1.00  0.00     0.029 A 
HETATM   22  C13 UNL     1      28.058   1.962  53.172  1.00  0.00     0.029 A 
HETATM   23  C14 UNL     1      28.458   0.804  53.816  1.00  0.00     0.002 A 
HETATM   24  C15 UNL     1      27.911  -0.411  53.467  1.00  0.00     0.000 A 
HETATM   25  C16 UNL     1      26.953  -0.454  52.458  1.00  0.00     0.002 A 
HETATM   26  C17 UNL     1      26.605   0.737  51.862  1.00  0.00     0.029 A 
ENDBRANCH  19  21
ENDBRANCH  18  19
ENDBRANCH  17  18
ENDBRANCH  15  16
ENDBRANCH   1  14
TORSDOF 9
ENDMDL
MODEL 2
REMARK VINA RESULT:      -6.7      3.947      6.959
REMARK  9 active torsions:
REMARK  status: ('A' for Active; 'I' for Inactive)
REMARK    1  A    between atoms: O1_2  and  C2_3 
REMARK    2  A    between atoms: N1_4  and  C3_5 
REMARK    3  A    between atoms: C7_11  and  C8_12 
REMARK    4  A    between atoms: C8_12  and  O2_13 
REMARK    5  A    between atoms: O2_13  and  C9_14 
REMARK    6  A    between atoms: N3_15  and  C10_16 
REMARK    7  A    between atoms: N4_17  and  C11_18 
REMARK    8  A    between atoms: C11_18  and  N5_19 
REMARK    9  A    between atoms: N5_19  and  C12_20 
ROOT
HETATM    1  O2  UNL     1      24.951   2.931  52.292  1.00  0.00    -0.344 OA
ENDROOT
BRANCH   1   2
HETATM    2  C8  UNL     1      23.778   3.719  52.187  1.00  0.00     0.192 C 
BRANCH   2   3
HETATM    3  C7  UNL     1      23.668   3.995  50.677  1.00  0.00     0.103 C 
HETATM    4  C3  UNL     1      24.418   5.226  50.322  1.00  0.00     0.062 C 
HETATM    5  C4  UNL     1      23.848   6.417  50.415  1.00  0.00     0.034 C 
HETATM    6 BR1  UNL     1      24.853   7.969  49.948  1.00  0.00    -0.052 Br
HETATM    7  C5  UNL     1      22.431   6.596  50.877  1.00  0.00     0.196 C 
HETATM    8  N2  UNL     1      21.717   5.407  50.512  1.00  0.00    -0.300 NA
HETATM    9  C6  UNL     1      22.226   4.256  50.415  1.00  0.00     0.096 C 
BRANCH   4  10
HETATM   10  N1  UNL     1      25.771   5.390  49.853  1.00  0.00    -0.240 NA
HETATM   11  C2  UNL     1      26.402   4.361  49.357  1.00  0.00     0.250 C 
BRANCH  11  12
HETATM   12  O1  UNL     1      27.698   4.371  48.871  1.00  0.00    -0.349 OA
HETATM   13  C1  UNL     1      28.172   5.620  48.404  1.00  0.00     0.211 C 
ENDBRANCH  11  12
ENDBRANCH   4  10
ENDBRANCH   2   3
ENDBRANCH   1   2
BRANCH   1  14
HETATM   14  C9  UNL     1      25.369   2.708  53.595  1.00  0.00     0.252 C 
HETATM   15  N3  UNL     1      26.361   2.109  54.125  1.00  0.00    -0.231 NA
BRANCH  15  16
HETATM   16  C10 UNL     1      27.328   1.492  53.307  1.00  0.00     0.230 C 
HETATM   17  N4  UNL     1      27.341   0.326  53.882  1.00  0.00    -0.263 NA
BRANCH  17  18
HETATM   18  C11 UNL     1      26.447   0.154  55.014  1.00  0.00     0.272 C 
BRANCH  18  19
HETATM   19  N5  UNL     1      25.621  -1.002  54.725  1.00  0.00    -0.372 N 
HETATM   20  H15 UNL     1      25.999  -1.974  54.746  1.00  0.00     0.161 HD
BRANCH  19  21
HETATM   21  C12 UNL     1      24.249  -0.834  54.401  1.00  0.00     0.029 A 
HETATM   22  C13 UNL     1      23.226  -1.174  55.260  1.00  0.00     0.029 A 
HETATM   23  C14 UNL     1      21.891  -1.007  54.935  1.00  0.00     0.002 A 
HETATM   24  C15 UNL     1      21.532  -0.483  53.713  1.00  0.00     0.000 A 
HETATM   25  C16 UNL     1      22.532  -0.125  52.814  1.00  0.00     0.002 A 
HETATM   26  C17 UNL     1      23.837  -0.320  53.205  1.00  0.00     0.029 A 
ENDBRANCH  19  21
ENDBRANCH  18  19
ENDBRANCH  17  18
ENDBRANCH  15  16
ENDBRANCH   1  14
TORSDOF 9
ENDMDL
MODEL 3
REMARK VINA RESULT:      -6.7      7.384     10.569
REMARK  9 active torsions:
REMARK  status: ('A' for Active; 'I' for Inactive)
REMARK    1  A    between atoms: O1_2  and  C2_3 
REMARK    2  A    between atoms: N1_4  and  C3_5 
REMARK    3  A    between atoms: C7_11  and  C8_12 
REMARK    4  A    between atoms: C8_12  and  O2_13 
REMARK    5  A    between atoms: O2_13  and  C9_14 
REMARK    6  A    between atoms: N3_15  and  C10_16 
REMARK    7  A    between atoms: N4_17  and  C11_18 
REMARK    8  A    between atoms: C11_18  and  N5_19 
REMARK    9  A    between atoms: N5_19  and  C12_20 
ROOT
HETATM    1  O2  UNL     1      22.379   1.993  50.862  1.00  0.00    -0.344 OA
ENDROOT
BRANCH   1   2
HETATM    2  C8  UNL     1      21.275   1.106  50.901  1.00  0.00     0.192 C 
BRANCH   2   3
HETATM    3  C7  UNL     1      20.614   1.419  52.255  1.00  0.00     0.103 C 
HETATM    4  C3  UNL     1      19.890   0.227  52.763  1.00  0.00     0.062 C 
HETATM    5  C4  UNL     1      18.641  -0.015  52.395  1.00  0.00     0.034 C 
HETATM    6 BR1  UNL     1      17.753  -1.560  53.073  1.00  0.00    -0.052 Br
HETATM    7  C5  UNL     1      17.891   0.886  51.458  1.00  0.00     0.196 C 
HETATM    8  N2  UNL     1      18.420   2.209  51.634  1.00  0.00    -0.300 NA
HETATM    9  C6  UNL     1      19.603   2.476  51.982  1.00  0.00     0.096 C 
BRANCH   4  10
HETATM   10  N1  UNL     1      20.323  -0.815  53.660  1.00  0.00    -0.240 NA
HETATM   11  C2  UNL     1      21.375  -0.617  54.406  1.00  0.00     0.250 C 
BRANCH  11  12
HETATM   12  O1  UNL     1      21.904  -1.523  55.309  1.00  0.00    -0.349 OA
HETATM   13  C1  UNL     1      23.296  -1.418  55.543  1.00  0.00     0.211 C 
ENDBRANCH  11  12
ENDBRANCH   4  10
ENDBRANCH   2   3
ENDBRANCH   1   2
BRANCH   1  14
HETATM   14  C9  UNL     1      23.053   2.113  52.067  1.00  0.00     0.252 C 
HETATM   15  N3  UNL     1      24.276   2.253  52.396  1.00  0.00    -0.231 NA
BRANCH  15  16
HETATM   16  C10 UNL     1      25.270   2.315  51.400  1.00  0.00     0.230 C 
HETATM   17  N4  UNL     1      26.312   2.306  52.177  1.00  0.00    -0.263 NA
BRANCH  17  18
HETATM   18  C11 UNL     1      26.053   2.243  53.605  1.00  0.00     0.272 C 
BRANCH  18  19
HETATM   19  N5  UNL     1      27.298   1.859  54.241  1.00  0.00    -0.372 N 
HETATM   20  H15 UNL     1      27.755   2.449  54.970  1.00  0.00     0.161 HD
BRANCH  19  21
HETATM   21  C12 UNL     1      27.938   0.644  53.879  1.00  0.00     0.029 A 
HETATM   22  C13 UNL     1      27.248  -0.475  53.464  1.00  0.00     0.029 A 
HETATM   23  C14 UNL     1      27.880  -1.655  53.113  1.00  0.00     0.002 A 
HETATM   24  C15 UNL     1      29.253  -1.752  53.167  1.00  0.00     0.000 A 
HETATM   25  C16 UNL     1      29.990  -0.647  53.579  1.00  0.00     0.002 A 
HETATM   26  C17 UNL     1      29.294   0.492  53.914  1.00  0.00     0.029 A 
ENDBRANCH  19  21
ENDBRANCH  18  19
ENDBRANCH  17  18
ENDBRANCH  15  16
ENDBRANCH   1  14
TORSDOF 9
ENDMDL
MODEL 4
REMARK VINA RESULT:      -6.7      5.837      9.318
REMARK  9 active torsions:
REMARK  status: ('A' for Active; 'I' for Inactive)
REMARK    1  A    between atoms: O1_2  and  C2_3 
REMARK    2  A    between atoms: N1_4  and  C3_5 
REMARK    3  A    between atoms: C7_11  and  C8_12 
REMARK    4  A    between atoms: C8_12  and  O2_13 
REMARK    5  A    between atoms: O2_13  and  C9_14 
REMARK    6  A    between atoms: N3_15  and  C10_16 
REMARK    7  A    between atoms: N4_17  and  C11_18 
REMARK    8  A    between atoms: C11_18  and  N5_19 
REMARK    9  A    between atoms: N5_19  and  C12_20 
ROOT
HETATM    1  O2  UNL     1      23.896   3.100  53.314  1.00  0.00    -0.344 OA
ENDROOT
BRANCH   1   2
HETATM    2  C8  UNL     1      25.114   2.457  52.985  1.00  0.00     0.192 C 
BRANCH   2   3
HETATM    3  C7  UNL     1      24.661   1.213  52.201  1.00  0.00     0.103 C 
HETATM    4  C3  UNL     1      23.547   0.535  52.909  1.00  0.00     0.062 C 
HETATM    5  C4  UNL     1      23.789  -0.354  53.859  1.00  0.00     0.034 C 
HETATM    6 BR1  UNL     1      22.325  -1.199  54.742  1.00  0.00    -0.052 Br
HETATM    7  C5  UNL     1      25.184  -0.728  54.273  1.00  0.00     0.196 C 
HETATM    8  N2  UNL     1      26.024  -0.553  53.123  1.00  0.00    -0.300 NA
HETATM    9  C6  UNL     1      25.824   0.285  52.200  1.00  0.00     0.096 C 
BRANCH   4  10
HETATM   10  N1  UNL     1      22.120   0.671  52.749  1.00  0.00    -0.240 NA
HETATM   11  C2  UNL     1      21.598   0.543  51.561  1.00  0.00     0.250 C 
BRANCH  11  12
HETATM   12  O1  UNL     1      20.251   0.648  51.258  1.00  0.00    -0.349 OA
HETATM   13  C1  UNL     1      19.365   0.025  52.170  1.00  0.00     0.211 C 
ENDBRANCH  11  12
ENDBRANCH   4  10
ENDBRANCH   2   3
ENDBRANCH   1   2
BRANCH   1  14
HETATM   14  C9  UNL     1      23.751   4.361  52.755  1.00  0.00     0.252 C 
HETATM   15  N3  UNL     1      22.825   4.949  52.107  1.00  0.00    -0.231 NA
BRANCH  15  16
HETATM   16  C10 UNL     1      21.621   4.273  51.831  1.00  0.00     0.230 C 
HETATM   17  N4  UNL     1      21.408   4.752  50.641  1.00  0.00    -0.263 NA
BRANCH  17  18
HETATM   18  C11 UNL     1      22.396   5.689  50.136  1.00  0.00     0.272 C 
BRANCH  18  19
HETATM   19  N5  UNL     1      23.061   5.041  49.023  1.00  0.00    -0.372 N 
HETATM   20  H15 UNL     1      22.539   4.691  48.190  1.00  0.00     0.161 HD
BRANCH  19  21
HETATM   21  C12 UNL     1      24.470   4.861  49.041  1.00  0.00     0.029 A 
HETATM   22  C13 UNL     1      25.072   3.679  49.417  1.00  0.00     0.029 A 
HETATM   23  C14 UNL     1      26.446   3.513  49.432  1.00  0.00     0.002 A 
HETATM   24  C15 UNL     1      27.276   4.549  49.064  1.00  0.00     0.000 A 
HETATM   25  C16 UNL     1      26.712   5.760  48.678  1.00  0.00     0.002 A 
HETATM   26  C17 UNL     1      25.338   5.852  48.687  1.00  0.00     0.029 A 
ENDBRANCH  19  21
ENDBRANCH  18  19
ENDBRANCH  17  18
ENDBRANCH  15  16
ENDBRANCH   1  14
TORSDOF 9
ENDMDL
MODEL 5
REMARK VINA RESULT:      -6.7      7.017     10.761
REMARK  9 active torsions:
REMARK  status: ('A' for Active; 'I' for Inactive)
REMARK    1  A    between atoms: O1_2  and  C2_3 
REMARK    2  A    between atoms: N1_4  and  C3_5 
REMARK    3  A    between atoms: C7_11  and  C8_12 
REMARK    4  A    between atoms: C8_12  and  O2_13 
REMARK    5  A    between atoms: O2_13  and  C9_14 
REMARK    6  A    between atoms: N3_15  and  C10_16 
REMARK    7  A    between atoms: N4_17  and  C11_18 
REMARK    8  A    between atoms: C11_18  and  N5_19 
REMARK    9  A    between atoms: N5_19  and  C12_20 
ROOT
HETATM    1  O2  UNL     1      21.932   0.602  50.750  1.00  0.00    -0.344 OA
ENDROOT
BRANCH   1   2
HETATM    2  C8  UNL     1      20.554   0.828  50.514  1.00  0.00     0.192 C 
BRANCH   2   3
HETATM    3  C7  UNL     1      20.011   1.207  51.903  1.00  0.00     0.103 C 
HETATM    4  C3  UNL     1      19.545  -0.005  52.622  1.00  0.00     0.062 C 
HETATM    5  C4  UNL     1      18.316  -0.466  52.448  1.00  0.00     0.034 C 
HETATM    6 BR1  UNL     1      17.763  -2.027  53.394  1.00  0.00    -0.052 Br
HETATM    7  C5  UNL     1      17.332   0.198  51.528  1.00  0.00     0.196 C 
HETATM    8  N2  UNL     1      17.663   1.593  51.495  1.00  0.00    -0.300 NA
HETATM    9  C6  UNL     1      18.822   2.068  51.655  1.00  0.00     0.096 C 
BRANCH   4  10
HETATM   10  N1  UNL     1      20.235  -0.856  53.559  1.00  0.00    -0.240 NA
HETATM   11  C2  UNL     1      21.057  -0.321  54.419  1.00  0.00     0.250 C 
BRANCH  11  12
HETATM   12  O1  UNL     1      21.785  -1.012  55.373  1.00  0.00    -0.349 OA
HETATM   13  C1  UNL     1      23.147  -1.239  55.062  1.00  0.00     0.211 C 
ENDBRANCH  11  12
ENDBRANCH   4  10
ENDBRANCH   2   3
ENDBRANCH   1   2
BRANCH   1  14
HETATM   14  C9  UNL     1      22.579   1.655  51.380  1.00  0.00     0.252 C 
HETATM   15  N3  UNL     1      23.299   2.628  50.982  1.00  0.00    -0.231 NA
BRANCH  15  16
HETATM   16  C10 UNL     1      23.574   2.784  49.609  1.00  0.00     0.230 C 
HETATM   17  N4  UNL     1      24.702   3.421  49.717  1.00  0.00    -0.263 NA
BRANCH  17  18
HETATM   18  C11 UNL     1      25.169   3.684  51.067  1.00  0.00     0.272 C 
BRANCH  18  19
HETATM   19  N5  UNL     1      26.559   3.275  51.118  1.00  0.00    -0.372 N 
HETATM   20  H15 UNL     1      27.309   3.790  50.607  1.00  0.00     0.161 HD
BRANCH  19  21
HETATM   21  C12 UNL     1      26.941   2.139  51.880  1.00  0.00     0.029 A 
HETATM   22  C13 UNL     1      26.455   0.873  51.635  1.00  0.00     0.029 A 
HETATM   23  C14 UNL     1      26.832  -0.229  52.384  1.00  0.00     0.002 A 
HETATM   24  C15 UNL     1      27.726  -0.092  53.422  1.00  0.00     0.000 A 
HETATM   25  C16 UNL     1      28.242   1.169  53.705  1.00  0.00     0.002 A 
HETATM   26  C17 UNL     1      27.822   2.218  52.919  1.00  0.00     0.029 A 
ENDBRANCH  19  21
ENDBRANCH  18  19
ENDBRANCH  17  18
ENDBRANCH  15  16
ENDBRANCH   1  14
TORSDOF 9
ENDMDL
MODEL 6
REMARK VINA RESULT:      -6.6      3.349      6.202
REMARK  9 active torsions:
REMARK  status: ('A' for Active; 'I' for Inactive)
REMARK    1  A    between atoms: O1_2  and  C2_3 
REMARK    2  A    between atoms: N1_4  and  C3_5 
REMARK    3  A    between atoms: C7_11  and  C8_12 
REMARK    4  A    between atoms: C8_12  and  O2_13 
REMARK    5  A    between atoms: O2_13  and  C9_14 
REMARK    6  A    between atoms: N3_15  and  C10_16 
REMARK    7  A    between atoms: N4_17  and  C11_18 
REMARK    8  A    between atoms: C11_18  and  N5_19 
REMARK    9  A    between atoms: N5_19  and  C12_20 
ROOT
HETATM    1  O2  UNL     1      23.182   3.661  51.819  1.00  0.00    -0.344 OA
ENDROOT
BRANCH   1   2
HETATM    2  C8  UNL     1      23.723   4.823  51.216  1.00  0.00     0.192 C 
BRANCH   2   3
HETATM    3  C7  UNL     1      24.245   4.314  49.861  1.00  0.00     0.103 C 
HETATM    4  C3  UNL     1      24.980   5.391  49.154  1.00  0.00     0.062 C 
HETATM    5  C4  UNL     1      24.338   6.263  48.393  1.00  0.00     0.034 C 
HETATM    6 BR1  UNL     1      25.326   7.631  47.504  1.00  0.00    -0.052 Br
HETATM    7  C5  UNL     1      22.849   6.218  48.200  1.00  0.00     0.196 C 
HETATM    8  N2  UNL     1      22.449   4.847  48.338  1.00  0.00    -0.300 NA
HETATM    9  C6  UNL     1      23.036   3.990  49.055  1.00  0.00     0.096 C 
BRANCH   4  10
HETATM   10  N1  UNL     1      26.388   5.701  49.134  1.00  0.00    -0.240 NA
HETATM   11  C2  UNL     1      27.239   4.776  48.787  1.00  0.00     0.250 C 
BRANCH  11  12
HETATM   12  O1  UNL     1      28.613   4.929  48.722  1.00  0.00    -0.349 OA
HETATM   13  C1  UNL     1      29.071   6.139  48.147  1.00  0.00     0.211 C 
ENDBRANCH  11  12
ENDBRANCH   4  10
ENDBRANCH   2   3
ENDBRANCH   1   2
BRANCH   1  14
HETATM   14  C9  UNL     1      24.091   2.940  52.577  1.00  0.00     0.252 C 
HETATM   15  N3  UNL     1      24.127   1.753  53.039  1.00  0.00    -0.231 NA
BRANCH  15  16
HETATM   16  C10 UNL     1      23.058   0.869  52.790  1.00  0.00     0.230 C 
HETATM   17  N4  UNL     1      23.601  -0.215  53.260  1.00  0.00    -0.263 NA
BRANCH  17  18
HETATM   18  C11 UNL     1      24.946  -0.085  53.792  1.00  0.00     0.272 C 
BRANCH  18  19
HETATM   19  N5  UNL     1      25.846  -0.646  52.804  1.00  0.00    -0.372 N 
HETATM   20  H15 UNL     1      25.510  -0.998  51.881  1.00  0.00     0.161 HD
BRANCH  19  21
HETATM   21  C12 UNL     1      27.238  -0.734  53.075  1.00  0.00     0.029 A 
HETATM   22  C13 UNL     1      28.000   0.353  53.446  1.00  0.00     0.029 A 
HETATM   23  C14 UNL     1      29.356   0.259  53.708  1.00  0.00     0.002 A 
HETATM   24  C15 UNL     1      30.003  -0.953  53.605  1.00  0.00     0.000 A 
HETATM   25  C16 UNL     1      29.272  -2.076  53.234  1.00  0.00     0.002 A 
HETATM   26  C17 UNL     1      27.928  -1.907  52.989  1.00  0.00     0.029 A 
ENDBRANCH  19  21
ENDBRANCH  18  19
ENDBRANCH  17  18
ENDBRANCH  15  16
ENDBRANCH   1  14
TORSDOF 9
ENDMDL
MODEL 7
REMARK VINA RESULT:      -6.6      4.545      8.904
REMARK  9 active torsions:
REMARK  status: ('A' for Active; 'I' for Inactive)
REMARK    1  A    between atoms: O1_2  and  C2_3 
REMARK    2  A    between atoms: N1_4  and  C3_5 
REMARK    3  A    between atoms: C7_11  and  C8_12 
REMARK    4  A    between atoms: C8_12  and  O2_13 
REMARK    5  A    between atoms: O2_13  and  C9_14 
REMARK    6  A    between atoms: N3_15  and  C10_16 
REMARK    7  A    between atoms: N4_17  and  C11_18 
REMARK    8  A    between atoms: C11_18  and  N5_19 
REMARK    9  A    between atoms: N5_19  and  C12_20 
ROOT
HETATM    1  O2  UNL     1      25.507   3.909  50.625  1.00  0.00    -0.344 OA
ENDROOT
BRANCH   1   2
HETATM    2  C8  UNL     1      25.389   2.562  51.046  1.00  0.00     0.192 C 
BRANCH   2   3
HETATM    3  C7  UNL     1      24.945   2.685  52.515  1.00  0.00     0.103 C 
HETATM    4  C3  UNL     1      24.529   1.361  53.040  1.00  0.00     0.062 C 
HETATM    5  C4  UNL     1      23.290   0.924  52.873  1.00  0.00     0.034 C 
HETATM    6 BR1  UNL     1      22.802  -0.785  53.565  1.00  0.00    -0.052 Br
HETATM    7  C5  UNL     1      22.245   1.729  52.154  1.00  0.00     0.196 C 
HETATM    8  N2  UNL     1      22.576   3.112  52.345  1.00  0.00    -0.300 NA
HETATM    9  C6  UNL     1      23.744   3.563  52.505  1.00  0.00     0.096 C 
BRANCH   4  10
HETATM   10  N1  UNL     1      25.282   0.365  53.762  1.00  0.00    -0.240 NA
HETATM   11  C2  UNL     1      26.404   0.706  54.332  1.00  0.00     0.250 C 
BRANCH  11  12
HETATM   12  O1  UNL     1      27.228  -0.140  55.055  1.00  0.00    -0.349 OA
HETATM   13  C1  UNL     1      28.614  -0.017  54.796  1.00  0.00     0.211 C 
ENDBRANCH  11  12
ENDBRANCH   4  10
ENDBRANCH   2   3
ENDBRANCH   1   2
BRANCH   1  14
HETATM   14  C9  UNL     1      26.390   4.100  49.573  1.00  0.00     0.252 C 
HETATM   15  N3  UNL     1      26.759   5.109  48.888  1.00  0.00    -0.231 NA
BRANCH  15  16
HETATM   16  C10 UNL     1      26.222   6.381  49.165  1.00  0.00     0.230 C 
HETATM   17  N4  UNL     1      27.185   7.101  48.669  1.00  0.00    -0.263 NA
BRANCH  17  18
HETATM   18  C11 UNL     1      28.304   6.374  48.093  1.00  0.00     0.272 C 
BRANCH  18  19
HETATM   19  N5  UNL     1      29.443   6.599  48.961  1.00  0.00    -0.372 N 
HETATM   20  H15 UNL     1      29.376   7.174  49.829  1.00  0.00     0.161 HD
BRANCH  19  21
HETATM   21  C12 UNL     1      30.704   6.029  48.643  1.00  0.00     0.029 A 
HETATM   22  C13 UNL     1      31.878   6.411  49.256  1.00  0.00     0.029 A 
HETATM   23  C14 UNL     1      33.103   5.851  48.939  1.00  0.00     0.002 A 
HETATM   24  C15 UNL     1      33.192   4.868  47.978  1.00  0.00     0.000 A 
HETATM   25  C16 UNL     1      32.032   4.451  47.333  1.00  0.00     0.002 A 
HETATM   26  C17 UNL     1      30.850   5.054  47.699  1.00  0.00     0.029 A 
ENDBRANCH  19  21
ENDBRANCH  18  19
ENDBRANCH  17  18
ENDBRANCH  15  16
ENDBRANCH   1  14
TORSDOF 9
ENDMDL
MODEL 8
REMARK VINA RESULT:      -6.5      1.995      3.558
REMARK  9 active torsions:
REMARK  status: ('A' for Active; 'I' for Inactive)
REMARK    1  A    between atoms: O1_2  and  C2_3 
REMARK    2  A    between atoms: N1_4  and  C3_5 
REMARK    3  A    between atoms: C7_11  and  C8_12 
REMARK    4  A    between atoms: C8_12  and  O2_13 
REMARK    5  A    between atoms: O2_13  and  C9_14 
REMARK    6  A    between atoms: N3_15  and  C10_16 
REMARK    7  A    between atoms: N4_17  and  C11_18 
REMARK    8  A    between atoms: C11_18  and  N5_19 
REMARK    9  A    between atoms: N5_19  and  C12_20 
ROOT
HETATM    1  O2  UNL     1      28.070   6.583  47.981  1.00  0.00    -0.344 OA
ENDROOT
BRANCH   1   2
HETATM    2  C8  UNL     1      29.193   7.358  48.365  1.00  0.00     0.192 C 
BRANCH   2   3
HETATM    3  C7  UNL     1      30.054   7.395  47.090  1.00  0.00     0.103 C 
HETATM    4  C3  UNL     1      31.478   7.148  47.423  1.00  0.00     0.062 C 
HETATM    5  C4  UNL     1      32.271   8.142  47.790  1.00  0.00     0.034 C 
HETATM    6 BR1  UNL     1      34.095   7.775  48.209  1.00  0.00    -0.052 Br
HETATM    7  C5  UNL     1      31.787   9.560  47.891  1.00  0.00     0.196 C 
HETATM    8  N2  UNL     1      30.723   9.709  46.940  1.00  0.00    -0.300 NA
HETATM    9  C6  UNL     1      29.949   8.785  46.568  1.00  0.00     0.096 C 
BRANCH   4  10
HETATM   10  N1  UNL     1      32.236   5.921  47.425  1.00  0.00    -0.240 NA
HETATM   11  C2  UNL     1      31.798   4.904  48.113  1.00  0.00     0.250 C 
BRANCH  11  12
HETATM   12  O1  UNL     1      32.417   3.669  48.207  1.00  0.00    -0.349 OA
HETATM   13  C1  UNL     1      32.825   3.090  46.982  1.00  0.00     0.211 C 
ENDBRANCH  11  12
ENDBRANCH   4  10
ENDBRANCH   2   3
ENDBRANCH   1   2
BRANCH   1  14
HETATM   14  C9  UNL     1      28.077   5.289  48.480  1.00  0.00     0.252 C 
HETATM   15  N3  UNL     1      27.216   4.552  49.062  1.00  0.00    -0.231 NA
BRANCH  15  16
HETATM   16  C10 UNL     1      25.921   5.047  49.314  1.00  0.00     0.230 C 
HETATM   17  N4  UNL     1      25.488   4.065  50.048  1.00  0.00    -0.263 NA
BRANCH  17  18
HETATM   18  C11 UNL     1      26.418   2.974  50.283  1.00  0.00     0.272 C 
BRANCH  18  19
HETATM   19  N5  UNL     1      26.709   2.970  51.704  1.00  0.00    -0.372 N 
HETATM   20  H15 UNL     1      26.567   3.811  52.303  1.00  0.00     0.161 HD
BRANCH  19  21
HETATM   21  C12 UNL     1      27.207   1.793  52.325  1.00  0.00     0.029 A 
HETATM   22  C13 UNL     1      26.675   0.542  52.098  1.00  0.00     0.029 A 
HETATM   23  C14 UNL     1      27.167  -0.600  52.708  1.00  0.00     0.002 A 
HETATM   24  C15 UNL     1      28.228  -0.520  53.582  1.00  0.00     0.000 A 
HETATM   25  C16 UNL     1      28.796   0.724  53.840  1.00  0.00     0.002 A 
HETATM   26  C17 UNL     1      28.255   1.814  53.198  1.00  0.00     0.029 A 
ENDBRANCH  19  21
ENDBRANCH  18  19
ENDBRANCH  17  18
ENDBRANCH  15  16
ENDBRANCH   1  14
TORSDOF 9
ENDMDL
MODEL 9
REMARK VINA RESULT:      -6.4      5.931      7.399
REMARK  9 active torsions:
REMARK  status: ('A' for Active; 'I' for Inactive)
REMARK    1  A    between atoms: O1_2  and  C2_3 
REMARK    2  A    between atoms: N1_4  and  C3_5 
REMARK    3  A    between atoms: C7_11  and  C8_12 
REMARK    4  A    between atoms: C8_12  and  O2_13 
REMARK    5  A    between atoms: O2_13  and  C9_14 
REMARK    6  A    between atoms: N3_15  and  C10_16 
REMARK    7  A    between atoms: N4_17  and  C11_18 
REMARK    8  A    between atoms: C11_18  and  N5_19 
REMARK    9  A    between atoms: N5_19  and  C12_20 
ROOT
HETATM    1  O2  UNL     1      24.111   2.962  50.689  1.00  0.00    -0.344 OA
ENDROOT
BRANCH   1   2
HETATM    2  C8  UNL     1      24.385   4.314  50.367  1.00  0.00     0.192 C 
BRANCH   2   3
HETATM    3  C7  UNL     1      23.556   5.101  51.397  1.00  0.00     0.103 C 
HETATM    4  C3  UNL     1      22.161   5.266  50.918  1.00  0.00     0.062 C 
HETATM    5  C4  UNL     1      21.830   6.275  50.126  1.00  0.00     0.034 C 
HETATM    6 BR1  UNL     1      20.025   6.444  49.536  1.00  0.00    -0.052 Br
HETATM    7  C5  UNL     1      22.830   7.298  49.670  1.00  0.00     0.196 C 
HETATM    8  N2  UNL     1      23.830   7.394  50.695  1.00  0.00    -0.300 NA
HETATM    9  C6  UNL     1      24.170   6.455  51.466  1.00  0.00     0.096 C 
BRANCH   4  10
HETATM   10  N1  UNL     1      20.988   4.467  51.171  1.00  0.00    -0.240 NA
HETATM   11  C2  UNL     1      20.919   3.767  52.269  1.00  0.00     0.250 C 
BRANCH  11  12
HETATM   12  O1  UNL     1      19.860   2.957  52.642  1.00  0.00    -0.349 OA
HETATM   13  C1  UNL     1      19.265   2.203  51.602  1.00  0.00     0.211 C 
ENDBRANCH  11  12
ENDBRANCH   4  10
ENDBRANCH   2   3
ENDBRANCH   1   2
BRANCH   1  14
HETATM   14  C9  UNL     1      24.598   2.564  51.924  1.00  0.00     0.252 C 
HETATM   15  N3  UNL     1      24.245   1.692  52.784  1.00  0.00    -0.231 NA
BRANCH  15  16
HETATM   16  C10 UNL     1      23.120   0.881  52.543  1.00  0.00     0.230 C 
HETATM   17  N4  UNL     1      23.511  -0.177  53.189  1.00  0.00    -0.263 NA
BRANCH  17  18
HETATM   18  C11 UNL     1      24.813  -0.098  53.829  1.00  0.00     0.272 C 
BRANCH  18  19
HETATM   19  N5  UNL     1      25.742  -0.820  52.982  1.00  0.00    -0.372 N 
HETATM   20  H15 UNL     1      25.422  -1.432  52.201  1.00  0.00     0.161 HD
BRANCH  19  21
HETATM   21  C12 UNL     1      27.141  -0.709  53.203  1.00  0.00     0.029 A 
HETATM   22  C13 UNL     1      28.017  -1.757  53.014  1.00  0.00     0.029 A 
HETATM   23  C14 UNL     1      29.379  -1.640  53.232  1.00  0.00     0.002 A 
HETATM   24  C15 UNL     1      29.916  -0.444  53.653  1.00  0.00     0.000 A 
HETATM   25  C16 UNL     1      29.069   0.640  53.856  1.00  0.00     0.002 A 
HETATM   26  C17 UNL     1      27.727   0.450  53.620  1.00  0.00     0.029 A 
ENDBRANCH  19  21
ENDBRANCH  18  19
ENDBRANCH  17  18
ENDBRANCH  15  16
ENDBRANCH   1  14
TORSDOF 9
ENDMDL
