MODEL 1
REMARK VINA RESULT:      -8.6      0.000      0.000
REMARK  2 active torsions:
REMARK  status: ('A' for Active; 'I' for Inactive)
REMARK    1  A    between atoms: C10_14  and  N4_15 
REMARK    2  A    between atoms: N5_21  and  C16_22 
ROOT
HETATM    1  C1  UNL     1      21.822   1.297  50.079  1.00  0.00     0.020 C 
HETATM    2  C2  UNL     1      22.336   2.718  49.991  1.00  0.00     0.057 C 
HETATM    3  C3  UNL     1      21.584   3.494  51.019  1.00  0.00     0.120 C 
HETATM    4  N1  UNL     1      20.895   4.453  51.497  1.00  0.00    -0.194 NA
HETATM    5  N2  UNL     1      20.536   5.517  50.687  1.00  0.00    -0.295 N 
HETATM    6  C4  UNL     1      21.629   6.485  50.850  1.00  0.00     0.289 C 
HETATM    7  N3  UNL     1      22.858   5.866  50.427  1.00  0.00    -0.285 NA
HETATM    8  C5  UNL     1      22.903   5.401  49.231  1.00  0.00     0.090 C 
HETATM    9  C6  UNL     1      24.192   4.760  48.807  1.00  0.00     0.088 C 
HETATM   10  C7  UNL     1      24.660   3.732  49.756  1.00  0.00    -0.008 A 
HETATM   11  C8  UNL     1      25.971   3.629  50.169  1.00  0.00     0.125 A 
HETATM   12  F1  UNL     1      26.850   4.548  49.647  1.00  0.00    -0.205 F 
HETATM   13  C9  UNL     1      26.456   2.678  51.059  1.00  0.00     0.072 A 
HETATM   14  C10 UNL     1      25.555   1.769  51.567  1.00  0.00     0.034 A 
HETATM   15  C17 UNL     1      24.237   1.848  51.172  1.00  0.00     0.038 A 
HETATM   16  C18 UNL     1      23.772   2.814  50.275  1.00  0.00    -0.037 A 
HETATM   17  H6  UNL     1      19.625   5.339  50.205  1.00  0.00     0.184 HD
ENDROOT
BRANCH  14  18
HETATM   18  N4  UNL     1      26.021   0.783  52.480  1.00  0.00    -0.372 N 
HETATM   19  C11 UNL     1      26.708  -0.427  52.052  1.00  0.00     0.159 C 
HETATM   20  C12 UNL     1      26.959  -1.210  53.314  1.00  0.00     0.246 C 
HETATM   21  C13 UNL     1      25.675  -0.797  54.063  1.00  0.00     0.064 C 
HETATM   22  N5  UNL     1      27.904  -0.586  54.179  1.00  0.00     0.124 NA
HETATM   23  C14 UNL     1      25.960   0.699  53.906  1.00  0.00     0.115 C 
HETATM   24  C15 UNL     1      27.371   0.736  54.445  1.00  0.00     0.301 C 
BRANCH  22  25
HETATM   25  C16 UNL     1      29.254  -0.599  53.752  1.00  0.00     0.494 C 
HETATM   26  F2  UNL     1      29.669  -1.688  53.053  1.00  0.00    -0.223 F 
ENDBRANCH  22  25
ENDBRANCH  14  18
TORSDOF 2
ENDMDL
MODEL 2
REMARK VINA RESULT:      -8.5      2.621      3.973
REMARK  2 active torsions:
REMARK  status: ('A' for Active; 'I' for Inactive)
REMARK    1  A    between atoms: C10_14  and  N4_15 
REMARK    2  A    between atoms: N5_21  and  C16_22 
ROOT
HETATM    1  C1  UNL     1      23.417   4.253  52.626  1.00  0.00     0.020 C 
HETATM    2  C2  UNL     1      22.676   3.021  52.150  1.00  0.00     0.057 C 
HETATM    3  C3  UNL     1      22.832   2.995  50.667  1.00  0.00     0.120 C 
HETATM    4  N1  UNL     1      22.472   2.898  49.449  1.00  0.00    -0.194 NA
HETATM    5  N2  UNL     1      21.140   2.684  49.136  1.00  0.00    -0.295 N 
HETATM    6  C4  UNL     1      21.008   1.221  49.084  1.00  0.00     0.289 C 
HETATM    7  N3  UNL     1      21.361   0.681  50.371  1.00  0.00    -0.285 NA
HETATM    8  C5  UNL     1      20.709   1.111  51.390  1.00  0.00     0.090 C 
HETATM    9  C6  UNL     1      21.091   0.537  52.723  1.00  0.00     0.088 C 
HETATM   10  C7  UNL     1      22.539   0.622  52.990  1.00  0.00    -0.008 A 
HETATM   11  C8  UNL     1      23.270  -0.422  53.518  1.00  0.00     0.125 A 
HETATM   12  F1  UNL     1      22.576  -1.575  53.793  1.00  0.00    -0.205 F 
HETATM   13  C9  UNL     1      24.633  -0.387  53.786  1.00  0.00     0.072 A 
HETATM   14  C10 UNL     1      25.305   0.782  53.501  1.00  0.00     0.034 A 
HETATM   15  C17 UNL     1      24.600   1.841  52.973  1.00  0.00     0.038 A 
HETATM   16  C18 UNL     1      23.227   1.783  52.712  1.00  0.00    -0.037 A 
HETATM   17  H6  UNL     1      20.623   3.586  49.032  1.00  0.00     0.184 HD
ENDROOT
BRANCH  14  18
HETATM   18  N4  UNL     1      26.701   0.849  53.765  1.00  0.00    -0.372 N 
HETATM   19  C11 UNL     1      27.319   0.203  54.913  1.00  0.00     0.159 C 
HETATM   20  C12 UNL     1      28.775   0.580  54.847  1.00  0.00     0.246 C 
HETATM   21  C13 UNL     1      28.587   1.996  54.263  1.00  0.00     0.064 C 
HETATM   22  N5  UNL     1      29.453  -0.005  53.738  1.00  0.00     0.124 NA
HETATM   23  C14 UNL     1      27.773   1.489  53.069  1.00  0.00     0.115 C 
HETATM   24  C15 UNL     1      28.716   0.423  52.565  1.00  0.00     0.301 C 
BRANCH  22  25
HETATM   25  C16 UNL     1      29.688  -1.399  53.807  1.00  0.00     0.494 C 
HETATM   26  F2  UNL     1      28.835  -2.204  53.121  1.00  0.00    -0.223 F 
ENDBRANCH  22  25
ENDBRANCH  14  18
TORSDOF 2
ENDMDL
MODEL 3
REMARK VINA RESULT:      -8.3      2.663      3.680
REMARK  2 active torsions:
REMARK  status: ('A' for Active; 'I' for Inactive)
REMARK    1  A    between atoms: C10_14  and  N4_15 
REMARK    2  A    between atoms: N5_21  and  C16_22 
ROOT
HETATM    1  C1  UNL     1      23.371   4.848  52.651  1.00  0.00     0.020 C 
HETATM    2  C2  UNL     1      22.222   4.081  52.031  1.00  0.00     0.057 C 
HETATM    3  C3  UNL     1      22.345   4.276  50.557  1.00  0.00     0.120 C 
HETATM    4  N1  UNL     1      21.965   4.545  49.371  1.00  0.00    -0.194 NA
HETATM    5  N2  UNL     1      20.645   4.890  49.130  1.00  0.00    -0.295 N 
HETATM    6  C4  UNL     1      19.981   3.612  48.839  1.00  0.00     0.289 C 
HETATM    7  N3  UNL     1      20.119   2.752  49.986  1.00  0.00    -0.285 NA
HETATM    8  C5  UNL     1      19.681   3.191  51.110  1.00  0.00     0.090 C 
HETATM    9  C6  UNL     1      19.834   2.281  52.293  1.00  0.00     0.088 C 
HETATM   10  C7  UNL     1      21.212   1.783  52.459  1.00  0.00    -0.008 A 
HETATM   11  C8  UNL     1      21.509   0.467  52.744  1.00  0.00     0.125 A 
HETATM   12  F1  UNL     1      20.439  -0.386  52.872  1.00  0.00    -0.205 F 
HETATM   13  C9  UNL     1      22.790  -0.045  52.910  1.00  0.00     0.072 A 
HETATM   14  C10 UNL     1      23.845   0.831  52.777  1.00  0.00     0.034 A 
HETATM   15  C17 UNL     1      23.578   2.153  52.491  1.00  0.00     0.038 A 
HETATM   16  C18 UNL     1      22.280   2.645  52.330  1.00  0.00    -0.037 A 
HETATM   17  H6  UNL     1      20.499   5.921  49.219  1.00  0.00     0.184 HD
ENDROOT
BRANCH  14  18
HETATM   18  N4  UNL     1      25.168   0.337  52.941  1.00  0.00    -0.372 N 
HETATM   19  C11 UNL     1      26.245   0.641  52.010  1.00  0.00     0.159 C 
HETATM   20  C12 UNL     1      27.437  -0.127  52.515  1.00  0.00     0.246 C 
HETATM   21  C13 UNL     1      26.671  -1.351  53.057  1.00  0.00     0.064 C 
HETATM   22  N5  UNL     1      27.932   0.366  53.758  1.00  0.00     0.124 NA
HETATM   23  C14 UNL     1      25.758  -0.496  53.942  1.00  0.00     0.115 C 
HETATM   24  C15 UNL     1      26.808   0.307  54.671  1.00  0.00     0.301 C 
BRANCH  22  25
HETATM   25  C16 UNL     1      28.594   1.617  53.721  1.00  0.00     0.494 C 
HETATM   26  F2  UNL     1      27.828   2.726  53.897  1.00  0.00    -0.223 F 
ENDBRANCH  22  25
ENDBRANCH  14  18
TORSDOF 2
ENDMDL
MODEL 4
REMARK VINA RESULT:      -8.3      2.063      2.547
REMARK  2 active torsions:
REMARK  status: ('A' for Active; 'I' for Inactive)
REMARK    1  A    between atoms: C10_14  and  N4_15 
REMARK    2  A    between atoms: N5_21  and  C16_22 
ROOT
HETATM    1  C1  UNL     1      22.859   1.939  48.755  1.00  0.00     0.020 C 
HETATM    2  C2  UNL     1      22.117   2.755  49.792  1.00  0.00     0.057 C 
HETATM    3  C3  UNL     1      20.895   1.972  50.135  1.00  0.00     0.120 C 
HETATM    4  N1  UNL     1      19.657   1.758  50.349  1.00  0.00    -0.194 NA
HETATM    5  N2  UNL     1      18.746   2.794  50.231  1.00  0.00    -0.295 N 
HETATM    6  C4  UNL     1      18.675   3.373  51.580  1.00  0.00     0.289 C 
HETATM    7  N3  UNL     1      19.986   3.838  51.950  1.00  0.00    -0.285 NA
HETATM    8  C5  UNL     1      20.552   4.689  51.173  1.00  0.00     0.090 C 
HETATM    9  C6  UNL     1      21.917   5.162  51.575  1.00  0.00     0.088 C 
HETATM   10  C7  UNL     1      22.849   4.053  51.856  1.00  0.00    -0.008 A 
HETATM   11  C8  UNL     1      23.691   4.036  52.948  1.00  0.00     0.125 A 
HETATM   12  F1  UNL     1      23.627   5.122  53.787  1.00  0.00    -0.205 F 
HETATM   13  C9  UNL     1      24.583   3.014  53.251  1.00  0.00     0.072 A 
HETATM   14  C10 UNL     1      24.628   1.937  52.394  1.00  0.00     0.034 A 
HETATM   15  C17 UNL     1      23.797   1.927  51.295  1.00  0.00     0.038 A 
HETATM   16  C18 UNL     1      22.907   2.967  51.010  1.00  0.00    -0.037 A 
HETATM   17  H6  UNL     1      18.381   2.872  49.255  1.00  0.00     0.184 HD
ENDROOT
BRANCH  14  18
HETATM   18  N4  UNL     1      25.532   0.875  52.678  1.00  0.00    -0.372 N 
HETATM   19  C11 UNL     1      26.916   0.877  52.229  1.00  0.00     0.159 C 
HETATM   20  C12 UNL     1      27.483  -0.443  52.680  1.00  0.00     0.246 C 
HETATM   21  C13 UNL     1      26.199  -1.280  52.506  1.00  0.00     0.064 C 
HETATM   22  N5  UNL     1      27.598  -0.546  54.098  1.00  0.00     0.124 NA
HETATM   23  C14 UNL     1      25.368  -0.350  53.395  1.00  0.00     0.115 C 
HETATM   24  C15 UNL     1      26.263  -0.312  54.611  1.00  0.00     0.301 C 
BRANCH  22  25
HETATM   25  C16 UNL     1      28.607   0.238  54.706  1.00  0.00     0.494 C 
HETATM   26  F2  UNL     1      29.779   0.370  54.030  1.00  0.00    -0.223 F 
ENDBRANCH  22  25
ENDBRANCH  14  18
TORSDOF 2
ENDMDL
MODEL 5
REMARK VINA RESULT:      -8.1      2.284      7.327
REMARK  2 active torsions:
REMARK  status: ('A' for Active; 'I' for Inactive)
REMARK    1  A    between atoms: C10_14  and  N4_15 
REMARK    2  A    between atoms: N5_21  and  C16_22 
ROOT
HETATM    1  C1  UNL     1      26.711   2.096  50.158  1.00  0.00     0.020 C 
HETATM    2  C2  UNL     1      26.802   1.327  51.459  1.00  0.00     0.057 C 
HETATM    3  C3  UNL     1      27.558   2.200  52.402  1.00  0.00     0.120 C 
HETATM    4  N1  UNL     1      28.442   2.510  53.266  1.00  0.00    -0.194 NA
HETATM    5  N2  UNL     1      29.337   1.552  53.713  1.00  0.00    -0.295 N 
HETATM    6  C4  UNL     1      28.682   0.961  54.888  1.00  0.00     0.289 C 
HETATM    7  N3  UNL     1      27.428   0.386  54.474  1.00  0.00    -0.285 NA
HETATM    8  C5  UNL     1      27.462  -0.496  53.542  1.00  0.00     0.090 C 
HETATM    9  C6  UNL     1      26.146  -1.083  53.125  1.00  0.00     0.088 C 
HETATM   10  C7  UNL     1      25.138  -0.057  52.800  1.00  0.00    -0.008 A 
HETATM   11  C8  UNL     1      23.829  -0.124  53.231  1.00  0.00     0.125 A 
HETATM   12  F1  UNL     1      23.493  -1.214  53.996  1.00  0.00    -0.205 F 
HETATM   13  C9  UNL     1      22.847   0.818  52.948  1.00  0.00     0.072 A 
HETATM   14  C10 UNL     1      23.210   1.901  52.179  1.00  0.00     0.034 A 
HETATM   15  C17 UNL     1      24.512   1.994  51.735  1.00  0.00     0.038 A 
HETATM   16  C18 UNL     1      25.483   1.033  52.031  1.00  0.00    -0.037 A 
HETATM   17  H6  UNL     1      30.192   1.519  53.112  1.00  0.00     0.184 HD
ENDROOT
BRANCH  14  18
HETATM   18  N4  UNL     1      22.227   2.882  51.872  1.00  0.00    -0.372 N 
HETATM   19  C11 UNL     1      22.292   4.247  52.372  1.00  0.00     0.159 C 
HETATM   20  C12 UNL     1      21.039   4.915  51.872  1.00  0.00     0.246 C 
HETATM   21  C13 UNL     1      20.113   3.684  51.950  1.00  0.00     0.064 C 
HETATM   22  N5  UNL     1      21.025   5.086  50.456  1.00  0.00     0.124 NA
HETATM   23  C14 UNL     1      21.037   2.825  51.082  1.00  0.00     0.115 C 
HETATM   24  C15 UNL     1      21.202   3.757  49.906  1.00  0.00     0.301 C 
BRANCH  22  25
HETATM   25  C16 UNL     1      21.906   6.062  49.931  1.00  0.00     0.494 C 
HETATM   26  F2  UNL     1      22.124   7.169  50.689  1.00  0.00    -0.223 F 
ENDBRANCH  22  25
ENDBRANCH  14  18
TORSDOF 2
ENDMDL
MODEL 6
REMARK VINA RESULT:      -8.1      4.624      6.871
REMARK  2 active torsions:
REMARK  status: ('A' for Active; 'I' for Inactive)
REMARK    1  A    between atoms: C10_14  and  N4_15 
REMARK    2  A    between atoms: N5_21  and  C16_22 
ROOT
HETATM    1  C1  UNL     1      25.517   8.881  47.299  1.00  0.00     0.020 C 
HETATM    2  C2  UNL     1      26.985   8.730  47.637  1.00  0.00     0.057 C 
HETATM    3  C3  UNL     1      27.222   9.583  48.836  1.00  0.00     0.120 C 
HETATM    4  N1  UNL     1      27.803  10.453  49.564  1.00  0.00    -0.194 NA
HETATM    5  N2  UNL     1      28.932  11.105  49.095  1.00  0.00    -0.295 N 
HETATM    6  C4  UNL     1      30.051  10.268  49.550  1.00  0.00     0.289 C 
HETATM    7  N3  UNL     1      29.903   8.954  48.981  1.00  0.00    -0.285 NA
HETATM    8  C5  UNL     1      29.826   8.870  47.702  1.00  0.00     0.090 C 
HETATM    9  C6  UNL     1      29.672   7.492  47.127  1.00  0.00     0.088 C 
HETATM   10  C7  UNL     1      28.565   6.736  47.741  1.00  0.00    -0.008 A 
HETATM   11  C8  UNL     1      28.675   5.416  48.124  1.00  0.00     0.125 A 
HETATM   12  F1  UNL     1      29.892   4.816  47.905  1.00  0.00    -0.205 F 
HETATM   13  C9  UNL     1      27.660   4.665  48.703  1.00  0.00     0.072 A 
HETATM   14  C10 UNL     1      26.449   5.289  48.911  1.00  0.00     0.034 A 
HETATM   15  C17 UNL     1      26.310   6.608  48.539  1.00  0.00     0.038 A 
HETATM   16  C18 UNL     1      27.347   7.344  47.956  1.00  0.00    -0.037 A 
HETATM   17  H6  UNL     1      28.680  11.973  48.570  1.00  0.00     0.184 HD
ENDROOT
BRANCH  14  18
HETATM   18  N4  UNL     1      25.390   4.547  49.503  1.00  0.00    -0.372 N 
HETATM   19  C11 UNL     1      25.609   3.549  50.540  1.00  0.00     0.159 C 
HETATM   20  C12 UNL     1      24.250   2.968  50.826  1.00  0.00     0.246 C 
HETATM   21  C13 UNL     1      23.688   3.060  49.393  1.00  0.00     0.064 C 
HETATM   22  N5  UNL     1      23.365   3.897  51.448  1.00  0.00     0.124 NA
HETATM   23  C14 UNL     1      23.978   4.560  49.283  1.00  0.00     0.115 C 
HETATM   24  C15 UNL     1      23.304   5.032  50.549  1.00  0.00     0.301 C 
BRANCH  22  25
HETATM   25  C16 UNL     1      23.646   4.229  52.796  1.00  0.00     0.494 C 
HETATM   26  F2  UNL     1      24.253   3.278  53.553  1.00  0.00    -0.223 F 
ENDBRANCH  22  25
ENDBRANCH  14  18
TORSDOF 2
ENDMDL
MODEL 7
REMARK VINA RESULT:      -7.5      5.240      8.379
REMARK  2 active torsions:
REMARK  status: ('A' for Active; 'I' for Inactive)
REMARK    1  A    between atoms: C10_14  and  N4_15 
REMARK    2  A    between atoms: N5_21  and  C16_22 
ROOT
HETATM    1  C1  UNL     1      21.441   0.964  48.967  1.00  0.00     0.020 C 
HETATM    2  C2  UNL     1      22.064   1.187  50.328  1.00  0.00     0.057 C 
HETATM    3  C3  UNL     1      22.076   2.664  50.539  1.00  0.00     0.120 C 
HETATM    4  N1  UNL     1      22.557   3.805  50.841  1.00  0.00    -0.194 NA
HETATM    5  N2  UNL     1      23.876   3.913  51.247  1.00  0.00    -0.295 N 
HETATM    6  C4  UNL     1      23.821   3.771  52.709  1.00  0.00     0.289 C 
HETATM    7  N3  UNL     1      23.256   2.484  53.024  1.00  0.00    -0.285 NA
HETATM    8  C5  UNL     1      23.838   1.449  52.537  1.00  0.00     0.090 C 
HETATM    9  C6  UNL     1      23.235   0.117  52.876  1.00  0.00     0.088 C 
HETATM   10  C7  UNL     1      21.790   0.053  52.591  1.00  0.00    -0.008 A 
HETATM   11  C8  UNL     1      20.874  -0.498  53.462  1.00  0.00     0.125 A 
HETATM   12  F1  UNL     1      21.375  -0.999  54.639  1.00  0.00    -0.205 F 
HETATM   13  C9  UNL     1      19.505  -0.581  53.234  1.00  0.00     0.072 A 
HETATM   14  C10 UNL     1      19.029  -0.072  52.046  1.00  0.00     0.034 A 
HETATM   15  C17 UNL     1      19.922   0.485  51.156  1.00  0.00     0.038 A 
HETATM   16  C18 UNL     1      21.295   0.557  51.407  1.00  0.00    -0.037 A 
HETATM   17  H6  UNL     1      24.515   4.058  50.433  1.00  0.00     0.184 HD
ENDROOT
BRANCH  14  18
HETATM   18  N4  UNL     1      17.632  -0.142  51.783  1.00  0.00    -0.372 N 
HETATM   19  C11 UNL     1      16.685  -0.747  52.708  1.00  0.00     0.159 C 
HETATM   20  C12 UNL     1      15.350  -0.670  52.018  1.00  0.00     0.246 C 
HETATM   21  C13 UNL     1      15.860  -0.862  50.575  1.00  0.00     0.064 C 
HETATM   22  N5  UNL     1      14.868   0.665  51.883  1.00  0.00     0.124 NA
HETATM   23  C14 UNL     1      16.847   0.305  50.676  1.00  0.00     0.115 C 
HETATM   24  C15 UNL     1      15.904   1.379  51.164  1.00  0.00     0.301 C 
BRANCH  22  25
HETATM   25  C16 UNL     1      14.432   1.301  53.071  1.00  0.00     0.494 C 
HETATM   26  F2  UNL     1      13.958   2.569  52.954  1.00  0.00    -0.223 F 
ENDBRANCH  22  25
ENDBRANCH  14  18
TORSDOF 2
ENDMDL
MODEL 8
REMARK VINA RESULT:      -7.3      2.517      7.456
REMARK  2 active torsions:
REMARK  status: ('A' for Active; 'I' for Inactive)
REMARK    1  A    between atoms: C10_14  and  N4_15 
REMARK    2  A    between atoms: N5_21  and  C16_22 
ROOT
HETATM    1  C1  UNL     1      26.637   2.589  49.626  1.00  0.00     0.020 C 
HETATM    2  C2  UNL     1      26.240   1.961  50.945  1.00  0.00     0.057 C 
HETATM    3  C3  UNL     1      27.256   2.415  51.939  1.00  0.00     0.120 C 
HETATM    4  N1  UNL     1      28.110   2.310  52.879  1.00  0.00    -0.194 NA
HETATM    5  N2  UNL     1      28.382   1.070  53.431  1.00  0.00    -0.295 N 
HETATM    6  C4  UNL     1      27.435   0.952  54.549  1.00  0.00     0.289 C 
HETATM    7  N3  UNL     1      26.096   1.037  54.027  1.00  0.00    -0.285 NA
HETATM    8  C5  UNL     1      25.761   0.191  53.121  1.00  0.00     0.090 C 
HETATM    9  C6  UNL     1      24.362   0.294  52.590  1.00  0.00     0.088 C 
HETATM   10  C7  UNL     1      24.016   1.658  52.146  1.00  0.00    -0.008 A 
HETATM   11  C8  UNL     1      22.816   2.267  52.449  1.00  0.00     0.125 A 
HETATM   12  F1  UNL     1      21.931   1.532  53.200  1.00  0.00    -0.205 F 
HETATM   13  C9  UNL     1      22.448   3.547  52.052  1.00  0.00     0.072 A 
HETATM   14  C10 UNL     1      23.354   4.262  51.299  1.00  0.00     0.034 A 
HETATM   15  C17 UNL     1      24.561   3.678  50.982  1.00  0.00     0.038 A 
HETATM   16  C18 UNL     1      24.909   2.388  51.392  1.00  0.00    -0.037 A 
HETATM   17  H6  UNL     1      29.152   0.584  52.917  1.00  0.00     0.184 HD
ENDROOT
BRANCH  14  18
HETATM   18  N4  UNL     1      23.006   5.575  50.878  1.00  0.00    -0.372 N 
HETATM   19  C11 UNL     1      23.814   6.744  51.193  1.00  0.00     0.159 C 
HETATM   20  C12 UNL     1      23.058   7.915  50.624  1.00  0.00     0.246 C 
HETATM   21  C13 UNL     1      21.635   7.375  50.874  1.00  0.00     0.064 C 
HETATM   22  N5  UNL     1      23.023   7.917  49.198  1.00  0.00     0.124 NA
HETATM   23  C14 UNL     1      21.903   6.071  50.116  1.00  0.00     0.115 C 
HETATM   24  C15 UNL     1      22.436   6.645  48.825  1.00  0.00     0.301 C 
BRANCH  22  25
HETATM   25  C16 UNL     1      24.239   8.219  48.538  1.00  0.00     0.494 C 
HETATM   26  F2  UNL     1      25.076   9.094  49.156  1.00  0.00    -0.223 F 
ENDBRANCH  22  25
ENDBRANCH  14  18
TORSDOF 2
ENDMDL
MODEL 9
REMARK VINA RESULT:      -7.3      3.284      4.725
REMARK  2 active torsions:
REMARK  status: ('A' for Active; 'I' for Inactive)
REMARK    1  A    between atoms: C10_14  and  N4_15 
REMARK    2  A    between atoms: N5_21  and  C16_22 
ROOT
HETATM    1  C1  UNL     1      22.404   4.859  47.518  1.00  0.00     0.020 C 
HETATM    2  C2  UNL     1      23.629   5.324  48.276  1.00  0.00     0.057 C 
HETATM    3  C3  UNL     1      23.218   6.559  49.004  1.00  0.00     0.120 C 
HETATM    4  N1  UNL     1      23.296   7.764  49.414  1.00  0.00    -0.194 NA
HETATM    5  N2  UNL     1      24.370   8.553  49.040  1.00  0.00    -0.295 N 
HETATM    6  C4  UNL     1      25.367   8.339  50.098  1.00  0.00     0.289 C 
HETATM    7  N3  UNL     1      25.704   6.940  50.135  1.00  0.00    -0.285 NA
HETATM    8  C5  UNL     1      26.142   6.410  49.051  1.00  0.00     0.090 C 
HETATM    9  C6  UNL     1      26.489   4.951  49.109  1.00  0.00     0.088 C 
HETATM   10  C7  UNL     1      25.398   4.124  49.659  1.00  0.00    -0.008 A 
HETATM   11  C8  UNL     1      25.605   3.126  50.588  1.00  0.00     0.125 A 
HETATM   12  F1  UNL     1      26.902   2.926  50.992  1.00  0.00    -0.205 F 
HETATM   13  C9  UNL     1      24.609   2.323  51.131  1.00  0.00     0.072 A 
HETATM   14  C10 UNL     1      23.316   2.543  50.709  1.00  0.00     0.034 A 
HETATM   15  C17 UNL     1      23.080   3.535  49.781  1.00  0.00     0.038 A 
HETATM   16  C18 UNL     1      24.099   4.330  49.247  1.00  0.00    -0.037 A 
HETATM   17  H6  UNL     1      24.178   9.058  48.145  1.00  0.00     0.184 HD
ENDROOT
BRANCH  14  18
HETATM   18  N4  UNL     1      22.275   1.738  51.247  1.00  0.00    -0.372 N 
HETATM   19  C11 UNL     1      22.527   0.485  51.943  1.00  0.00     0.159 C 
HETATM   20  C12 UNL     1      21.166  -0.065  52.279  1.00  0.00     0.246 C 
HETATM   21  C13 UNL     1      20.429   0.448  51.025  1.00  0.00     0.064 C 
HETATM   22  N5  UNL     1      20.473   0.716  53.250  1.00  0.00     0.124 NA
HETATM   23  C14 UNL     1      20.855   1.900  51.261  1.00  0.00     0.115 C 
HETATM   24  C15 UNL     1      20.408   2.054  52.696  1.00  0.00     0.301 C 
BRANCH  22  25
HETATM   25  C16 UNL     1      20.964   0.653  54.577  1.00  0.00     0.494 C 
HETATM   26  F2  UNL     1      21.711  -0.433  54.907  1.00  0.00    -0.223 F 
ENDBRANCH  22  25
ENDBRANCH  14  18
TORSDOF 2
ENDMDL
