MODEL 1
REMARK VINA RESULT:      -8.6      0.000      0.000
REMARK  3 active torsions:
REMARK  status: ('A' for Active; 'I' for Inactive)
REMARK    1  A    between atoms: O1_2  and  C2_3 
REMARK    2  A    between atoms: N1_7  and  C6_8 
REMARK    3  A    between atoms: C9_11  and  C10_12 
ROOT
HETATM    1  C6  UNL     1      25.259   0.744  52.880  1.00  0.00     0.034 A 
HETATM    2  C7  UNL     1      24.592   1.510  51.963  1.00  0.00     0.030 A 
HETATM    3  C8  UNL     1      23.251   1.397  51.674  1.00  0.00     0.016 A 
HETATM    4  C9  UNL     1      22.515   0.461  52.335  1.00  0.00    -0.000 A 
HETATM    5  C17 UNL     1      23.103  -0.337  53.257  1.00  0.00     0.016 A 
HETATM    6  C18 UNL     1      24.469  -0.187  53.520  1.00  0.00     0.030 A 
ENDROOT
BRANCH   4   7
HETATM    7  C10 UNL     1      21.096   0.192  52.169  1.00  0.00     0.109 A 
HETATM    8  N2  UNL     1      20.183   0.302  51.442  1.00  0.00    -0.240 NA
HETATM    9  C11 UNL     1      18.942  -0.094  51.648  1.00  0.00     0.075 A 
HETATM   10  C12 UNL     1      17.890   0.067  50.734  1.00  0.00     0.033 A 
HETATM   11  C16 UNL     1      18.653  -0.696  52.814  1.00  0.00     0.035 A 
HETATM   12  C13 UNL     1      16.645  -0.401  51.096  1.00  0.00     0.002 A 
HETATM   13  C14 UNL     1      16.318  -1.021  52.283  1.00  0.00     0.002 A 
HETATM   14  C15 UNL     1      17.400  -1.159  53.162  1.00  0.00     0.021 A 
HETATM   15  S1  UNL     1      20.204  -0.677  53.601  1.00  0.00    -0.068 SA
ENDBRANCH   4   7
BRANCH   1  16
HETATM   16  N1  UNL     1      26.641   0.856  53.182  1.00  0.00    -0.351 N 
HETATM   17  C5  UNL     1      27.276   2.114  53.346  1.00  0.00     0.091 A 
HETATM   18  C4  UNL     1      28.557   2.283  53.627  1.00  0.00     0.020 A 
HETATM   19  C3  UNL     1      29.415   1.115  53.790  1.00  0.00     0.035 A 
HETATM   20  C2  UNL     1      28.845  -0.054  53.643  1.00  0.00     0.064 A 
HETATM   21  C19 UNL     1      27.424  -0.341  53.328  1.00  0.00     0.193 A 
BRANCH  20  22
HETATM   22  O1  UNL     1      29.577  -1.233  53.778  1.00  0.00    -0.359 OA
HETATM   23  C1  UNL     1      29.068  -2.443  53.206  1.00  0.00     0.209 C 
ENDBRANCH  20  22
ENDBRANCH   1  16
TORSDOF 3
ENDMDL
MODEL 2
REMARK VINA RESULT:      -8.3      4.884      8.796
REMARK  3 active torsions:
REMARK  status: ('A' for Active; 'I' for Inactive)
REMARK    1  A    between atoms: O1_2  and  C2_3 
REMARK    2  A    between atoms: N1_7  and  C6_8 
REMARK    3  A    between atoms: C9_11  and  C10_12 
ROOT
HETATM    1  C6  UNL     1      23.613   1.332  52.030  1.00  0.00     0.034 A 
HETATM    2  C7  UNL     1      23.128   1.946  50.907  1.00  0.00     0.030 A 
HETATM    3  C8  UNL     1      23.845   2.815  50.117  1.00  0.00     0.016 A 
HETATM    4  C9  UNL     1      25.132   3.102  50.459  1.00  0.00    -0.000 A 
HETATM    5  C17 UNL     1      25.684   2.536  51.558  1.00  0.00     0.016 A 
HETATM    6  C18 UNL     1      24.918   1.656  52.332  1.00  0.00     0.030 A 
ENDROOT
BRANCH   4   7
HETATM    7  C10 UNL     1      26.042   3.991  49.756  1.00  0.00     0.109 A 
HETATM    8  N2  UNL     1      27.139   4.116  49.362  1.00  0.00    -0.240 NA
HETATM    9  C11 UNL     1      27.645   5.146  48.713  1.00  0.00     0.075 A 
HETATM   10  C12 UNL     1      28.972   5.235  48.267  1.00  0.00     0.033 A 
HETATM   11  C16 UNL     1      26.842   6.192  48.457  1.00  0.00     0.035 A 
HETATM   12  C13 UNL     1      29.352   6.382  47.601  1.00  0.00     0.002 A 
HETATM   13  C14 UNL     1      28.553   7.469  47.325  1.00  0.00     0.002 A 
HETATM   14  C15 UNL     1      27.238   7.334  47.789  1.00  0.00     0.021 A 
HETATM   15  S1  UNL     1      25.348   5.657  49.170  1.00  0.00    -0.068 SA
ENDBRANCH   4   7
BRANCH   1  16
HETATM   16  N1  UNL     1      22.879   0.435  52.848  1.00  0.00    -0.351 N 
HETATM   17  C5  UNL     1      23.502  -0.350  53.853  1.00  0.00     0.091 A 
HETATM   18  C4  UNL     1      22.874  -1.202  54.645  1.00  0.00     0.020 A 
HETATM   19  C3  UNL     1      21.433  -1.376  54.509  1.00  0.00     0.035 A 
HETATM   20  C2  UNL     1      20.841  -0.661  53.587  1.00  0.00     0.064 A 
HETATM   21  C19 UNL     1      21.459   0.315  52.655  1.00  0.00     0.193 A 
BRANCH  20  22
HETATM   22  O1  UNL     1      19.466  -0.753  53.375  1.00  0.00    -0.359 OA
HETATM   23  C1  UNL     1      18.889  -0.117  52.230  1.00  0.00     0.209 C 
ENDBRANCH  20  22
ENDBRANCH   1  16
TORSDOF 3
ENDMDL
MODEL 3
REMARK VINA RESULT:      -8.0      3.481      9.174
REMARK  3 active torsions:
REMARK  status: ('A' for Active; 'I' for Inactive)
REMARK    1  A    between atoms: O1_2  and  C2_3 
REMARK    2  A    between atoms: N1_7  and  C6_8 
REMARK    3  A    between atoms: C9_11  and  C10_12 
ROOT
HETATM    1  C6  UNL     1      21.382   1.067  52.057  1.00  0.00     0.034 A 
HETATM    2  C7  UNL     1      22.364   1.891  51.578  1.00  0.00     0.030 A 
HETATM    3  C8  UNL     1      23.713   1.682  51.744  1.00  0.00     0.016 A 
HETATM    4  C9  UNL     1      24.126   0.582  52.435  1.00  0.00    -0.000 A 
HETATM    5  C17 UNL     1      23.214  -0.281  52.942  1.00  0.00     0.016 A 
HETATM    6  C18 UNL     1      21.852  -0.029  52.748  1.00  0.00     0.030 A 
ENDROOT
BRANCH   4   7
HETATM    7  C10 UNL     1      25.498   0.193  52.715  1.00  0.00     0.109 A 
HETATM    8  N2  UNL     1      26.255  -0.701  52.715  1.00  0.00    -0.240 NA
HETATM    9  C11 UNL     1      27.527  -0.676  53.061  1.00  0.00     0.075 A 
HETATM   10  C12 UNL     1      28.384  -1.786  53.040  1.00  0.00     0.033 A 
HETATM   11  C16 UNL     1      28.051   0.493  53.466  1.00  0.00     0.035 A 
HETATM   12  C13 UNL     1      29.692  -1.598  53.432  1.00  0.00     0.002 A 
HETATM   13  C14 UNL     1      30.257  -0.414  53.852  1.00  0.00     0.002 A 
HETATM   14  C15 UNL     1      29.365   0.665  53.856  1.00  0.00     0.021 A 
HETATM   15  S1  UNL     1      26.674   1.548  53.336  1.00  0.00    -0.068 SA
ENDBRANCH   4   7
BRANCH   1  16
HETATM   16  N1  UNL     1      19.988   1.277  51.888  1.00  0.00    -0.351 N 
HETATM   17  C5  UNL     1      19.089   0.206  51.653  1.00  0.00     0.091 A 
HETATM   18  C4  UNL     1      17.783   0.338  51.487  1.00  0.00     0.020 A 
HETATM   19  C3  UNL     1      17.185   1.666  51.545  1.00  0.00     0.035 A 
HETATM   20  C2  UNL     1      18.000   2.666  51.762  1.00  0.00     0.064 A 
HETATM   21  C19 UNL     1      19.471   2.617  51.958  1.00  0.00     0.193 A 
BRANCH  20  22
HETATM   22  O1  UNL     1      17.529   3.977  51.836  1.00  0.00    -0.359 OA
HETATM   23  C1  UNL     1      16.131   4.229  51.659  1.00  0.00     0.209 C 
ENDBRANCH  20  22
ENDBRANCH   1  16
TORSDOF 3
ENDMDL
MODEL 4
REMARK VINA RESULT:      -7.9      3.262      9.162
REMARK  3 active torsions:
REMARK  status: ('A' for Active; 'I' for Inactive)
REMARK    1  A    between atoms: O1_2  and  C2_3 
REMARK    2  A    between atoms: N1_7  and  C6_8 
REMARK    3  A    between atoms: C9_11  and  C10_12 
ROOT
HETATM    1  C6  UNL     1      20.494   0.054  52.321  1.00  0.00     0.034 A 
HETATM    2  C7  UNL     1      21.186   0.944  51.546  1.00  0.00     0.030 A 
HETATM    3  C8  UNL     1      22.511   1.270  51.719  1.00  0.00     0.016 A 
HETATM    4  C9  UNL     1      23.204   0.678  52.731  1.00  0.00    -0.000 A 
HETATM    5  C17 UNL     1      22.589  -0.213  53.543  1.00  0.00     0.016 A 
HETATM    6  C18 UNL     1      21.240  -0.516  53.330  1.00  0.00     0.030 A 
ENDROOT
BRANCH   4   7
HETATM    7  C10 UNL     1      24.601   0.893  53.072  1.00  0.00     0.109 A 
HETATM    8  N2  UNL     1      25.515   1.614  52.942  1.00  0.00    -0.240 NA
HETATM    9  C11 UNL     1      26.728   1.471  53.439  1.00  0.00     0.075 A 
HETATM   10  C12 UNL     1      27.783   2.375  53.245  1.00  0.00     0.033 A 
HETATM   11  C16 UNL     1      26.983   0.384  54.185  1.00  0.00     0.035 A 
HETATM   12  C13 UNL     1      28.996   2.084  53.832  1.00  0.00     0.002 A 
HETATM   13  C14 UNL     1      29.288   0.978  54.601  1.00  0.00     0.002 A 
HETATM   14  C15 UNL     1      28.205   0.106  54.766  1.00  0.00     0.021 A 
HETATM   15  S1  UNL     1      25.441  -0.422  54.153  1.00  0.00    -0.068 SA
ENDBRANCH   4   7
BRANCH   1  16
HETATM   16  N1  UNL     1      19.127  -0.287  52.146  1.00  0.00    -0.351 N 
HETATM   17  C5  UNL     1      18.402  -1.015  53.125  1.00  0.00     0.091 A 
HETATM   18  C4  UNL     1      17.130  -1.362  53.020  1.00  0.00     0.020 A 
HETATM   19  C3  UNL     1      16.381  -0.985  51.827  1.00  0.00     0.035 A 
HETATM   20  C2  UNL     1      17.034  -0.313  50.914  1.00  0.00     0.064 A 
HETATM   21  C19 UNL     1      18.454   0.118  50.942  1.00  0.00     0.193 A 
BRANCH  20  22
HETATM   22  O1  UNL     1      16.410   0.095  49.736  1.00  0.00    -0.359 OA
HETATM   23  C1  UNL     1      15.883   1.423  49.646  1.00  0.00     0.209 C 
ENDBRANCH  20  22
ENDBRANCH   1  16
TORSDOF 3
ENDMDL
MODEL 5
REMARK VINA RESULT:      -7.8      3.173      8.964
REMARK  3 active torsions:
REMARK  status: ('A' for Active; 'I' for Inactive)
REMARK    1  A    between atoms: O1_2  and  C2_3 
REMARK    2  A    between atoms: N1_7  and  C6_8 
REMARK    3  A    between atoms: C9_11  and  C10_12 
ROOT
HETATM    1  C6  UNL     1      21.092   0.388  52.267  1.00  0.00     0.034 A 
HETATM    2  C7  UNL     1      21.942   1.257  51.640  1.00  0.00     0.030 A 
HETATM    3  C8  UNL     1      23.312   1.244  51.768  1.00  0.00     0.016 A 
HETATM    4  C9  UNL     1      23.885   0.307  52.574  1.00  0.00    -0.000 A 
HETATM    5  C17 UNL     1      23.110  -0.588  53.231  1.00  0.00     0.016 A 
HETATM    6  C18 UNL     1      21.721  -0.538  53.070  1.00  0.00     0.030 A 
ENDROOT
BRANCH   4   7
HETATM    7  C10 UNL     1      25.304   0.135  52.836  1.00  0.00     0.109 A 
HETATM    8  N2  UNL     1      26.187  -0.636  52.841  1.00  0.00    -0.240 NA
HETATM    9  C11 UNL     1      27.446  -0.412  53.162  1.00  0.00     0.075 A 
HETATM   10  C12 UNL     1      28.459  -1.382  53.147  1.00  0.00     0.033 A 
HETATM   11  C16 UNL     1      27.795   0.831  53.534  1.00  0.00     0.035 A 
HETATM   12  C13 UNL     1      29.731  -0.991  53.511  1.00  0.00     0.002 A 
HETATM   13  C14 UNL     1      30.118   0.274  53.897  1.00  0.00     0.002 A 
HETATM   14  C15 UNL     1      29.073   1.207  53.897  1.00  0.00     0.021 A 
HETATM   15  S1  UNL     1      26.272   1.664  53.409  1.00  0.00    -0.068 SA
ENDBRANCH   4   7
BRANCH   1  16
HETATM   16  N1  UNL     1      19.678   0.397  52.138  1.00  0.00    -0.351 N 
HETATM   17  C5  UNL     1      18.999   1.373  51.363  1.00  0.00     0.091 A 
HETATM   18  C4  UNL     1      17.688   1.435  51.205  1.00  0.00     0.020 A 
HETATM   19  C3  UNL     1      16.841   0.443  51.858  1.00  0.00     0.035 A 
HETATM   20  C2  UNL     1      17.450  -0.465  52.577  1.00  0.00     0.064 A 
HETATM   21  C19 UNL     1      18.908  -0.613  52.812  1.00  0.00     0.193 A 
BRANCH  20  22
HETATM   22  O1  UNL     1      16.732  -1.458  53.242  1.00  0.00    -0.359 OA
HETATM   23  C1  UNL     1      17.267  -2.784  53.309  1.00  0.00     0.209 C 
ENDBRANCH  20  22
ENDBRANCH   1  16
TORSDOF 3
ENDMDL
MODEL 6
REMARK VINA RESULT:      -7.7      5.093      6.392
REMARK  3 active torsions:
REMARK  status: ('A' for Active; 'I' for Inactive)
REMARK    1  A    between atoms: O1_2  and  C2_3 
REMARK    2  A    between atoms: N1_7  and  C6_8 
REMARK    3  A    between atoms: C9_11  and  C10_12 
ROOT
HETATM    1  C6  UNL     1      26.294   4.787  49.280  1.00  0.00     0.034 A 
HETATM    2  C7  UNL     1      26.788   3.538  49.542  1.00  0.00     0.030 A 
HETATM    3  C8  UNL     1      26.121   2.564  50.249  1.00  0.00     0.016 A 
HETATM    4  C9  UNL     1      24.879   2.841  50.734  1.00  0.00    -0.000 A 
HETATM    5  C17 UNL     1      24.322   4.056  50.518  1.00  0.00     0.016 A 
HETATM    6  C18 UNL     1      25.036   5.016  49.793  1.00  0.00     0.030 A 
ENDROOT
BRANCH   4   7
HETATM    7  C10 UNL     1      24.024   1.949  51.500  1.00  0.00     0.109 A 
HETATM    8  N2  UNL     1      22.926   1.564  51.636  1.00  0.00    -0.240 NA
HETATM    9  C11 UNL     1      22.489   0.675  52.508  1.00  0.00     0.075 A 
HETATM   10  C12 UNL     1      21.156   0.256  52.621  1.00  0.00     0.033 A 
HETATM   11  C16 UNL     1      23.377   0.128  53.354  1.00  0.00     0.035 A 
HETATM   12  C13 UNL     1      20.856  -0.683  53.585  1.00  0.00     0.002 A 
HETATM   13  C14 UNL     1      21.743  -1.262  54.467  1.00  0.00     0.002 A 
HETATM   14  C15 UNL     1      23.060  -0.811  54.316  1.00  0.00     0.021 A 
HETATM   15  S1  UNL     1      24.847   0.920  52.866  1.00  0.00    -0.068 SA
ENDBRANCH   4   7
BRANCH   1  16
HETATM   16  N1  UNL     1      26.977   5.796  48.552  1.00  0.00    -0.351 N 
HETATM   17  C5  UNL     1      26.307   6.935  48.034  1.00  0.00     0.091 A 
HETATM   18  C4  UNL     1      26.887   7.906  47.349  1.00  0.00     0.020 A 
HETATM   19  C3  UNL     1      28.320   7.839  47.085  1.00  0.00     0.035 A 
HETATM   20  C2  UNL     1      28.953   6.796  47.555  1.00  0.00     0.064 A 
HETATM   21  C19 UNL     1      28.391   5.661  48.330  1.00  0.00     0.193 A 
BRANCH  20  22
HETATM   22  O1  UNL     1      30.325   6.637  47.358  1.00  0.00    -0.359 OA
HETATM   23  C1  UNL     1      31.084   5.871  48.300  1.00  0.00     0.209 C 
ENDBRANCH  20  22
ENDBRANCH   1  16
TORSDOF 3
ENDMDL
MODEL 7
REMARK VINA RESULT:      -7.6      5.249      6.548
REMARK  3 active torsions:
REMARK  status: ('A' for Active; 'I' for Inactive)
REMARK    1  A    between atoms: O1_2  and  C2_3 
REMARK    2  A    between atoms: N1_7  and  C6_8 
REMARK    3  A    between atoms: C9_11  and  C10_12 
ROOT
HETATM    1  C6  UNL     1      25.969   4.614  49.442  1.00  0.00     0.034 A 
HETATM    2  C7  UNL     1      24.607   4.737  49.411  1.00  0.00     0.030 A 
HETATM    3  C8  UNL     1      23.730   3.911  50.076  1.00  0.00     0.016 A 
HETATM    4  C9  UNL     1      24.232   2.889  50.825  1.00  0.00    -0.000 A 
HETATM    5  C17 UNL     1      25.571   2.702  50.905  1.00  0.00     0.016 A 
HETATM    6  C18 UNL     1      26.425   3.567  50.212  1.00  0.00     0.030 A 
ENDROOT
BRANCH   4   7
HETATM    7  C10 UNL     1      23.472   1.917  51.593  1.00  0.00     0.109 A 
HETATM    8  N2  UNL     1      22.414   1.437  51.744  1.00  0.00    -0.240 NA
HETATM    9  C11 UNL     1      22.073   0.504  52.611  1.00  0.00     0.075 A 
HETATM   10  C12 UNL     1      20.783  -0.032  52.742  1.00  0.00     0.033 A 
HETATM   11  C16 UNL     1      23.020   0.026  53.435  1.00  0.00     0.035 A 
HETATM   12  C13 UNL     1      20.583  -1.004  53.699  1.00  0.00     0.002 A 
HETATM   13  C14 UNL     1      21.533  -1.513  54.557  1.00  0.00     0.002 A 
HETATM   14  C15 UNL     1      22.804  -0.948  54.390  1.00  0.00     0.021 A 
HETATM   15  S1  UNL     1      24.407   0.948  52.932  1.00  0.00    -0.068 SA
ENDBRANCH   4   7
BRANCH   1  16
HETATM   16  N1  UNL     1      26.878   5.464  48.758  1.00  0.00    -0.351 N 
HETATM   17  C5  UNL     1      28.235   5.102  48.550  1.00  0.00     0.091 A 
HETATM   18  C4  UNL     1      29.128   5.849  47.922  1.00  0.00     0.020 A 
HETATM   19  C3  UNL     1      28.728   7.145  47.388  1.00  0.00     0.035 A 
HETATM   20  C2  UNL     1      27.481   7.494  47.571  1.00  0.00     0.064 A 
HETATM   21  C19 UNL     1      26.412   6.729  48.259  1.00  0.00     0.193 A 
BRANCH  20  22
HETATM   22  O1  UNL     1      26.998   8.715  47.099  1.00  0.00    -0.359 OA
HETATM   23  C1  UNL     1      27.547   9.932  47.615  1.00  0.00     0.209 C 
ENDBRANCH  20  22
ENDBRANCH   1  16
TORSDOF 3
ENDMDL
MODEL 8
REMARK VINA RESULT:      -7.4      6.515      8.045
REMARK  3 active torsions:
REMARK  status: ('A' for Active; 'I' for Inactive)
REMARK    1  A    between atoms: O1_2  and  C2_3 
REMARK    2  A    between atoms: N1_7  and  C6_8 
REMARK    3  A    between atoms: C9_11  and  C10_12 
ROOT
HETATM    1  C6  UNL     1      27.203   6.008  48.547  1.00  0.00     0.034 A 
HETATM    2  C7  UNL     1      26.021   6.359  49.141  1.00  0.00     0.030 A 
HETATM    3  C8  UNL     1      25.204   5.493  49.832  1.00  0.00     0.016 A 
HETATM    4  C9  UNL     1      25.578   4.188  49.943  1.00  0.00    -0.000 A 
HETATM    5  C17 UNL     1      26.734   3.763  49.381  1.00  0.00     0.016 A 
HETATM    6  C18 UNL     1      27.535   4.678  48.688  1.00  0.00     0.030 A 
ENDROOT
BRANCH   4   7
HETATM    7  C10 UNL     1      24.853   3.130  50.628  1.00  0.00     0.109 A 
HETATM    8  N2  UNL     1      23.817   2.593  50.726  1.00  0.00    -0.240 NA
HETATM    9  C11 UNL     1      23.507   1.585  51.519  1.00  0.00     0.075 A 
HETATM   10  C12 UNL     1      22.241   0.984  51.589  1.00  0.00     0.033 A 
HETATM   11  C16 UNL     1      24.464   1.093  52.323  1.00  0.00     0.035 A 
HETATM   12  C13 UNL     1      22.074  -0.062  52.471  1.00  0.00     0.002 A 
HETATM   13  C14 UNL     1      23.035  -0.588  53.307  1.00  0.00     0.002 A 
HETATM   14  C15 UNL     1      24.280   0.044  53.201  1.00  0.00     0.021 A 
HETATM   15  S1  UNL     1      25.813   2.111  51.910  1.00  0.00    -0.068 SA
ENDBRANCH   4   7
BRANCH   1  16
HETATM   16  N1  UNL     1      28.050   6.897  47.833  1.00  0.00    -0.351 N 
HETATM   17  C5  UNL     1      29.433   6.637  47.653  1.00  0.00     0.091 A 
HETATM   18  C4  UNL     1      30.271   7.424  47.000  1.00  0.00     0.020 A 
HETATM   19  C3  UNL     1      29.776   8.660  46.405  1.00  0.00     0.035 A 
HETATM   20  C2  UNL     1      28.503   8.915  46.561  1.00  0.00     0.064 A 
HETATM   21  C19 UNL     1      27.490   8.097  47.274  1.00  0.00     0.193 A 
BRANCH  20  22
HETATM   22  O1  UNL     1      27.930  10.071  46.031  1.00  0.00    -0.359 OA
HETATM   23  C1  UNL     1      26.519  10.275  46.159  1.00  0.00     0.209 C 
ENDBRANCH  20  22
ENDBRANCH   1  16
TORSDOF 3
ENDMDL
MODEL 9
REMARK VINA RESULT:      -7.2      2.342      3.083
REMARK  3 active torsions:
REMARK  status: ('A' for Active; 'I' for Inactive)
REMARK    1  A    between atoms: O1_2  and  C2_3 
REMARK    2  A    between atoms: N1_7  and  C6_8 
REMARK    3  A    between atoms: C9_11  and  C10_12 
ROOT
HETATM    1  C6  UNL     1      23.796   1.056  52.822  1.00  0.00     0.034 A 
HETATM    2  C7  UNL     1      23.492   2.383  52.686  1.00  0.00     0.030 A 
HETATM    3  C8  UNL     1      22.235   2.876  52.423  1.00  0.00     0.016 A 
HETATM    4  C9  UNL     1      21.203   1.998  52.282  1.00  0.00    -0.000 A 
HETATM    5  C17 UNL     1      21.424   0.668  52.402  1.00  0.00     0.016 A 
HETATM    6  C18 UNL     1      22.719   0.211  52.670  1.00  0.00     0.030 A 
ENDROOT
BRANCH   4   7
HETATM    7  C10 UNL     1      19.814   2.324  52.003  1.00  0.00     0.109 A 
HETATM    8  N2  UNL     1      19.037   3.197  51.922  1.00  0.00    -0.240 NA
HETATM    9  C11 UNL     1      17.756   3.105  51.622  1.00  0.00     0.075 A 
HETATM   10  C12 UNL     1      16.874   4.194  51.541  1.00  0.00     0.033 A 
HETATM   11  C16 UNL     1      17.247   1.887  51.375  1.00  0.00     0.035 A 
HETATM   12  C13 UNL     1      15.560   3.935  51.215  1.00  0.00     0.002 A 
HETATM   13  C14 UNL     1      15.010   2.698  50.958  1.00  0.00     0.002 A 
HETATM   14  C15 UNL     1      15.927   1.644  51.050  1.00  0.00     0.021 A 
HETATM   15  S1  UNL     1      18.652   0.882  51.585  1.00  0.00    -0.068 SA
ENDBRANCH   4   7
BRANCH   1  16
HETATM   16  N1  UNL     1      25.091   0.542  53.094  1.00  0.00    -0.351 N 
HETATM   17  C5  UNL     1      25.463  -0.783  52.747  1.00  0.00     0.091 A 
HETATM   18  C4  UNL     1      26.651  -1.319  52.973  1.00  0.00     0.020 A 
HETATM   19  C3  UNL     1      27.683  -0.521  53.624  1.00  0.00     0.035 A 
HETATM   20  C2  UNL     1      27.358   0.704  53.950  1.00  0.00     0.064 A 
HETATM   21  C19 UNL     1      26.058   1.388  53.739  1.00  0.00     0.193 A 
BRANCH  20  22
HETATM   22  O1  UNL     1      28.273   1.549  54.577  1.00  0.00    -0.359 OA
HETATM   23  C1  UNL     1      29.039   2.463  53.784  1.00  0.00     0.209 C 
ENDBRANCH  20  22
ENDBRANCH   1  16
TORSDOF 3
ENDMDL
