MODEL 1
REMARK VINA RESULT:      -7.7      0.000      0.000
REMARK  6 active torsions:
REMARK  status: ('A' for Active; 'I' for Inactive)
REMARK    1  A    between atoms: C2_2  and  N1_3 
REMARK    2  A    between atoms: C6_8  and  C7_9 
REMARK    3  A    between atoms: C7_9  and  C8_10 
REMARK    4  A    between atoms: C8_10  and  N3_11 
REMARK    5  A    between atoms: N3_11  and  N4_12 
REMARK    6  A    between atoms: N6_15  and  C10_16 
ROOT
HETATM    1  N1  UNL     1      22.392   1.075  53.145  1.00  0.00    -0.362 N 
HETATM    2  C3  UNL     1      23.031  -0.135  53.642  1.00  0.00     0.202 C 
HETATM    3  N2  UNL     1      24.212  -0.255  53.134  1.00  0.00    -0.257 NA
HETATM    4  C4  UNL     1      24.421   0.856  52.280  1.00  0.00     0.239 C 
HETATM    5  C5  UNL     1      23.527   1.888  52.948  1.00  0.00     0.176 C 
HETATM    6  C6  UNL     1      23.493   3.029  52.043  1.00  0.00     0.036 C 
HETATM    7  N5  UNL     1      24.525   3.276  51.323  1.00  0.00    -0.276 NA
HETATM    8  C9  UNL     1      25.749   2.537  51.306  1.00  0.00     0.275 C 
HETATM    9  N6  UNL     1      25.754   1.374  52.175  1.00  0.00    -0.337 N 
ENDROOT
BRANCH   6  10
HETATM   10  C7  UNL     1      22.387   3.988  51.837  1.00  0.00     0.072 C 
BRANCH  10  11
HETATM   11  C8  UNL     1      22.873   5.391  51.446  1.00  0.00     0.110 C 
BRANCH  11  12
HETATM   12  N3  UNL     1      23.790   5.856  52.470  1.00  0.00    -0.263 NA
HETATM   13  H13 UNL     1      23.252   6.089  53.325  1.00  0.00     0.140 HD
BRANCH  12  14
HETATM   14  N4  UNL     1      24.517   6.957  52.036  1.00  0.00    -0.271 NA
HETATM   15  H14 UNL     1      24.054   7.295  51.159  1.00  0.00     0.137 HD
HETATM   16  H15 UNL     1      25.499   6.668  51.852  1.00  0.00     0.137 HD
ENDBRANCH  12  14
ENDBRANCH  11  12
ENDBRANCH  10  11
ENDBRANCH   6  10
BRANCH   1  17
HETATM   17  C2  UNL     1      20.947   1.105  53.010  1.00  0.00     0.120 C 
HETATM   18  C1  UNL     1      20.525   0.538  51.654  1.00  0.00     0.026 C 
ENDBRANCH   1  17
BRANCH   9  19
HETATM   19  C10 UNL     1      26.985   0.937  52.740  1.00  0.00     0.035 A 
HETATM   20  C11 UNL     1      27.741   1.923  53.355  1.00  0.00     0.029 A 
HETATM   21  C12 UNL     1      28.955   1.569  53.941  1.00  0.00     0.004 A 
HETATM   22  C13 UNL     1      29.461   0.264  53.946  1.00  0.00     0.024 A 
HETATM   23  C14 UNL     1      28.647  -0.643  53.314  1.00  0.00     0.036 A 
HETATM   24 CL1  UNL     1      29.199  -2.316  53.269  1.00  0.00    -0.084 Cl
HETATM   25  C15 UNL     1      27.446  -0.359  52.721  1.00  0.00     0.053 A 
ENDBRANCH   9  19
TORSDOF 6
ENDMDL
MODEL 2
REMARK VINA RESULT:      -7.2      1.722      2.327
REMARK  6 active torsions:
REMARK  status: ('A' for Active; 'I' for Inactive)
REMARK    1  A    between atoms: C2_2  and  N1_3 
REMARK    2  A    between atoms: C6_8  and  C7_9 
REMARK    3  A    between atoms: C7_9  and  C8_10 
REMARK    4  A    between atoms: C8_10  and  N3_11 
REMARK    5  A    between atoms: N3_11  and  N4_12 
REMARK    6  A    between atoms: N6_15  and  C10_16 
ROOT
HETATM    1  N1  UNL     1      22.716   3.746  51.883  1.00  0.00    -0.362 N 
HETATM    2  C3  UNL     1      22.678   2.460  52.566  1.00  0.00     0.202 C 
HETATM    3  N2  UNL     1      23.681   1.734  52.201  1.00  0.00    -0.257 NA
HETATM    4  C4  UNL     1      24.432   2.487  51.265  1.00  0.00     0.239 C 
HETATM    5  C5  UNL     1      24.109   3.899  51.726  1.00  0.00     0.176 C 
HETATM    6  C6  UNL     1      24.663   4.785  50.711  1.00  0.00     0.036 C 
HETATM    7  N5  UNL     1      25.718   4.419  50.083  1.00  0.00    -0.276 NA
HETATM    8  C9  UNL     1      26.442   3.200  50.271  1.00  0.00     0.275 C 
HETATM    9  N6  UNL     1      25.854   2.303  51.249  1.00  0.00    -0.337 N 
ENDROOT
BRANCH   6  10
HETATM   10  C7  UNL     1      24.157   6.109  50.292  1.00  0.00     0.072 C 
BRANCH  10  11
HETATM   11  C8  UNL     1      25.264   7.039  49.777  1.00  0.00     0.110 C 
BRANCH  11  12
HETATM   12  N3  UNL     1      26.092   7.430  50.902  1.00  0.00    -0.263 NA
HETATM   13  H13 UNL     1      25.480   7.706  51.692  1.00  0.00     0.140 HD
BRANCH  12  14
HETATM   14  N4  UNL     1      26.949   8.469  50.564  1.00  0.00    -0.271 NA
HETATM   15  H14 UNL     1      26.782   9.234  51.261  1.00  0.00     0.137 HD
HETATM   16  H15 UNL     1      26.732   8.791  49.599  1.00  0.00     0.137 HD
ENDBRANCH  12  14
ENDBRANCH  11  12
ENDBRANCH  10  11
ENDBRANCH   6  10
BRANCH   1  17
HETATM   17  C2  UNL     1      21.467   4.427  51.594  1.00  0.00     0.120 C 
HETATM   18  C1  UNL     1      20.309   3.428  51.562  1.00  0.00     0.026 C 
ENDBRANCH   1  17
BRANCH   9  19
HETATM   19  C10 UNL     1      26.702   1.427  51.983  1.00  0.00     0.035 A 
HETATM   20  C11 UNL     1      27.658   2.045  52.774  1.00  0.00     0.029 A 
HETATM   21  C12 UNL     1      28.518   1.252  53.530  1.00  0.00     0.004 A 
HETATM   22  C13 UNL     1      28.474  -0.147  53.539  1.00  0.00     0.024 A 
HETATM   23  C14 UNL     1      27.499  -0.671  52.728  1.00  0.00     0.036 A 
HETATM   24 CL1  UNL     1      27.363  -2.427  52.673  1.00  0.00    -0.084 Cl
HETATM   25  C15 UNL     1      26.624   0.053  51.962  1.00  0.00     0.053 A 
ENDBRANCH   9  19
TORSDOF 6
ENDMDL
MODEL 3
REMARK VINA RESULT:      -7.2      3.174      6.227
REMARK  6 active torsions:
REMARK  status: ('A' for Active; 'I' for Inactive)
REMARK    1  A    between atoms: C2_2  and  N1_3 
REMARK    2  A    between atoms: C6_8  and  C7_9 
REMARK    3  A    between atoms: C7_9  and  C8_10 
REMARK    4  A    between atoms: C8_10  and  N3_11 
REMARK    5  A    between atoms: N3_11  and  N4_12 
REMARK    6  A    between atoms: N6_15  and  C10_16 
ROOT
HETATM    1  N1  UNL     1      27.088   1.026  53.751  1.00  0.00    -0.362 N 
HETATM    2  C3  UNL     1      28.026   1.982  53.180  1.00  0.00     0.202 C 
HETATM    3  N2  UNL     1      27.570   2.439  52.062  1.00  0.00    -0.257 NA
HETATM    4  C4  UNL     1      26.317   1.820  51.830  1.00  0.00     0.239 C 
HETATM    5  C5  UNL     1      25.874   1.551  53.260  1.00  0.00     0.176 C 
HETATM    6  C6  UNL     1      24.679   0.725  53.157  1.00  0.00     0.036 C 
HETATM    7  N5  UNL     1      23.908   0.879  52.145  1.00  0.00    -0.276 NA
HETATM    8  C9  UNL     1      24.091   1.802  51.067  1.00  0.00     0.275 C 
HETATM    9  N6  UNL     1      25.310   2.584  51.154  1.00  0.00    -0.337 N 
ENDROOT
BRANCH   6  10
HETATM   10  C7  UNL     1      24.208  -0.307  54.105  1.00  0.00     0.072 C 
BRANCH  10  11
HETATM   11  C8  UNL     1      22.694  -0.548  54.027  1.00  0.00     0.110 C 
BRANCH  11  12
HETATM   12  N3  UNL     1      22.317  -1.432  55.114  1.00  0.00    -0.263 NA
HETATM   13  H13 UNL     1      21.529  -1.007  55.637  1.00  0.00     0.140 HD
BRANCH  12  14
HETATM   14  N4  UNL     1      23.388  -1.679  55.962  1.00  0.00    -0.271 NA
HETATM   15  H14 UNL     1      23.227  -1.106  56.824  1.00  0.00     0.137 HD
HETATM   16  H15 UNL     1      24.271  -1.398  55.488  1.00  0.00     0.137 HD
ENDBRANCH  12  14
ENDBRANCH  11  12
ENDBRANCH  10  11
ENDBRANCH   6  10
BRANCH   1  17
HETATM   17  C2  UNL     1      27.598  -0.061  54.566  1.00  0.00     0.120 C 
HETATM   18  C1  UNL     1      28.988  -0.480  54.088  1.00  0.00     0.026 C 
ENDBRANCH   1  17
BRANCH   9  19
HETATM   19  C10 UNL     1      25.336   3.890  50.587  1.00  0.00     0.035 A 
HETATM   20  C11 UNL     1      26.247   4.074  49.558  1.00  0.00     0.029 A 
HETATM   21  C12 UNL     1      26.323   5.324  48.946  1.00  0.00     0.004 A 
HETATM   22  C13 UNL     1      25.527   6.415  49.312  1.00  0.00     0.024 A 
HETATM   23  C14 UNL     1      24.657   6.140  50.338  1.00  0.00     0.036 A 
HETATM   24 CL1  UNL     1      23.609   7.453  50.870  1.00  0.00    -0.084 Cl
HETATM   25  C15 UNL     1      24.534   4.937  50.978  1.00  0.00     0.053 A 
ENDBRANCH   9  19
TORSDOF 6
ENDMDL
MODEL 4
REMARK VINA RESULT:      -7.1      3.038      5.706
REMARK  6 active torsions:
REMARK  status: ('A' for Active; 'I' for Inactive)
REMARK    1  A    between atoms: C2_2  and  N1_3 
REMARK    2  A    between atoms: C6_8  and  C7_9 
REMARK    3  A    between atoms: C7_9  and  C8_10 
REMARK    4  A    between atoms: C8_10  and  N3_11 
REMARK    5  A    between atoms: N3_11  and  N4_12 
REMARK    6  A    between atoms: N6_15  and  C10_16 
ROOT
HETATM    1  N1  UNL     1      24.465  -0.033  53.655  1.00  0.00    -0.362 N 
HETATM    2  C3  UNL     1      23.186   0.603  53.371  1.00  0.00     0.202 C 
HETATM    3  N2  UNL     1      23.376   1.747  52.804  1.00  0.00    -0.257 NA
HETATM    4  C4  UNL     1      24.775   1.933  52.680  1.00  0.00     0.239 C 
HETATM    5  C5  UNL     1      25.238   0.487  52.597  1.00  0.00     0.176 C 
HETATM    6  C6  UNL     1      26.692   0.531  52.673  1.00  0.00     0.036 C 
HETATM    7  N5  UNL     1      27.304   1.548  52.190  1.00  0.00    -0.276 NA
HETATM    8  C9  UNL     1      26.705   2.686  51.564  1.00  0.00     0.275 C 
HETATM    9  N6  UNL     1      25.254   2.655  51.538  1.00  0.00    -0.337 N 
ENDROOT
BRANCH   6  10
HETATM   10  C7  UNL     1      27.599  -0.486  53.247  1.00  0.00     0.072 C 
BRANCH  10  11
HETATM   11  C8  UNL     1      28.945   0.097  53.698  1.00  0.00     0.110 C 
BRANCH  11  12
HETATM   12  N3  UNL     1      28.692   1.073  54.742  1.00  0.00    -0.263 NA
HETATM   13  H13 UNL     1      27.672   1.237  54.811  1.00  0.00     0.140 HD
BRANCH  12  14
HETATM   14  N4  UNL     1      29.363   2.263  54.496  1.00  0.00    -0.271 NA
HETATM   15  H14 UNL     1      28.788   3.026  54.927  1.00  0.00     0.137 HD
HETATM   16  H15 UNL     1      29.453   2.399  53.469  1.00  0.00     0.137 HD
ENDBRANCH  12  14
ENDBRANCH  11  12
ENDBRANCH  10  11
ENDBRANCH   6  10
BRANCH   1  17
HETATM   17  C2  UNL     1      24.572  -0.918  54.801  1.00  0.00     0.120 C 
HETATM   18  C1  UNL     1      23.183  -1.333  55.287  1.00  0.00     0.026 C 
ENDBRANCH   1  17
BRANCH   9  19
HETATM   19  C10 UNL     1      24.566   3.308  50.477  1.00  0.00     0.035 A 
HETATM   20  C11 UNL     1      24.780   4.674  50.378  1.00  0.00     0.029 A 
HETATM   21  C12 UNL     1      24.149   5.380  49.357  1.00  0.00     0.004 A 
HETATM   22  C13 UNL     1      23.302   4.787  48.414  1.00  0.00     0.024 A 
HETATM   23  C14 UNL     1      23.148   3.434  48.589  1.00  0.00     0.036 A 
HETATM   24 CL1  UNL     1      22.100   2.595  47.448  1.00  0.00    -0.084 Cl
HETATM   25  C15 UNL     1      23.740   2.684  49.570  1.00  0.00     0.053 A 
ENDBRANCH   9  19
TORSDOF 6
ENDMDL
MODEL 5
REMARK VINA RESULT:      -7.0      3.140      5.919
REMARK  6 active torsions:
REMARK  status: ('A' for Active; 'I' for Inactive)
REMARK    1  A    between atoms: C2_2  and  N1_3 
REMARK    2  A    between atoms: C6_8  and  C7_9 
REMARK    3  A    between atoms: C7_9  and  C8_10 
REMARK    4  A    between atoms: C8_10  and  N3_11 
REMARK    5  A    between atoms: N3_11  and  N4_12 
REMARK    6  A    between atoms: N6_15  and  C10_16 
ROOT
HETATM    1  N1  UNL     1      23.741   0.143  53.333  1.00  0.00    -0.362 N 
HETATM    2  C3  UNL     1      22.631   1.078  53.212  1.00  0.00     0.202 C 
HETATM    3  N2  UNL     1      23.059   2.224  52.798  1.00  0.00    -0.257 NA
HETATM    4  C4  UNL     1      24.462   2.116  52.625  1.00  0.00     0.239 C 
HETATM    5  C5  UNL     1      24.587   0.632  52.317  1.00  0.00     0.176 C 
HETATM    6  C6  UNL     1      26.015   0.347  52.318  1.00  0.00     0.036 C 
HETATM    7  N5  UNL     1      26.828   1.266  51.949  1.00  0.00    -0.276 NA
HETATM    8  C9  UNL     1      26.485   2.586  51.520  1.00  0.00     0.275 C 
HETATM    9  N6  UNL     1      25.063   2.876  51.570  1.00  0.00    -0.337 N 
ENDROOT
BRANCH   6  10
HETATM   10  C7  UNL     1      26.685  -0.917  52.695  1.00  0.00     0.072 C 
BRANCH  10  11
HETATM   11  C8  UNL     1      28.088  -0.701  53.279  1.00  0.00     0.110 C 
BRANCH  11  12
HETATM   12  N3  UNL     1      27.947  -0.282  54.661  1.00  0.00    -0.263 NA
HETATM   13  H13 UNL     1      26.945  -0.311  54.923  1.00  0.00     0.140 HD
BRANCH  12  14
HETATM   14  N4  UNL     1      28.466   0.990  54.860  1.00  0.00    -0.271 NA
HETATM   15  H14 UNL     1      29.011   0.955  55.755  1.00  0.00     0.137 HD
HETATM   16  H15 UNL     1      27.684   1.672  54.927  1.00  0.00     0.137 HD
ENDBRANCH  12  14
ENDBRANCH  11  12
ENDBRANCH  10  11
ENDBRANCH   6  10
BRANCH   1  17
HETATM   17  C2  UNL     1      23.674  -0.903  54.338  1.00  0.00     0.120 C 
HETATM   18  C1  UNL     1      22.258  -1.007  54.907  1.00  0.00     0.026 C 
ENDBRANCH   1  17
BRANCH   9  19
HETATM   19  C10 UNL     1      24.515   3.813  50.648  1.00  0.00     0.035 A 
HETATM   20  C11 UNL     1      24.005   3.271  49.479  1.00  0.00     0.029 A 
HETATM   21  C12 UNL     1      23.442   4.125  48.533  1.00  0.00     0.004 A 
HETATM   22  C13 UNL     1      23.360   5.512  48.695  1.00  0.00     0.024 A 
HETATM   23  C14 UNL     1      23.889   5.959  49.880  1.00  0.00     0.036 A 
HETATM   24 CL1  UNL     1      23.831   7.695  50.177  1.00  0.00    -0.084 Cl
HETATM   25  C15 UNL     1      24.455   5.173  50.848  1.00  0.00     0.053 A 
ENDBRANCH   9  19
TORSDOF 6
ENDMDL
MODEL 6
REMARK VINA RESULT:      -6.9      2.944      6.084
REMARK  6 active torsions:
REMARK  status: ('A' for Active; 'I' for Inactive)
REMARK    1  A    between atoms: C2_2  and  N1_3 
REMARK    2  A    between atoms: C6_8  and  C7_9 
REMARK    3  A    between atoms: C7_9  and  C8_10 
REMARK    4  A    between atoms: C8_10  and  N3_11 
REMARK    5  A    between atoms: N3_11  and  N4_12 
REMARK    6  A    between atoms: N6_15  and  C10_16 
ROOT
HETATM    1  N1  UNL     1      26.781   0.910  53.403  1.00  0.00    -0.362 N 
HETATM    2  C3  UNL     1      27.710   1.908  52.891  1.00  0.00     0.202 C 
HETATM    3  N2  UNL     1      27.205   2.497  51.860  1.00  0.00    -0.257 NA
HETATM    4  C4  UNL     1      25.926   1.930  51.630  1.00  0.00     0.239 C 
HETATM    5  C5  UNL     1      25.556   1.508  53.044  1.00  0.00     0.176 C 
HETATM    6  C6  UNL     1      24.338   0.720  52.916  1.00  0.00     0.036 C 
HETATM    7  N5  UNL     1      23.517   1.002  51.972  1.00  0.00    -0.276 NA
HETATM    8  C9  UNL     1      23.663   2.037  50.996  1.00  0.00     0.275 C 
HETATM    9  N6  UNL     1      24.903   2.784  51.103  1.00  0.00    -0.337 N 
ENDROOT
BRANCH   6  10
HETATM   10  C7  UNL     1      23.895  -0.404  53.767  1.00  0.00     0.072 C 
BRANCH  10  11
HETATM   11  C8  UNL     1      22.407  -0.327  54.137  1.00  0.00     0.110 C 
BRANCH  11  12
HETATM   12  N3  UNL     1      22.109  -1.410  55.056  1.00  0.00    -0.263 NA
HETATM   13  H13 UNL     1      21.290  -1.146  55.634  1.00  0.00     0.140 HD
BRANCH  12  14
HETATM   14  N4  UNL     1      23.200  -1.706  55.861  1.00  0.00    -0.271 NA
HETATM   15  H14 UNL     1      23.009  -1.274  56.796  1.00  0.00     0.137 HD
HETATM   16  H15 UNL     1      24.059  -1.305  55.433  1.00  0.00     0.137 HD
ENDBRANCH  12  14
ENDBRANCH  11  12
ENDBRANCH  10  11
ENDBRANCH   6  10
BRANCH   1  17
HETATM   17  C2  UNL     1      27.309  -0.271  54.061  1.00  0.00     0.120 C 
HETATM   18  C1  UNL     1      27.838  -1.267  53.028  1.00  0.00     0.026 C 
ENDBRANCH   1  17
BRANCH   9  19
HETATM   19  C10 UNL     1      24.930   4.145  50.685  1.00  0.00     0.035 A 
HETATM   20  C11 UNL     1      24.052   4.989  51.347  1.00  0.00     0.029 A 
HETATM   21  C12 UNL     1      24.028   6.338  50.999  1.00  0.00     0.004 A 
HETATM   22  C13 UNL     1      24.847   6.898  50.012  1.00  0.00     0.024 A 
HETATM   23  C14 UNL     1      25.682   5.989  49.411  1.00  0.00     0.036 A 
HETATM   24 CL1  UNL     1      26.755   6.599  48.154  1.00  0.00    -0.084 Cl
HETATM   25  C15 UNL     1      25.753   4.654  49.707  1.00  0.00     0.053 A 
ENDBRANCH   9  19
TORSDOF 6
ENDMDL
MODEL 7
REMARK VINA RESULT:      -6.6      3.224      6.392
REMARK  6 active torsions:
REMARK  status: ('A' for Active; 'I' for Inactive)
REMARK    1  A    between atoms: C2_2  and  N1_3 
REMARK    2  A    between atoms: C6_8  and  C7_9 
REMARK    3  A    between atoms: C7_9  and  C8_10 
REMARK    4  A    between atoms: C8_10  and  N3_11 
REMARK    5  A    between atoms: N3_11  and  N4_12 
REMARK    6  A    between atoms: N6_15  and  C10_16 
ROOT
HETATM    1  N1  UNL     1      25.864   0.900  53.034  1.00  0.00    -0.362 N 
HETATM    2  C3  UNL     1      26.523   1.978  52.310  1.00  0.00     0.202 C 
HETATM    3  N2  UNL     1      25.742   2.437  51.390  1.00  0.00    -0.257 NA
HETATM    4  C4  UNL     1      24.535   1.697  51.449  1.00  0.00     0.239 C 
HETATM    5  C5  UNL     1      24.521   1.313  52.920  1.00  0.00     0.176 C 
HETATM    6  C6  UNL     1      23.423   0.368  53.072  1.00  0.00     0.036 C 
HETATM    7  N5  UNL     1      22.397   0.486  52.312  1.00  0.00    -0.276 NA
HETATM    8  C9  UNL     1      22.198   1.475  51.298  1.00  0.00     0.275 C 
HETATM    9  N6  UNL     1      23.318   2.380  51.121  1.00  0.00    -0.337 N 
ENDROOT
BRANCH   6  10
HETATM   10  C7  UNL     1      23.321  -0.754  54.029  1.00  0.00     0.072 C 
BRANCH  10  11
HETATM   11  C8  UNL     1      22.017  -1.552  53.883  1.00  0.00     0.110 C 
BRANCH  11  12
HETATM   12  N3  UNL     1      21.118  -1.155  54.950  1.00  0.00    -0.263 NA
HETATM   13  H13 UNL     1      20.594  -1.987  55.278  1.00  0.00     0.140 HD
BRANCH  12  14
HETATM   14  N4  UNL     1      20.243  -0.161  54.531  1.00  0.00    -0.271 NA
HETATM   15  H14 UNL     1      19.916  -0.433  53.573  1.00  0.00     0.137 HD
HETATM   16  H15 UNL     1      20.745   0.750  54.509  1.00  0.00     0.137 HD
ENDBRANCH  12  14
ENDBRANCH  11  12
ENDBRANCH  10  11
ENDBRANCH   6  10
BRANCH   1  17
HETATM   17  C2  UNL     1      26.672  -0.164  53.602  1.00  0.00     0.120 C 
HETATM   18  C1  UNL     1      26.809  -1.319  52.609  1.00  0.00     0.026 C 
ENDBRANCH   1  17
BRANCH   9  19
HETATM   19  C10 UNL     1      23.072   3.707  50.668  1.00  0.00     0.035 A 
HETATM   20  C11 UNL     1      22.762   4.628  51.657  1.00  0.00     0.029 A 
HETATM   21  C12 UNL     1      22.518   5.949  51.290  1.00  0.00     0.004 A 
HETATM   22  C13 UNL     1      22.567   6.408  49.969  1.00  0.00     0.024 A 
HETATM   23  C14 UNL     1      22.880   5.429  49.059  1.00  0.00     0.036 A 
HETATM   24 CL1  UNL     1      22.967   5.909  47.366  1.00  0.00    -0.084 Cl
HETATM   25  C15 UNL     1      23.130   4.115  49.355  1.00  0.00     0.053 A 
ENDBRANCH   9  19
TORSDOF 6
ENDMDL
MODEL 8
REMARK VINA RESULT:      -6.6      4.343      6.469
REMARK  6 active torsions:
REMARK  status: ('A' for Active; 'I' for Inactive)
REMARK    1  A    between atoms: C2_2  and  N1_3 
REMARK    2  A    between atoms: C6_8  and  C7_9 
REMARK    3  A    between atoms: C7_9  and  C8_10 
REMARK    4  A    between atoms: C8_10  and  N3_11 
REMARK    5  A    between atoms: N3_11  and  N4_12 
REMARK    6  A    between atoms: N6_15  and  C10_16 
ROOT
HETATM    1  N1  UNL     1      16.981   1.125  50.611  1.00  0.00    -0.362 N 
HETATM    2  C3  UNL     1      17.645  -0.171  50.592  1.00  0.00     0.202 C 
HETATM    3  N2  UNL     1      18.900  -0.031  50.863  1.00  0.00    -0.257 NA
HETATM    4  C4  UNL     1      19.137   1.350  51.075  1.00  0.00     0.239 C 
HETATM    5  C5  UNL     1      17.769   1.790  51.572  1.00  0.00     0.176 C 
HETATM    6  C6  UNL     1      17.820   3.245  51.635  1.00  0.00     0.036 C 
HETATM    7  N5  UNL     1      18.938   3.812  51.899  1.00  0.00    -0.276 NA
HETATM    8  C9  UNL     1      20.187   3.161  52.150  1.00  0.00     0.275 C 
HETATM    9  N6  UNL     1      20.136   1.715  52.036  1.00  0.00    -0.337 N 
ENDROOT
BRANCH   6  10
HETATM   10  C7  UNL     1      16.707   4.198  51.434  1.00  0.00     0.072 C 
BRANCH  10  11
HETATM   11  C8  UNL     1      15.516   3.934  52.366  1.00  0.00     0.110 C 
BRANCH  11  12
HETATM   12  N3  UNL     1      15.646   4.794  53.527  1.00  0.00    -0.263 NA
HETATM   13  H13 UNL     1      16.520   4.553  54.030  1.00  0.00     0.140 HD
BRANCH  12  14
HETATM   14  N4  UNL     1      14.550   4.675  54.371  1.00  0.00    -0.271 NA
HETATM   15  H14 UNL     1      13.700   4.852  53.785  1.00  0.00     0.137 HD
HETATM   16  H15 UNL     1      14.629   5.376  55.135  1.00  0.00     0.137 HD
ENDBRANCH  12  14
ENDBRANCH  11  12
ENDBRANCH  10  11
ENDBRANCH   6  10
BRANCH   1  17
HETATM   17  C2  UNL     1      15.835   1.342  49.746  1.00  0.00     0.120 C 
HETATM   18  C1  UNL     1      16.278   1.948  48.414  1.00  0.00     0.026 C 
ENDBRANCH   1  17
BRANCH   9  19
HETATM   19  C10 UNL     1      21.026   0.927  52.820  1.00  0.00     0.035 A 
HETATM   20  C11 UNL     1      20.460   0.310  53.925  1.00  0.00     0.029 A 
HETATM   21  C12 UNL     1      21.267  -0.486  54.735  1.00  0.00     0.004 A 
HETATM   22  C13 UNL     1      22.629  -0.702  54.497  1.00  0.00     0.024 A 
HETATM   23  C14 UNL     1      23.102  -0.052  53.384  1.00  0.00     0.036 A 
HETATM   24 CL1  UNL     1      24.809  -0.265  52.999  1.00  0.00    -0.084 Cl
HETATM   25  C15 UNL     1      22.362   0.742  52.549  1.00  0.00     0.053 A 
ENDBRANCH   9  19
TORSDOF 6
ENDMDL
MODEL 9
REMARK VINA RESULT:      -6.5      3.206      5.625
REMARK  6 active torsions:
REMARK  status: ('A' for Active; 'I' for Inactive)
REMARK    1  A    between atoms: C2_2  and  N1_3 
REMARK    2  A    between atoms: C6_8  and  C7_9 
REMARK    3  A    between atoms: C7_9  and  C8_10 
REMARK    4  A    between atoms: C8_10  and  N3_11 
REMARK    5  A    between atoms: N3_11  and  N4_12 
REMARK    6  A    between atoms: N6_15  and  C10_16 
ROOT
HETATM    1  N1  UNL     1      26.147   1.165  52.941  1.00  0.00    -0.362 N 
HETATM    2  C3  UNL     1      27.392   1.862  52.651  1.00  0.00     0.202 C 
HETATM    3  N2  UNL     1      27.301   2.482  51.521  1.00  0.00    -0.257 NA
HETATM    4  C4  UNL     1      26.006   2.233  51.004  1.00  0.00     0.239 C 
HETATM    5  C5  UNL     1      25.231   2.020  52.294  1.00  0.00     0.176 C 
HETATM    6  C6  UNL     1      23.912   1.550  51.892  1.00  0.00     0.036 C 
HETATM    7  N5  UNL     1      23.426   1.956  50.777  1.00  0.00    -0.276 NA
HETATM    8  C9  UNL     1      24.050   2.850  49.851  1.00  0.00     0.275 C 
HETATM    9  N6  UNL     1      25.383   3.272  50.238  1.00  0.00    -0.337 N 
ENDROOT
BRANCH   6  10
HETATM   10  C7  UNL     1      23.014   0.635  52.628  1.00  0.00     0.072 C 
BRANCH  10  11
HETATM   11  C8  UNL     1      21.534   1.027  52.515  1.00  0.00     0.110 C 
BRANCH  11  12
HETATM   12  N3  UNL     1      20.906   0.157  51.538  1.00  0.00    -0.263 NA
HETATM   13  H13 UNL     1      21.529  -0.650  51.354  1.00  0.00     0.140 HD
BRANCH  12  14
HETATM   14  N4  UNL     1      20.628   0.837  50.359  1.00  0.00    -0.271 NA
HETATM   15  H14 UNL     1      21.398   0.602  49.689  1.00  0.00     0.137 HD
HETATM   16  H15 UNL     1      20.600   1.858  50.553  1.00  0.00     0.137 HD
ENDBRANCH  12  14
ENDBRANCH  11  12
ENDBRANCH  10  11
ENDBRANCH   6  10
BRANCH   1  17
HETATM   17  C2  UNL     1      26.190  -0.059  53.720  1.00  0.00     0.120 C 
HETATM   18  C1  UNL     1      27.140  -1.069  53.075  1.00  0.00     0.026 C 
ENDBRANCH   1  17
BRANCH   9  19
HETATM   19  C10 UNL     1      25.853   4.550  49.821  1.00  0.00     0.035 A 
HETATM   20  C11 UNL     1      25.121   5.634  50.282  1.00  0.00     0.029 A 
HETATM   21  C12 UNL     1      25.527   6.918  49.924  1.00  0.00     0.004 A 
HETATM   22  C13 UNL     1      26.640   7.181  49.118  1.00  0.00     0.024 A 
HETATM   23  C14 UNL     1      27.302   6.051  48.709  1.00  0.00     0.036 A 
HETATM   24 CL1  UNL     1      28.721   6.280  47.690  1.00  0.00    -0.084 Cl
HETATM   25  C15 UNL     1      26.955   4.765  49.026  1.00  0.00     0.053 A 
ENDBRANCH   9  19
TORSDOF 6
ENDMDL
