MODEL 1
REMARK VINA RESULT:      -9.0      0.000      0.000
REMARK  7 active torsions:
REMARK  status: ('A' for Active; 'I' for Inactive)
REMARK    1  A    between atoms: N1_2  and  C2_3 
REMARK    2  A    between atoms: O1_9  and  C8_10 
REMARK    3  A    between atoms: C17_21  and  C18_22 
REMARK    4  A    between atoms: C17_21  and  O3_31 
REMARK    5  A    between atoms: C18_22  and  C19_23 
REMARK    6  A    between atoms: C19_23  and  N4_24 
REMARK       I    between atoms: N4_24  and  C20_25 
REMARK    7  A    between atoms: C20_25  and  C21_27 
ROOT
HETATM    1  C8  UNL     1      24.814   0.478  53.032  1.00  0.00     0.434 A 
HETATM    2  N2  UNL     1      24.506  -0.509  53.862  1.00  0.00     0.219 N 
HETATM    3  C9  UNL     1      23.472  -1.108  54.437  1.00  0.00     0.452 A 
HETATM    4  N3  UNL     1      24.473  -0.506  53.863  1.00  0.00     0.219 N 
HETATM    5  C10 UNL     1      24.314   0.483  53.073  1.00  0.00     0.496 A 
HETATM    6  C11 UNL     1      24.042   1.525  52.252  1.00  0.00     0.118 A 
HETATM    7  C12 UNL     1      22.872   1.596  51.460  1.00  0.00     0.075 A 
HETATM    8  C13 UNL     1      21.514   1.348  52.142  1.00  0.00    -0.037 A 
HETATM    9  C14 UNL     1      21.210   0.512  53.114  1.00  0.00     0.006 C 
HETATM   10  C15 UNL     1      21.199  -0.439  54.123  1.00  0.00     0.001 C 
HETATM   11  C16 UNL     1      22.087  -1.210  54.786  1.00  0.00     0.054 C 
HETATM   12  C17 UNL     1      21.780   2.295  51.070  1.00  0.00     0.094 A 
ENDROOT
BRANCH  12  13
HETATM   13  C18 UNL     1      21.083   2.245  49.759  1.00  0.00     0.063 C 
BRANCH  13  14
HETATM   14  C19 UNL     1      21.809   2.858  48.618  1.00  0.00     0.125 C 
BRANCH  14  15
HETATM   15  N4  UNL     1      22.007   4.314  48.903  1.00  0.00    -0.371 N 
HETATM   16  C20 UNL     1      23.395   4.640  48.984  1.00  0.00     0.159 C 
HETATM   17  O2  UNL     1      23.916   3.447  48.835  1.00  0.00    -0.177 OA
HETATM   18  H16 UNL     1      21.615   5.299  49.091  1.00  0.00     0.161 HD
BRANCH  16  19
HETATM   19  C21 UNL     1      24.578   5.486  49.129  1.00  0.00     0.017 C 
HETATM   20  C22 UNL     1      25.846   4.625  49.208  1.00  0.00     0.023 C 
HETATM   21  C23 UNL     1      24.701   6.547  48.070  1.00  0.00     0.023 C 
HETATM   22  C24 UNL     1      24.495   6.218  50.471  1.00  0.00     0.023 C 
ENDBRANCH  16  19
ENDBRANCH  14  15
ENDBRANCH  13  14
ENDBRANCH  12  13
BRANCH  12  23
HETATM   23  O3  UNL     1      21.640   3.657  51.692  1.00  0.00    -0.380 OA
HETATM   24  C25 UNL     1      20.332   3.934  51.920  1.00  0.00     0.203 C 
ENDBRANCH  12  23
BRANCH   1  25
HETATM   25  O1  UNL     1      26.080   0.859  52.605  1.00  0.00     0.000 OA
HETATM   26  C7  UNL     1      27.209   0.280  53.112  1.00  0.00    -0.006 A 
HETATM   27  C2  UNL     1      28.421  -0.284  53.644  1.00  0.00     0.035 C 
HETATM   28  C6  UNL     1      27.281   1.625  52.871  1.00  0.00     0.052 A 
HETATM   29  C3  UNL     1      29.386   0.635  53.921  1.00  0.00     0.030 C 
HETATM   30  C4  UNL     1      29.205   2.150  53.904  1.00  0.00     0.011 C 
HETATM   31  C5  UNL     1      27.893   2.282  53.843  1.00  0.00    -0.034 C 
BRANCH  27  32
HETATM   32  N1  UNL     1      27.895  -1.590  53.485  1.00  0.00    -0.394 N 
HETATM   33  C1  UNL     1      28.985  -2.525  53.178  1.00  0.00     0.146 C 
HETATM   34  H4  UNL     1      26.859  -1.851  53.555  1.00  0.00     0.159 HD
ENDBRANCH  27  32
ENDBRANCH   1  25
TORSDOF 7
ENDMDL
MODEL 2
REMARK VINA RESULT:      -8.9      2.245      3.873
REMARK  7 active torsions:
REMARK  status: ('A' for Active; 'I' for Inactive)
REMARK    1  A    between atoms: N1_2  and  C2_3 
REMARK    2  A    between atoms: O1_9  and  C8_10 
REMARK    3  A    between atoms: C17_21  and  C18_22 
REMARK    4  A    between atoms: C17_21  and  O3_31 
REMARK    5  A    between atoms: C18_22  and  C19_23 
REMARK    6  A    between atoms: C19_23  and  N4_24 
REMARK       I    between atoms: N4_24  and  C20_25 
REMARK    7  A    between atoms: C20_25  and  C21_27 
ROOT
HETATM    1  C8  UNL     1      26.035   1.342  51.926  1.00  0.00     0.434 A 
HETATM    2  N2  UNL     1      26.813   2.246  51.346  1.00  0.00     0.219 N 
HETATM    3  C9  UNL     1      26.786   3.247  50.478  1.00  0.00     0.452 A 
HETATM    4  N3  UNL     1      26.791   2.261  51.327  1.00  0.00     0.219 N 
HETATM    5  C10 UNL     1      25.737   1.606  51.620  1.00  0.00     0.496 A 
HETATM    6  C11 UNL     1      24.566   0.971  51.864  1.00  0.00     0.118 A 
HETATM    7  C12 UNL     1      23.313   1.630  51.844  1.00  0.00     0.075 A 
HETATM    8  C13 UNL     1      22.970   2.504  50.624  1.00  0.00    -0.037 A 
HETATM    9  C14 UNL     1      23.761   3.265  49.895  1.00  0.00     0.006 C 
HETATM   10  C15 UNL     1      24.817   3.959  49.324  1.00  0.00     0.001 C 
HETATM   11  C16 UNL     1      26.156   4.049  49.472  1.00  0.00     0.054 C 
HETATM   12  C17 UNL     1      22.042   1.683  51.385  1.00  0.00     0.094 A 
ENDROOT
BRANCH  12  13
HETATM   13  C18 UNL     1      20.846   2.239  52.069  1.00  0.00     0.063 C 
BRANCH  13  14
HETATM   14  C19 UNL     1      20.873   3.700  52.332  1.00  0.00     0.125 C 
BRANCH  14  15
HETATM   15  N4  UNL     1      20.353   4.415  51.125  1.00  0.00    -0.371 N 
HETATM   16  C20 UNL     1      21.144   5.565  50.825  1.00  0.00     0.159 C 
HETATM   17  O2  UNL     1      21.982   5.532  51.832  1.00  0.00    -0.177 OA
HETATM   18  H16 UNL     1      19.644   4.512  50.320  1.00  0.00     0.161 HD
BRANCH  16  19
HETATM   19  C21 UNL     1      21.585   6.747  50.086  1.00  0.00     0.017 C 
HETATM   20  C22 UNL     1      21.876   6.386  48.623  1.00  0.00     0.023 C 
HETATM   21  C23 UNL     1      20.642   7.914  50.186  1.00  0.00     0.023 C 
HETATM   22  C24 UNL     1      22.921   7.217  50.666  1.00  0.00     0.023 C 
ENDBRANCH  16  19
ENDBRANCH  14  15
ENDBRANCH  13  14
ENDBRANCH  12  13
BRANCH  12  23
HETATM   23  O3  UNL     1      21.650   0.560  50.464  1.00  0.00    -0.380 OA
HETATM   24  C25 UNL     1      20.940   1.043  49.415  1.00  0.00     0.203 C 
ENDBRANCH  12  23
BRANCH   1  25
HETATM   25  O1  UNL     1      26.406   0.380  52.857  1.00  0.00     0.000 OA
HETATM   26  C7  UNL     1      27.716   0.050  53.059  1.00  0.00    -0.006 A 
HETATM   27  C2  UNL     1      29.081  -0.349  53.278  1.00  0.00     0.035 C 
HETATM   28  C6  UNL     1      26.821  -0.985  53.106  1.00  0.00     0.052 A 
HETATM   29  C3  UNL     1      29.257  -1.695  53.378  1.00  0.00     0.030 C 
HETATM   30  C4  UNL     1      28.202  -2.757  53.084  1.00  0.00     0.011 C 
HETATM   31  C5  UNL     1      27.259  -2.063  52.475  1.00  0.00    -0.034 C 
BRANCH  27  32
HETATM   32  N1  UNL     1      29.477   1.010  53.347  1.00  0.00    -0.394 N 
HETATM   33  C1  UNL     1      29.153   1.550  54.673  1.00  0.00     0.146 C 
HETATM   34  H4  UNL     1      29.923   1.564  52.547  1.00  0.00     0.159 HD
ENDBRANCH  27  32
ENDBRANCH   1  25
TORSDOF 7
ENDMDL
MODEL 3
REMARK VINA RESULT:      -8.9      2.087      4.061
REMARK  7 active torsions:
REMARK  status: ('A' for Active; 'I' for Inactive)
REMARK    1  A    between atoms: N1_2  and  C2_3 
REMARK    2  A    between atoms: O1_9  and  C8_10 
REMARK    3  A    between atoms: C17_21  and  C18_22 
REMARK    4  A    between atoms: C17_21  and  O3_31 
REMARK    5  A    between atoms: C18_22  and  C19_23 
REMARK    6  A    between atoms: C19_23  and  N4_24 
REMARK       I    between atoms: N4_24  and  C20_25 
REMARK    7  A    between atoms: C20_25  and  C21_27 
ROOT
HETATM    1  C8  UNL     1      24.844   0.597  52.848  1.00  0.00     0.434 A 
HETATM    2  N2  UNL     1      24.464  -0.360  53.683  1.00  0.00     0.219 N 
HETATM    3  C9  UNL     1      23.387  -0.897  54.239  1.00  0.00     0.452 A 
HETATM    4  N3  UNL     1      24.432  -0.356  53.683  1.00  0.00     0.219 N 
HETATM    5  C10 UNL     1      24.345   0.628  52.876  1.00  0.00     0.496 A 
HETATM    6  C11 UNL     1      24.148   1.671  52.035  1.00  0.00     0.118 A 
HETATM    7  C12 UNL     1      23.003   1.792  51.211  1.00  0.00     0.075 A 
HETATM    8  C13 UNL     1      21.618   1.624  51.862  1.00  0.00    -0.037 A 
HETATM    9  C14 UNL     1      21.247   0.819  52.836  1.00  0.00     0.006 C 
HETATM   10  C15 UNL     1      21.161  -0.115  53.857  1.00  0.00     0.001 C 
HETATM   11  C16 UNL     1      21.990  -0.922  54.553  1.00  0.00     0.054 C 
HETATM   12  C17 UNL     1      21.960   2.539  50.784  1.00  0.00     0.094 A 
ENDROOT
BRANCH  12  13
HETATM   13  C18 UNL     1      21.294   2.507  49.456  1.00  0.00     0.063 C 
BRANCH  13  14
HETATM   14  C19 UNL     1      19.812   2.593  49.473  1.00  0.00     0.125 C 
BRANCH  14  15
HETATM   15  N4  UNL     1      19.250   1.216  49.305  1.00  0.00    -0.371 N 
HETATM   16  C20 UNL     1      18.243   0.946  50.280  1.00  0.00     0.159 C 
HETATM   17  O2  UNL     1      18.303   2.054  50.979  1.00  0.00    -0.177 OA
HETATM   18  H16 UNL     1      19.216   0.268  48.795  1.00  0.00     0.161 HD
BRANCH  16  19
HETATM   19  C21 UNL     1      17.195   0.195  50.969  1.00  0.00     0.017 C 
HETATM   20  C22 UNL     1      16.355  -0.599  49.960  1.00  0.00     0.023 C 
HETATM   21  C23 UNL     1      17.706  -0.689  52.074  1.00  0.00     0.023 C 
HETATM   22  C24 UNL     1      16.227   1.187  51.618  1.00  0.00     0.023 C 
ENDBRANCH  16  19
ENDBRANCH  14  15
ENDBRANCH  13  14
ENDBRANCH  12  13
BRANCH  12  23
HETATM   23  O3  UNL     1      21.875   3.917  51.384  1.00  0.00    -0.380 OA
HETATM   24  C25 UNL     1      22.684   4.771  50.710  1.00  0.00     0.203 C 
ENDBRANCH  12  23
BRANCH   1  25
HETATM   25  O1  UNL     1      26.139   0.907  52.449  1.00  0.00     0.000 OA
HETATM   26  C7  UNL     1      27.224   0.302  53.018  1.00  0.00    -0.006 A 
HETATM   27  C2  UNL     1      28.393  -0.288  53.614  1.00  0.00     0.035 C 
HETATM   28  C6  UNL     1      27.363   1.632  52.724  1.00  0.00     0.052 A 
HETATM   29  C3  UNL     1      29.387   0.601  53.885  1.00  0.00     0.030 C 
HETATM   30  C4  UNL     1      29.274   2.120  53.799  1.00  0.00     0.011 C 
HETATM   31  C5  UNL     1      27.971   2.304  53.688  1.00  0.00    -0.034 C 
BRANCH  27  32
HETATM   32  N1  UNL     1      27.817  -1.577  53.492  1.00  0.00    -0.394 N 
HETATM   33  C1  UNL     1      28.859  -2.551  53.147  1.00  0.00     0.146 C 
HETATM   34  H4  UNL     1      26.776  -1.801  53.610  1.00  0.00     0.159 HD
ENDBRANCH  27  32
ENDBRANCH   1  25
TORSDOF 7
ENDMDL
MODEL 4
REMARK VINA RESULT:      -8.5      3.566      7.342
REMARK  7 active torsions:
REMARK  status: ('A' for Active; 'I' for Inactive)
REMARK    1  A    between atoms: N1_2  and  C2_3 
REMARK    2  A    between atoms: O1_9  and  C8_10 
REMARK    3  A    between atoms: C17_21  and  C18_22 
REMARK    4  A    between atoms: C17_21  and  O3_31 
REMARK    5  A    between atoms: C18_22  and  C19_23 
REMARK    6  A    between atoms: C19_23  and  N4_24 
REMARK       I    between atoms: N4_24  and  C20_25 
REMARK    7  A    between atoms: C20_25  and  C21_27 
ROOT
HETATM    1  C8  UNL     1      19.302  -0.003  52.541  1.00  0.00     0.434 A 
HETATM    2  N2  UNL     1      19.539  -0.871  53.515  1.00  0.00     0.219 N 
HETATM    3  C9  UNL     1      20.524  -1.415  54.214  1.00  0.00     0.452 A 
HETATM    4  N3  UNL     1      19.571  -0.870  53.517  1.00  0.00     0.219 N 
HETATM    5  C10 UNL     1      19.799  -0.012  52.600  1.00  0.00     0.496 A 
HETATM    6  C11 UNL     1      20.144   0.886  51.647  1.00  0.00     0.118 A 
HETATM    7  C12 UNL     1      21.256   1.753  51.772  1.00  0.00     0.075 A 
HETATM    8  C13 UNL     1      22.615   1.143  52.160  1.00  0.00    -0.037 A 
HETATM    9  C14 UNL     1      22.877   0.143  52.977  1.00  0.00     0.006 C 
HETATM   10  C15 UNL     1      22.837  -0.920  53.867  1.00  0.00     0.001 C 
HETATM   11  C16 UNL     1      21.906  -1.683  54.479  1.00  0.00     0.054 C 
HETATM   12  C17 UNL     1      22.398   2.252  51.245  1.00  0.00     0.094 A 
ENDROOT
BRANCH  12  13
HETATM   13  C18 UNL     1      22.989   3.599  51.454  1.00  0.00     0.063 C 
BRANCH  13  14
HETATM   14  C19 UNL     1      24.472   3.667  51.410  1.00  0.00     0.125 C 
BRANCH  14  15
HETATM   15  N4  UNL     1      25.009   3.297  52.757  1.00  0.00    -0.371 N 
HETATM   16  C20 UNL     1      25.935   2.214  52.664  1.00  0.00     0.159 C 
HETATM   17  O2  UNL     1      25.853   1.957  51.381  1.00  0.00    -0.177 OA
HETATM   18  H16 UNL     1      25.055   3.436  53.824  1.00  0.00     0.161 HD
BRANCH  16  19
HETATM   19  C21 UNL     1      26.910   1.226  53.122  1.00  0.00     0.017 C 
HETATM   20  C22 UNL     1      26.890  -0.009  52.213  1.00  0.00     0.023 C 
HETATM   21  C23 UNL     1      28.304   1.773  53.274  1.00  0.00     0.023 C 
HETATM   22  C24 UNL     1      26.487   0.725  54.506  1.00  0.00     0.023 C 
ENDBRANCH  16  19
ENDBRANCH  14  15
ENDBRANCH  13  14
ENDBRANCH  12  13
BRANCH  12  23
HETATM   23  O3  UNL     1      22.755   1.724  49.881  1.00  0.00    -0.380 OA
HETATM   24  C25 UNL     1      22.074   2.402  48.925  1.00  0.00     0.203 C 
ENDBRANCH  12  23
BRANCH   1  25
HETATM   25  O1  UNL     1      18.068   0.366  52.019  1.00  0.00     0.000 OA
HETATM   26  C7  UNL     1      17.027  -0.517  51.955  1.00  0.00    -0.006 A 
HETATM   27  C2  UNL     1      15.918  -1.426  51.841  1.00  0.00     0.035 C 
HETATM   28  C6  UNL     1      17.158   0.335  50.892  1.00  0.00     0.052 A 
HETATM   29  C3  UNL     1      15.264  -1.357  50.649  1.00  0.00     0.030 C 
HETATM   30  C4  UNL     1      15.727  -0.579  49.421  1.00  0.00     0.011 C 
HETATM   31  C5  UNL     1      16.973  -0.271  49.730  1.00  0.00    -0.034 C 
BRANCH  27  32
HETATM   32  N1  UNL     1      16.113  -1.848  53.179  1.00  0.00    -0.394 N 
HETATM   33  C1  UNL     1      16.755  -3.168  53.190  1.00  0.00     0.146 C 
HETATM   34  H4  UNL     1      15.817  -1.298  54.049  1.00  0.00     0.159 HD
ENDBRANCH  27  32
ENDBRANCH   1  25
TORSDOF 7
ENDMDL
MODEL 5
REMARK VINA RESULT:      -8.4      3.156      5.539
REMARK  7 active torsions:
REMARK  status: ('A' for Active; 'I' for Inactive)
REMARK    1  A    between atoms: N1_2  and  C2_3 
REMARK    2  A    between atoms: O1_9  and  C8_10 
REMARK    3  A    between atoms: C17_21  and  C18_22 
REMARK    4  A    between atoms: C17_21  and  O3_31 
REMARK    5  A    between atoms: C18_22  and  C19_23 
REMARK    6  A    between atoms: C19_23  and  N4_24 
REMARK       I    between atoms: N4_24  and  C20_25 
REMARK    7  A    between atoms: C20_25  and  C21_27 
ROOT
HETATM    1  C8  UNL     1      23.415   2.790  50.903  1.00  0.00     0.434 A 
HETATM    2  N2  UNL     1      22.786   2.133  49.939  1.00  0.00     0.219 N 
HETATM    3  C9  UNL     1      22.325   2.276  48.704  1.00  0.00     0.452 A 
HETATM    4  N3  UNL     1      22.784   2.156  49.915  1.00  0.00     0.219 N 
HETATM    5  C10 UNL     1      23.368   3.113  50.523  1.00  0.00     0.496 A 
HETATM    6  C11 UNL     1      23.972   4.189  51.083  1.00  0.00     0.118 A 
HETATM    7  C12 UNL     1      24.724   5.126  50.335  1.00  0.00     0.075 A 
HETATM    8  C13 UNL     1      24.087   5.725  49.068  1.00  0.00    -0.037 A 
HETATM    9  C14 UNL     1      23.290   5.156  48.187  1.00  0.00     0.006 C 
HETATM   10  C15 UNL     1      22.481   4.304  47.449  1.00  0.00     0.001 C 
HETATM   11  C16 UNL     1      21.987   3.051  47.548  1.00  0.00     0.054 C 
HETATM   12  C17 UNL     1      24.961   6.416  50.002  1.00  0.00     0.094 A 
ENDROOT
BRANCH  12  13
HETATM   13  C18 UNL     1      26.250   7.033  49.596  1.00  0.00     0.063 C 
BRANCH  13  14
HETATM   14  C19 UNL     1      26.934   6.400  48.440  1.00  0.00     0.125 C 
BRANCH  14  15
HETATM   15  N4  UNL     1      28.146   5.677  48.936  1.00  0.00    -0.371 N 
HETATM   16  C20 UNL     1      29.317   6.084  48.227  1.00  0.00     0.159 C 
HETATM   17  O2  UNL     1      28.780   6.905  47.358  1.00  0.00    -0.177 OA
HETATM   18  H16 UNL     1      28.614   4.962  49.592  1.00  0.00     0.161 HD
BRANCH  16  19
HETATM   19  C21 UNL     1      30.737   6.144  47.884  1.00  0.00     0.017 C 
HETATM   20  C22 UNL     1      31.267   4.744  47.551  1.00  0.00     0.023 C 
HETATM   21  C23 UNL     1      31.057   7.126  46.790  1.00  0.00     0.023 C 
HETATM   22  C24 UNL     1      31.520   6.598  49.118  1.00  0.00     0.023 C 
ENDBRANCH  16  19
ENDBRANCH  14  15
ENDBRANCH  13  14
ENDBRANCH  12  13
BRANCH  12  23
HETATM   23  O3  UNL     1      24.089   7.425  50.699  1.00  0.00    -0.380 OA
HETATM   24  C25 UNL     1      23.651   8.354  49.814  1.00  0.00     0.203 C 
ENDBRANCH  12  23
BRANCH   1  25
HETATM   25  O1  UNL     1      23.774   2.311  52.157  1.00  0.00     0.000 OA
HETATM   26  C7  UNL     1      24.753   1.370  52.308  1.00  0.00    -0.006 A 
HETATM   27  C2  UNL     1      25.755   0.356  52.506  1.00  0.00     0.035 C 
HETATM   28  C6  UNL     1      23.670   1.248  53.136  1.00  0.00     0.052 A 
HETATM   29  C3  UNL     1      25.400  -0.608  53.398  1.00  0.00     0.030 C 
HETATM   30  C4  UNL     1      24.015  -0.792  54.010  1.00  0.00     0.011 C 
HETATM   31  C5  UNL     1      23.264  -0.006  53.261  1.00  0.00    -0.034 C 
BRANCH  27  32
HETATM   32  N1  UNL     1      26.640   1.049  51.643  1.00  0.00    -0.394 N 
HETATM   33  C1  UNL     1      27.285   2.145  52.376  1.00  0.00     0.146 C 
HETATM   34  H4  UNL     1      26.797   0.821  50.608  1.00  0.00     0.159 HD
ENDBRANCH  27  32
ENDBRANCH   1  25
TORSDOF 7
ENDMDL
MODEL 6
REMARK VINA RESULT:      -8.3      3.220      7.515
REMARK  7 active torsions:
REMARK  status: ('A' for Active; 'I' for Inactive)
REMARK    1  A    between atoms: N1_2  and  C2_3 
REMARK    2  A    between atoms: O1_9  and  C8_10 
REMARK    3  A    between atoms: C17_21  and  C18_22 
REMARK    4  A    between atoms: C17_21  and  O3_31 
REMARK    5  A    between atoms: C18_22  and  C19_23 
REMARK    6  A    between atoms: C19_23  and  N4_24 
REMARK       I    between atoms: N4_24  and  C20_25 
REMARK    7  A    between atoms: C20_25  and  C21_27 
ROOT
HETATM    1  C8  UNL     1      19.075   0.274  51.959  1.00  0.00     0.434 A 
HETATM    2  N2  UNL     1      19.108  -0.577  52.976  1.00  0.00     0.219 N 
HETATM    3  C9  UNL     1      19.934  -1.118  53.861  1.00  0.00     0.452 A 
HETATM    4  N3  UNL     1      19.140  -0.576  52.984  1.00  0.00     0.219 N 
HETATM    5  C10 UNL     1      19.552   0.260  52.113  1.00  0.00     0.496 A 
HETATM    6  C11 UNL     1      20.087   1.134  51.227  1.00  0.00     0.118 A 
HETATM    7  C12 UNL     1      21.167   1.991  51.547  1.00  0.00     0.075 A 
HETATM    8  C13 UNL     1      22.417   1.373  52.200  1.00  0.00    -0.037 A 
HETATM    9  C14 UNL     1      22.503   0.387  53.069  1.00  0.00     0.006 C 
HETATM   10  C15 UNL     1      22.277  -0.656  53.954  1.00  0.00     0.001 C 
HETATM   11  C16 UNL     1      21.235  -1.396  54.390  1.00  0.00     0.054 C 
HETATM   12  C17 UNL     1      22.396   2.466  51.240  1.00  0.00     0.094 A 
ENDROOT
BRANCH  12  13
HETATM   13  C18 UNL     1      22.957   3.810  51.534  1.00  0.00     0.063 C 
BRANCH  13  14
HETATM   14  C19 UNL     1      24.135   3.834  52.438  1.00  0.00     0.125 C 
BRANCH  14  15
HETATM   15  N4  UNL     1      25.270   3.127  51.765  1.00  0.00    -0.371 N 
HETATM   16  C20 UNL     1      25.927   2.234  52.663  1.00  0.00     0.159 C 
HETATM   17  O2  UNL     1      25.260   2.486  53.762  1.00  0.00    -0.177 OA
HETATM   18  H16 UNL     1      25.882   2.939  50.899  1.00  0.00     0.161 HD
BRANCH  16  19
HETATM   19  C21 UNL     1      26.882   1.216  53.101  1.00  0.00     0.017 C 
HETATM   20  C22 UNL     1      26.810  -0.014  52.187  1.00  0.00     0.023 C 
HETATM   21  C23 UNL     1      28.293   1.721  53.230  1.00  0.00     0.023 C 
HETATM   22  C24 UNL     1      26.468   0.721  54.489  1.00  0.00     0.023 C 
ENDBRANCH  16  19
ENDBRANCH  14  15
ENDBRANCH  13  14
ENDBRANCH  12  13
BRANCH  12  23
HETATM   23  O3  UNL     1      22.999   1.906  49.980  1.00  0.00    -0.380 OA
HETATM   24  C25 UNL     1      22.828   2.775  48.954  1.00  0.00     0.203 C 
ENDBRANCH  12  23
BRANCH   1  25
HETATM   25  O1  UNL     1      17.970   0.646  51.204  1.00  0.00     0.000 OA
HETATM   26  C7  UNL     1      17.345   1.846  51.397  1.00  0.00    -0.006 A 
HETATM   27  C2  UNL     1      16.641   3.085  51.592  1.00  0.00     0.035 C 
HETATM   28  C6  UNL     1      16.529   0.780  51.129  1.00  0.00     0.052 A 
HETATM   29  C3  UNL     1      15.286   2.960  51.589  1.00  0.00     0.030 C 
HETATM   30  C4  UNL     1      14.511   1.646  51.601  1.00  0.00     0.011 C 
HETATM   31  C5  UNL     1      15.448   0.763  51.893  1.00  0.00    -0.034 C 
BRANCH  27  32
HETATM   32  N1  UNL     1      17.869   3.794  51.596  1.00  0.00    -0.394 N 
HETATM   33  C1  UNL     1      18.159   4.283  50.243  1.00  0.00     0.146 C 
HETATM   34  H4  UNL     1      18.498   3.931  52.451  1.00  0.00     0.159 HD
ENDBRANCH  27  32
ENDBRANCH   1  25
TORSDOF 7
ENDMDL
MODEL 7
REMARK VINA RESULT:      -8.3      2.519      5.236
REMARK  7 active torsions:
REMARK  status: ('A' for Active; 'I' for Inactive)
REMARK    1  A    between atoms: N1_2  and  C2_3 
REMARK    2  A    between atoms: O1_9  and  C8_10 
REMARK    3  A    between atoms: C17_21  and  C18_22 
REMARK    4  A    between atoms: C17_21  and  O3_31 
REMARK    5  A    between atoms: C18_22  and  C19_23 
REMARK    6  A    between atoms: C19_23  and  N4_24 
REMARK       I    between atoms: N4_24  and  C20_25 
REMARK    7  A    between atoms: C20_25  and  C21_27 
ROOT
HETATM    1  C8  UNL     1      21.918   1.976  51.382  1.00  0.00     0.434 A 
HETATM    2  N2  UNL     1      21.842   1.212  50.301  1.00  0.00     0.219 N 
HETATM    3  C9  UNL     1      21.911   1.261  48.978  1.00  0.00     0.452 A 
HETATM    4  N3  UNL     1      21.847   1.234  50.277  1.00  0.00     0.219 N 
HETATM    5  C10 UNL     1      21.984   2.282  50.991  1.00  0.00     0.496 A 
HETATM    6  C11 UNL     1      22.140   3.450  51.659  1.00  0.00     0.118 A 
HETATM    7  C12 UNL     1      22.985   4.491  51.205  1.00  0.00     0.075 A 
HETATM    8  C13 UNL     1      22.841   4.960  49.746  1.00  0.00    -0.037 A 
HETATM    9  C14 UNL     1      22.567   4.255  48.667  1.00  0.00     0.006 C 
HETATM   10  C15 UNL     1      22.266   3.273  47.736  1.00  0.00     0.001 C 
HETATM   11  C16 UNL     1      21.965   1.956  47.727  1.00  0.00     0.054 C 
HETATM   12  C17 UNL     1      23.144   5.798  50.895  1.00  0.00     0.094 A 
ENDROOT
BRANCH  12  13
HETATM   13  C18 UNL     1      24.381   6.616  50.993  1.00  0.00     0.063 C 
BRANCH  13  14
HETATM   14  C19 UNL     1      25.459   6.276  50.031  1.00  0.00     0.125 C 
BRANCH  14  15
HETATM   15  N4  UNL     1      26.469   7.380  50.032  1.00  0.00    -0.371 N 
HETATM   16  C20 UNL     1      27.402   7.228  48.963  1.00  0.00     0.159 C 
HETATM   17  O2  UNL     1      26.988   6.089  48.462  1.00  0.00    -0.177 OA
HETATM   18  H16 UNL     1      26.877   8.283  50.454  1.00  0.00     0.161 HD
BRANCH  16  19
HETATM   19  C21 UNL     1      28.528   7.565  48.092  1.00  0.00     0.017 C 
HETATM   20  C22 UNL     1      28.022   8.076  46.737  1.00  0.00     0.023 C 
HETATM   21  C23 UNL     1      29.508   8.525  48.709  1.00  0.00     0.023 C 
HETATM   22  C24 UNL     1      29.309   6.285  47.783  1.00  0.00     0.023 C 
ENDBRANCH  16  19
ENDBRANCH  14  15
ENDBRANCH  13  14
ENDBRANCH  12  13
BRANCH  12  23
HETATM   23  O3  UNL     1      21.925   6.656  51.101  1.00  0.00    -0.380 OA
HETATM   24  C25 UNL     1      21.919   7.679  50.213  1.00  0.00     0.203 C 
ENDBRANCH  12  23
BRANCH   1  25
HETATM   25  O1  UNL     1      21.799   1.578  52.709  1.00  0.00     0.000 OA
HETATM   26  C7  UNL     1      22.668   0.683  53.266  1.00  0.00    -0.006 A 
HETATM   27  C2  UNL     1      23.543  -0.281  53.879  1.00  0.00     0.035 C 
HETATM   28  C6  UNL     1      21.359   0.566  53.647  1.00  0.00     0.052 A 
HETATM   29  C3  UNL     1      22.900  -1.208  54.640  1.00  0.00     0.030 C 
HETATM   30  C4  UNL     1      21.390  -1.410  54.713  1.00  0.00     0.011 C 
HETATM   31  C5  UNL     1      20.954  -0.693  53.694  1.00  0.00    -0.034 C 
BRANCH  27  32
HETATM   32  N1  UNL     1      24.672   0.397  53.357  1.00  0.00    -0.394 N 
HETATM   33  C1  UNL     1      25.712  -0.578  53.005  1.00  0.00     0.146 C 
HETATM   34  H4  UNL     1      24.762   1.460  53.255  1.00  0.00     0.159 HD
ENDBRANCH  27  32
ENDBRANCH   1  25
TORSDOF 7
ENDMDL
MODEL 8
REMARK VINA RESULT:      -8.2      2.620      5.771
REMARK  7 active torsions:
REMARK  status: ('A' for Active; 'I' for Inactive)
REMARK    1  A    between atoms: N1_2  and  C2_3 
REMARK    2  A    between atoms: O1_9  and  C8_10 
REMARK    3  A    between atoms: C17_21  and  C18_22 
REMARK    4  A    between atoms: C17_21  and  O3_31 
REMARK    5  A    between atoms: C18_22  and  C19_23 
REMARK    6  A    between atoms: C19_23  and  N4_24 
REMARK       I    between atoms: N4_24  and  C20_25 
REMARK    7  A    between atoms: C20_25  and  C21_27 
ROOT
HETATM    1  C8  UNL     1      22.605   1.672  52.318  1.00  0.00     0.434 A 
HETATM    2  N2  UNL     1      23.528   0.938  52.923  1.00  0.00     0.219 N 
HETATM    3  C9  UNL     1      24.834   0.709  52.948  1.00  0.00     0.452 A 
HETATM    4  N3  UNL     1      23.555   0.948  52.908  1.00  0.00     0.219 N 
HETATM    5  C10 UNL     1      23.043   1.802  52.111  1.00  0.00     0.496 A 
HETATM    6  C11 UNL     1      22.596   2.726  51.228  1.00  0.00     0.118 A 
HETATM    7  C12 UNL     1      23.348   3.870  50.863  1.00  0.00     0.075 A 
HETATM    8  C13 UNL     1      24.809   3.670  50.424  1.00  0.00    -0.037 A 
HETATM    9  C14 UNL     1      25.703   2.810  50.868  1.00  0.00     0.006 C 
HETATM   10  C15 UNL     1      26.406   1.809  51.522  1.00  0.00     0.001 C 
HETATM   11  C16 UNL     1      26.163   0.841  52.432  1.00  0.00     0.054 C 
HETATM   12  C17 UNL     1      23.873   4.644  49.886  1.00  0.00     0.094 A 
ENDROOT
BRANCH  12  13
HETATM   13  C18 UNL     1      24.125   6.108  49.916  1.00  0.00     0.063 C 
BRANCH  13  14
HETATM   14  C19 UNL     1      25.547   6.516  50.047  1.00  0.00     0.125 C 
BRANCH  14  15
HETATM   15  N4  UNL     1      26.265   6.163  48.782  1.00  0.00    -0.371 N 
HETATM   16  C20 UNL     1      27.356   7.052  48.542  1.00  0.00     0.159 C 
HETATM   17  O2  UNL     1      27.202   7.876  49.549  1.00  0.00    -0.177 OA
HETATM   18  H16 UNL     1      26.385   5.546  47.908  1.00  0.00     0.161 HD
BRANCH  16  19
HETATM   19  C21 UNL     1      28.530   7.599  47.864  1.00  0.00     0.017 C 
HETATM   20  C22 UNL     1      29.093   8.792  48.646  1.00  0.00     0.023 C 
HETATM   21  C23 UNL     1      29.598   6.578  47.578  1.00  0.00     0.023 C 
HETATM   22  C24 UNL     1      28.095   8.163  46.509  1.00  0.00     0.023 C 
ENDBRANCH  16  19
ENDBRANCH  14  15
ENDBRANCH  13  14
ENDBRANCH  12  13
BRANCH  12  23
HETATM   23  O3  UNL     1      23.579   4.187  48.483  1.00  0.00    -0.380 OA
HETATM   24  C25 UNL     1      22.744   5.064  47.872  1.00  0.00     0.203 C 
ENDBRANCH  12  23
BRANCH   1  25
HETATM   25  O1  UNL     1      21.235   1.670  52.551  1.00  0.00     0.000 OA
HETATM   26  C7  UNL     1      20.613   0.603  53.135  1.00  0.00    -0.006 A 
HETATM   27  C2  UNL     1      19.916  -0.513  53.717  1.00  0.00     0.035 C 
HETATM   28  C6  UNL     1      19.924   1.223  52.128  1.00  0.00     0.052 A 
HETATM   29  C3  UNL     1      18.749  -0.826  53.091  1.00  0.00     0.030 C 
HETATM   30  C4  UNL     1      18.261  -0.244  51.768  1.00  0.00     0.011 C 
HETATM   31  C5  UNL     1      19.339   0.365  51.308  1.00  0.00    -0.034 C 
BRANCH  27  32
HETATM   32  N1  UNL     1      20.891  -0.600  54.742  1.00  0.00    -0.394 N 
HETATM   33  C1  UNL     1      21.755  -1.762  54.502  1.00  0.00     0.146 C 
HETATM   34  H4  UNL     1      20.971   0.067  55.576  1.00  0.00     0.159 HD
ENDBRANCH  27  32
ENDBRANCH   1  25
TORSDOF 7
ENDMDL
MODEL 9
REMARK VINA RESULT:      -8.0      5.937      8.995
REMARK  7 active torsions:
REMARK  status: ('A' for Active; 'I' for Inactive)
REMARK    1  A    between atoms: N1_2  and  C2_3 
REMARK    2  A    between atoms: O1_9  and  C8_10 
REMARK    3  A    between atoms: C17_21  and  C18_22 
REMARK    4  A    between atoms: C17_21  and  O3_31 
REMARK    5  A    between atoms: C18_22  and  C19_23 
REMARK    6  A    between atoms: C19_23  and  N4_24 
REMARK       I    between atoms: N4_24  and  C20_25 
REMARK    7  A    between atoms: C20_25  and  C21_27 
ROOT
HETATM    1  C8  UNL     1      30.958   6.326  48.556  1.00  0.00     0.434 A 
HETATM    2  N2  UNL     1      31.685   7.282  49.118  1.00  0.00     0.219 N 
HETATM    3  C9  UNL     1      31.609   8.525  49.572  1.00  0.00     0.452 A 
HETATM    4  N3  UNL     1      31.663   7.306  49.120  1.00  0.00     0.219 N 
HETATM    5  C10 UNL     1      30.649   6.716  48.619  1.00  0.00     0.496 A 
HETATM    6  C11 UNL     1      29.518   6.179  48.104  1.00  0.00     0.118 A 
HETATM    7  C12 UNL     1      28.225   6.494  48.587  1.00  0.00     0.075 A 
HETATM    8  C13 UNL     1      27.848   7.979  48.739  1.00  0.00    -0.037 A 
HETATM    9  C14 UNL     1      28.600   8.997  49.105  1.00  0.00     0.006 C 
HETATM   10  C15 UNL     1      29.619   9.848  49.506  1.00  0.00     0.001 C 
HETATM   11  C16 UNL     1      30.946   9.783  49.746  1.00  0.00     0.054 C 
HETATM   12  C17 UNL     1      26.962   6.902  48.327  1.00  0.00     0.094 A 
ENDROOT
BRANCH  12  13
HETATM   13  C18 UNL     1      25.719   6.553  49.062  1.00  0.00     0.063 C 
BRANCH  13  14
HETATM   14  C19 UNL     1      25.415   5.103  49.167  1.00  0.00     0.125 C 
BRANCH  14  15
HETATM   15  N4  UNL     1      25.896   4.607  50.495  1.00  0.00    -0.371 N 
HETATM   16  C20 UNL     1      25.185   3.437  50.897  1.00  0.00     0.159 C 
HETATM   17  O2  UNL     1      24.329   3.342  49.910  1.00  0.00    -0.177 OA
HETATM   18  H16 UNL     1      26.541   4.689  51.354  1.00  0.00     0.161 HD
BRANCH  16  19
HETATM   19  C21 UNL     1      24.833   2.288  51.731  1.00  0.00     0.017 C 
HETATM   20  C22 UNL     1      23.533   1.644  51.235  1.00  0.00     0.023 C 
HETATM   21  C23 UNL     1      25.934   1.271  51.860  1.00  0.00     0.023 C 
HETATM   22  C24 UNL     1      24.532   2.785  53.147  1.00  0.00     0.023 C 
ENDBRANCH  16  19
ENDBRANCH  14  15
ENDBRANCH  13  14
ENDBRANCH  12  13
BRANCH  12  23
HETATM   23  O3  UNL     1      26.662   7.161  46.875  1.00  0.00    -0.380 OA
HETATM   24  C25 UNL     1      25.691   8.100  46.759  1.00  0.00     0.203 C 
ENDBRANCH  12  23
BRANCH   1  25
HETATM   25  O1  UNL     1      31.374   5.052  48.190  1.00  0.00     0.000 OA
HETATM   26  C7  UNL     1      32.698   4.739  48.076  1.00  0.00    -0.006 A 
HETATM   27  C2  UNL     1      34.082   4.379  47.915  1.00  0.00     0.035 C 
HETATM   28  C6  UNL     1      31.868   4.181  47.143  1.00  0.00     0.052 A 
HETATM   29  C3  UNL     1      34.338   3.642  46.799  1.00  0.00     0.030 C 
HETATM   30  C4  UNL     1      33.353   3.366  45.668  1.00  0.00     0.011 C 
HETATM   31  C5  UNL     1      32.377   4.218  45.922  1.00  0.00    -0.034 C 
BRANCH  27  32
HETATM   32  N1  UNL     1      34.395   4.984  49.158  1.00  0.00    -0.394 N 
HETATM   33  C1  UNL     1      35.388   6.045  48.952  1.00  0.00     0.146 C 
HETATM   34  H4  UNL     1      33.986   4.695  50.104  1.00  0.00     0.159 HD
ENDBRANCH  27  32
ENDBRANCH   1  25
TORSDOF 7
ENDMDL
