MODEL 1
REMARK VINA RESULT:      -7.6      0.000      0.000
REMARK  9 active torsions:
REMARK  status: ('A' for Active; 'I' for Inactive)
REMARK    1  A    between atoms: C2_2  and  C3_5 
REMARK    2  A    between atoms: C3_5  and  C4_7 
REMARK    3  A    between atoms: C5_8  and  C6_9 
REMARK    4  A    between atoms: C7_10  and  N1_11 
REMARK    5  A    between atoms: N1_11  and  C8_12 
REMARK    6  A    between atoms: C8_12  and  C9_13 
REMARK    7  A    between atoms: C14_18  and  N2_19 
REMARK    8  A    between atoms: N2_19  and  C15_20 
REMARK    9  A    between atoms: C15_20  and  C16_21 
ROOT
HETATM    1  C9  UNL     1      24.422   4.099  50.923  1.00  0.00    -0.014 A 
HETATM    2  C10 UNL     1      24.572   5.236  50.170  1.00  0.00     0.011 A 
HETATM    3  C11 UNL     1      25.594   5.473  49.282  1.00  0.00     0.001 A 
HETATM    4  C12 UNL     1      26.557   4.493  49.123  1.00  0.00     0.002 A 
HETATM    5  C13 UNL     1      26.437   3.344  49.859  1.00  0.00     0.030 A 
HETATM    6  C14 UNL     1      25.400   3.113  50.755  1.00  0.00     0.036 A 
ENDROOT
BRANCH   1   7
HETATM    7  C8  UNL     1      23.328   3.824  51.885  1.00  0.00     0.160 C 
BRANCH   7   8
HETATM    8  N1  UNL     1      22.113   3.486  51.200  1.00  0.00    -0.395 N 
HETATM    9  H9  UNL     1      21.705   3.309  50.265  1.00  0.00     0.159 HD
BRANCH   8  10
HETATM   10  C7  UNL     1      21.105   3.350  52.211  1.00  0.00     0.083 C 
HETATM   11  C6  UNL     1      20.620   2.127  52.416  1.00  0.00     0.016 C 
BRANCH  11  12
HETATM   12  C5  UNL     1      21.107   0.997  51.634  1.00  0.00     0.000 C 
HETATM   13  C4  UNL     1      21.966   0.117  52.120  1.00  0.00     0.016 C 
BRANCH  13  14
HETATM   14  C3  UNL     1      22.536   0.141  53.468  1.00  0.00     0.264 C 
HETATM   15  F3  UNL     1      23.845  -0.334  53.483  1.00  0.00    -0.239 F 
BRANCH  14  16
HETATM   16  C2  UNL     1      21.780  -0.683  54.480  1.00  0.00     0.273 C 
HETATM   17  C1  UNL     1      22.782  -1.390  55.374  1.00  0.00     0.093 C 
HETATM   18  F1  UNL     1      21.064   0.233  55.261  1.00  0.00    -0.203 F 
HETATM   19  F2  UNL     1      20.896  -1.570  53.941  1.00  0.00    -0.203 F 
ENDBRANCH  14  16
ENDBRANCH  13  14
ENDBRANCH  11  12
ENDBRANCH   8  10
ENDBRANCH   7   8
ENDBRANCH   1   7
BRANCH   6  20
HETATM   20  N2  UNL     1      25.398   1.878  51.441  1.00  0.00    -0.385 N 
HETATM   21  H16 UNL     1      24.433   1.672  51.852  1.00  0.00     0.160 HD
BRANCH  20  22
HETATM   22  C15 UNL     1      26.315   0.808  51.758  1.00  0.00     0.158 C 
BRANCH  22  23
HETATM   23  C16 UNL     1      27.317   1.139  52.782  1.00  0.00    -0.038 A 
HETATM   24  C17 UNL     1      28.139   2.218  53.020  1.00  0.00     0.028 A 
HETATM   25  C18 UNL     1      28.979   2.231  54.110  1.00  0.00     0.116 A 
HETATM   26  N3  UNL     1      29.051   1.224  54.985  1.00  0.00    -0.273 NA
HETATM   27  C19 UNL     1      28.281   0.158  54.804  1.00  0.00     0.116 A 
HETATM   28  C20 UNL     1      27.415   0.098  53.717  1.00  0.00     0.028 A 
ENDBRANCH  22  23
ENDBRANCH  20  22
ENDBRANCH   6  20
TORSDOF 9
ENDMDL
MODEL 2
REMARK VINA RESULT:      -7.5      3.062      5.856
REMARK  9 active torsions:
REMARK  status: ('A' for Active; 'I' for Inactive)
REMARK    1  A    between atoms: C2_2  and  C3_5 
REMARK    2  A    between atoms: C3_5  and  C4_7 
REMARK    3  A    between atoms: C5_8  and  C6_9 
REMARK    4  A    between atoms: C7_10  and  N1_11 
REMARK    5  A    between atoms: N1_11  and  C8_12 
REMARK    6  A    between atoms: C8_12  and  C9_13 
REMARK    7  A    between atoms: C14_18  and  N2_19 
REMARK    8  A    between atoms: N2_19  and  C15_20 
REMARK    9  A    between atoms: C15_20  and  C16_21 
ROOT
HETATM    1  C9  UNL     1      22.831   1.362  51.127  1.00  0.00    -0.014 A 
HETATM    2  C10 UNL     1      21.694   0.736  50.681  1.00  0.00     0.011 A 
HETATM    3  C11 UNL     1      21.092   0.952  49.464  1.00  0.00     0.001 A 
HETATM    4  C12 UNL     1      21.669   1.872  48.608  1.00  0.00     0.002 A 
HETATM    5  C13 UNL     1      22.806   2.515  49.021  1.00  0.00     0.030 A 
HETATM    6  C14 UNL     1      23.408   2.290  50.254  1.00  0.00     0.036 A 
ENDROOT
BRANCH   1   7
HETATM    7  C8  UNL     1      23.495   1.144  52.434  1.00  0.00     0.160 C 
BRANCH   7   8
HETATM    8  N1  UNL     1      23.560  -0.253  52.751  1.00  0.00    -0.395 N 
HETATM    9  H9  UNL     1      23.352  -1.201  52.390  1.00  0.00     0.159 HD
BRANCH   8  10
HETATM   10  C7  UNL     1      24.130  -0.342  54.064  1.00  0.00     0.083 C 
HETATM   11  C6  UNL     1      25.420  -0.667  54.141  1.00  0.00     0.016 C 
BRANCH  11  12
HETATM   12  C5  UNL     1      26.192  -0.917  52.929  1.00  0.00     0.000 C 
HETATM   13  C4  UNL     1      27.239  -0.184  52.592  1.00  0.00     0.016 C 
BRANCH  13  14
HETATM   14  C3  UNL     1      27.764   0.949  53.358  1.00  0.00     0.264 C 
HETATM   15  F3  UNL     1      28.238   1.959  52.523  1.00  0.00    -0.239 F 
BRANCH  14  16
HETATM   16  C2  UNL     1      28.903   0.602  54.284  1.00  0.00     0.273 C 
HETATM   17  C1  UNL     1      29.900  -0.253  53.525  1.00  0.00     0.093 C 
HETATM   18  F1  UNL     1      29.519   1.818  54.603  1.00  0.00    -0.203 F 
HETATM   19  F2  UNL     1      28.524  -0.003  55.445  1.00  0.00    -0.203 F 
ENDBRANCH  14  16
ENDBRANCH  13  14
ENDBRANCH  11  12
ENDBRANCH   8  10
ENDBRANCH   7   8
ENDBRANCH   1   7
BRANCH   6  20
HETATM   20  N2  UNL     1      24.583   3.019  50.544  1.00  0.00    -0.385 N 
HETATM   21  H16 UNL     1      24.385   3.796  51.251  1.00  0.00     0.160 HD
BRANCH  20  22
HETATM   22  C15 UNL     1      25.978   3.029  50.168  1.00  0.00     0.158 C 
BRANCH  22  23
HETATM   23  C16 UNL     1      26.418   4.247  49.472  1.00  0.00    -0.038 A 
HETATM   24  C17 UNL     1      27.593   4.653  48.879  1.00  0.00     0.028 A 
HETATM   25  C18 UNL     1      27.683   5.887  48.278  1.00  0.00     0.116 A 
HETATM   26  N3  UNL     1      26.664   6.751  48.233  1.00  0.00    -0.273 NA
HETATM   27  C19 UNL     1      25.508   6.412  48.790  1.00  0.00     0.116 A 
HETATM   28  C20 UNL     1      25.368   5.175  49.409  1.00  0.00     0.028 A 
ENDBRANCH  22  23
ENDBRANCH  20  22
ENDBRANCH   6  20
TORSDOF 9
ENDMDL
MODEL 3
REMARK VINA RESULT:      -7.5      3.060      5.840
REMARK  9 active torsions:
REMARK  status: ('A' for Active; 'I' for Inactive)
REMARK    1  A    between atoms: C2_2  and  C3_5 
REMARK    2  A    between atoms: C3_5  and  C4_7 
REMARK    3  A    between atoms: C5_8  and  C6_9 
REMARK    4  A    between atoms: C7_10  and  N1_11 
REMARK    5  A    between atoms: N1_11  and  C8_12 
REMARK    6  A    between atoms: C8_12  and  C9_13 
REMARK    7  A    between atoms: C14_18  and  N2_19 
REMARK    8  A    between atoms: N2_19  and  C15_20 
REMARK    9  A    between atoms: C15_20  and  C16_21 
ROOT
HETATM    1  C9  UNL     1      22.739   0.478  52.762  1.00  0.00    -0.014 A 
HETATM    2  C10 UNL     1      21.367   0.471  52.791  1.00  0.00     0.011 A 
HETATM    3  C11 UNL     1      20.593  -0.260  53.661  1.00  0.00     0.001 A 
HETATM    4  C12 UNL     1      21.237  -1.058  54.590  1.00  0.00     0.002 A 
HETATM    5  C13 UNL     1      22.607  -1.074  54.589  1.00  0.00     0.030 A 
HETATM    6  C14 UNL     1      23.381  -0.331  53.706  1.00  0.00     0.036 A 
ENDROOT
BRANCH   1   7
HETATM    7  C8  UNL     1      23.591   1.259  51.834  1.00  0.00     0.160 C 
BRANCH   7   8
HETATM    8  N1  UNL     1      23.107   2.602  51.698  1.00  0.00    -0.395 N 
HETATM    9  H9  UNL     1      22.503   3.217  51.123  1.00  0.00     0.159 HD
BRANCH   8  10
HETATM   10  C7  UNL     1      23.694   3.353  52.770  1.00  0.00     0.083 C 
HETATM   11  C6  UNL     1      23.629   4.680  52.682  1.00  0.00     0.016 C 
BRANCH  11  12
HETATM   12  C5  UNL     1      22.986   5.315  51.537  1.00  0.00     0.000 C 
HETATM   13  C4  UNL     1      23.673   5.804  50.520  1.00  0.00     0.016 C 
BRANCH  13  14
HETATM   14  C3  UNL     1      25.132   5.783  50.392  1.00  0.00     0.264 C 
HETATM   15  F3  UNL     1      25.641   7.044  50.087  1.00  0.00    -0.239 F 
BRANCH  14  16
HETATM   16  C2  UNL     1      25.652   4.853  49.324  1.00  0.00     0.273 C 
HETATM   17  C1  UNL     1      26.224   3.618  49.996  1.00  0.00     0.093 C 
HETATM   18  F1  UNL     1      24.534   4.468  48.575  1.00  0.00    -0.203 F 
HETATM   19  F2  UNL     1      26.562   5.415  48.478  1.00  0.00    -0.203 F 
ENDBRANCH  14  16
ENDBRANCH  13  14
ENDBRANCH  11  12
ENDBRANCH   8  10
ENDBRANCH   7   8
ENDBRANCH   1   7
BRANCH   6  20
HETATM   20  N2  UNL     1      24.784  -0.438  53.825  1.00  0.00    -0.385 N 
HETATM   21  H16 UNL     1      25.235  -0.626  52.873  1.00  0.00     0.160 HD
BRANCH  20  22
HETATM   22  C15 UNL     1      25.798  -0.371  54.853  1.00  0.00     0.158 C 
BRANCH  22  23
HETATM   23  C16 UNL     1      27.028   0.332  54.459  1.00  0.00    -0.038 A 
HETATM   24  C17 UNL     1      28.373   0.126  54.674  1.00  0.00     0.028 A 
HETATM   25  C18 UNL     1      29.306   0.984  54.139  1.00  0.00     0.116 A 
HETATM   26  N3  UNL     1      28.978   2.045  53.397  1.00  0.00    -0.273 NA
HETATM   27  C19 UNL     1      27.696   2.292  53.158  1.00  0.00     0.116 A 
HETATM   28  C20 UNL     1      26.715   1.454  53.677  1.00  0.00     0.028 A 
ENDBRANCH  22  23
ENDBRANCH  20  22
ENDBRANCH   6  20
TORSDOF 9
ENDMDL
MODEL 4
REMARK VINA RESULT:      -7.5      2.711      4.919
REMARK  9 active torsions:
REMARK  status: ('A' for Active; 'I' for Inactive)
REMARK    1  A    between atoms: C2_2  and  C3_5 
REMARK    2  A    between atoms: C3_5  and  C4_7 
REMARK    3  A    between atoms: C5_8  and  C6_9 
REMARK    4  A    between atoms: C7_10  and  N1_11 
REMARK    5  A    between atoms: N1_11  and  C8_12 
REMARK    6  A    between atoms: C8_12  and  C9_13 
REMARK    7  A    between atoms: C14_18  and  N2_19 
REMARK    8  A    between atoms: N2_19  and  C15_20 
REMARK    9  A    between atoms: C15_20  and  C16_21 
ROOT
HETATM    1  C9  UNL     1      23.528   1.711  53.088  1.00  0.00    -0.014 A 
HETATM    2  C10 UNL     1      22.202   2.004  52.896  1.00  0.00     0.011 A 
HETATM    3  C11 UNL     1      21.183   1.083  52.839  1.00  0.00     0.001 A 
HETATM    4  C12 UNL     1      21.507  -0.254  52.987  1.00  0.00     0.002 A 
HETATM    5  C13 UNL     1      22.823  -0.582  53.181  1.00  0.00     0.030 A 
HETATM    6  C14 UNL     1      23.847   0.356  53.237  1.00  0.00     0.036 A 
ENDROOT
BRANCH   1   7
HETATM    7  C8  UNL     1      24.641   2.688  53.153  1.00  0.00     0.160 C 
BRANCH   7   8
HETATM    8  N1  UNL     1      24.618   3.570  52.022  1.00  0.00    -0.395 N 
HETATM    9  H9  UNL     1      24.224   4.459  51.666  1.00  0.00     0.159 HD
BRANCH   8  10
HETATM   10  C7  UNL     1      25.463   2.974  51.028  1.00  0.00     0.083 C 
HETATM   11  C6  UNL     1      25.251   3.334  49.763  1.00  0.00     0.016 C 
BRANCH  11  12
HETATM   12  C5  UNL     1      24.202   4.291  49.432  1.00  0.00     0.000 C 
HETATM   13  C4  UNL     1      23.158   3.969  48.688  1.00  0.00     0.016 C 
BRANCH  13  14
HETATM   14  C3  UNL     1      22.906   2.650  48.104  1.00  0.00     0.264 C 
HETATM   15  F3  UNL     1      22.249   2.745  46.880  1.00  0.00    -0.239 F 
BRANCH  14  16
HETATM   16  C2  UNL     1      22.064   1.738  48.961  1.00  0.00     0.273 C 
HETATM   17  C1  UNL     1      20.841   2.506  49.427  1.00  0.00     0.093 C 
HETATM   18  F1  UNL     1      21.640   0.704  48.118  1.00  0.00    -0.203 F 
HETATM   19  F2  UNL     1      22.725   1.185  50.018  1.00  0.00    -0.203 F 
ENDBRANCH  14  16
ENDBRANCH  13  14
ENDBRANCH  11  12
ENDBRANCH   8  10
ENDBRANCH   7   8
ENDBRANCH   1   7
BRANCH   6  20
HETATM   20  N2  UNL     1      25.157  -0.125  53.451  1.00  0.00    -0.385 N 
HETATM   21  H16 UNL     1      25.602   0.346  54.302  1.00  0.00     0.160 HD
BRANCH  20  22
HETATM   22  C15 UNL     1      26.081  -1.065  52.860  1.00  0.00     0.158 C 
BRANCH  22  23
HETATM   23  C16 UNL     1      27.500  -0.781  53.124  1.00  0.00    -0.038 A 
HETATM   24  C17 UNL     1      28.643  -1.547  53.206  1.00  0.00     0.028 A 
HETATM   25  C18 UNL     1      29.861  -0.961  53.459  1.00  0.00     0.116 A 
HETATM   26  N3  UNL     1      30.012   0.355  53.640  1.00  0.00    -0.273 NA
HETATM   27  C19 UNL     1      28.944   1.141  53.572  1.00  0.00     0.116 A 
HETATM   28  C20 UNL     1      27.691   0.595  53.318  1.00  0.00     0.028 A 
ENDBRANCH  22  23
ENDBRANCH  20  22
ENDBRANCH   6  20
TORSDOF 9
ENDMDL
MODEL 5
REMARK VINA RESULT:      -7.5      3.259      6.089
REMARK  9 active torsions:
REMARK  status: ('A' for Active; 'I' for Inactive)
REMARK    1  A    between atoms: C2_2  and  C3_5 
REMARK    2  A    between atoms: C3_5  and  C4_7 
REMARK    3  A    between atoms: C5_8  and  C6_9 
REMARK    4  A    between atoms: C7_10  and  N1_11 
REMARK    5  A    between atoms: N1_11  and  C8_12 
REMARK    6  A    between atoms: C8_12  and  C9_13 
REMARK    7  A    between atoms: C14_18  and  N2_19 
REMARK    8  A    between atoms: N2_19  and  C15_20 
REMARK    9  A    between atoms: C15_20  and  C16_21 
ROOT
HETATM    1  C9  UNL     1      22.267   0.280  52.328  1.00  0.00    -0.014 A 
HETATM    2  C10 UNL     1      21.116  -0.120  52.957  1.00  0.00     0.011 A 
HETATM    3  C11 UNL     1      21.052  -0.735  54.186  1.00  0.00     0.001 A 
HETATM    4  C12 UNL     1      22.239  -0.976  54.854  1.00  0.00     0.002 A 
HETATM    5  C13 UNL     1      23.409  -0.588  54.254  1.00  0.00     0.030 A 
HETATM    6  C14 UNL     1      23.463   0.033  53.012  1.00  0.00     0.036 A 
ENDROOT
BRANCH   1   7
HETATM    7  C8  UNL     1      22.358   0.944  51.007  1.00  0.00     0.160 C 
BRANCH   7   8
HETATM    8  N1  UNL     1      22.632   2.344  51.152  1.00  0.00    -0.395 N 
HETATM    9  H9  UNL     1      22.787   3.096  51.847  1.00  0.00     0.159 HD
BRANCH   8  10
HETATM   10  C7  UNL     1      22.718   2.878  49.824  1.00  0.00     0.083 C 
HETATM   11  C6  UNL     1      23.911   3.321  49.429  1.00  0.00     0.016 C 
BRANCH  11  12
HETATM   12  C5  UNL     1      25.059   3.255  50.326  1.00  0.00     0.000 C 
HETATM   13  C4  UNL     1      26.179   3.917  50.095  1.00  0.00     0.016 C 
BRANCH  13  14
HETATM   14  C3  UNL     1      26.428   4.788  48.944  1.00  0.00     0.264 C 
HETATM   15  F3  UNL     1      27.739   4.672  48.485  1.00  0.00    -0.239 F 
BRANCH  14  16
HETATM   16  C2  UNL     1      26.206   6.255  49.211  1.00  0.00     0.273 C 
HETATM   17  C1  UNL     1      25.134   6.762  48.264  1.00  0.00     0.093 C 
HETATM   18  F1  UNL     1      25.710   6.335  50.518  1.00  0.00    -0.203 F 
HETATM   19  F2  UNL     1      27.330   7.021  49.132  1.00  0.00    -0.203 F 
ENDBRANCH  14  16
ENDBRANCH  13  14
ENDBRANCH  11  12
ENDBRANCH   8  10
ENDBRANCH   7   8
ENDBRANCH   1   7
BRANCH   6  20
HETATM   20  N2  UNL     1      24.738   0.386  52.518  1.00  0.00    -0.385 N 
HETATM   21  H16 UNL     1      24.719   1.355  52.068  1.00  0.00     0.160 HD
BRANCH  20  22
HETATM   22  C15 UNL     1      26.067  -0.176  52.437  1.00  0.00     0.158 C 
BRANCH  22  23
HETATM   23  C16 UNL     1      27.121   0.646  53.052  1.00  0.00    -0.038 A 
HETATM   24  C17 UNL     1      27.597   1.923  52.848  1.00  0.00     0.028 A 
HETATM   25  C18 UNL     1      28.615   2.421  53.627  1.00  0.00     0.116 A 
HETATM   26  N3  UNL     1      29.195   1.719  54.605  1.00  0.00    -0.273 NA
HETATM   27  C19 UNL     1      28.776   0.482  54.844  1.00  0.00     0.116 A 
HETATM   28  C20 UNL     1      27.749  -0.066  54.084  1.00  0.00     0.028 A 
ENDBRANCH  22  23
ENDBRANCH  20  22
ENDBRANCH   6  20
TORSDOF 9
ENDMDL
MODEL 6
REMARK VINA RESULT:      -7.4      3.037      5.487
REMARK  9 active torsions:
REMARK  status: ('A' for Active; 'I' for Inactive)
REMARK    1  A    between atoms: C2_2  and  C3_5 
REMARK    2  A    between atoms: C3_5  and  C4_7 
REMARK    3  A    between atoms: C5_8  and  C6_9 
REMARK    4  A    between atoms: C7_10  and  N1_11 
REMARK    5  A    between atoms: N1_11  and  C8_12 
REMARK    6  A    between atoms: C8_12  and  C9_13 
REMARK    7  A    between atoms: C14_18  and  N2_19 
REMARK    8  A    between atoms: N2_19  and  C15_20 
REMARK    9  A    between atoms: C15_20  and  C16_21 
ROOT
HETATM    1  C9  UNL     1      22.607   3.613  50.224  1.00  0.00    -0.014 A 
HETATM    2  C10 UNL     1      23.241   3.494  49.013  1.00  0.00     0.011 A 
HETATM    3  C11 UNL     1      22.926   2.579  48.036  1.00  0.00     0.001 A 
HETATM    4  C12 UNL     1      21.885   1.701  48.280  1.00  0.00     0.002 A 
HETATM    5  C13 UNL     1      21.230   1.793  49.480  1.00  0.00     0.030 A 
HETATM    6  C14 UNL     1      21.555   2.721  50.461  1.00  0.00     0.036 A 
ENDROOT
BRANCH   1   7
HETATM    7  C8  UNL     1      22.930   4.591  51.289  1.00  0.00     0.160 C 
BRANCH   7   8
HETATM    8  N1  UNL     1      24.239   4.353  51.827  1.00  0.00    -0.395 N 
HETATM    9  H9  UNL     1      25.242   4.580  51.712  1.00  0.00     0.159 HD
BRANCH   8  10
HETATM   10  C7  UNL     1      24.061   3.464  52.939  1.00  0.00     0.083 C 
HETATM   11  C6  UNL     1      24.770   2.336  52.928  1.00  0.00     0.016 C 
BRANCH  11  12
HETATM   12  C5  UNL     1      25.676   2.043  51.824  1.00  0.00     0.000 C 
HETATM   13  C4  UNL     1      26.976   1.882  51.998  1.00  0.00     0.016 C 
BRANCH  13  14
HETATM   14  C3  UNL     1      27.679   1.969  53.280  1.00  0.00     0.264 C 
HETATM   15  F3  UNL     1      28.765   2.838  53.214  1.00  0.00    -0.239 F 
BRANCH  14  16
HETATM   16  C2  UNL     1      28.223   0.656  53.783  1.00  0.00     0.273 C 
HETATM   17  C1  UNL     1      27.325   0.156  54.900  1.00  0.00     0.093 C 
HETATM   18  F1  UNL     1      28.126  -0.236  52.708  1.00  0.00    -0.203 F 
HETATM   19  F2  UNL     1      29.525   0.700  54.187  1.00  0.00    -0.203 F 
ENDBRANCH  14  16
ENDBRANCH  13  14
ENDBRANCH  11  12
ENDBRANCH   8  10
ENDBRANCH   7   8
ENDBRANCH   1   7
BRANCH   6  20
HETATM   20  N2  UNL     1      20.788   2.708  51.647  1.00  0.00    -0.385 N 
HETATM   21  H16 UNL     1      20.600   3.702  51.991  1.00  0.00     0.160 HD
BRANCH  20  22
HETATM   22  C15 UNL     1      20.182   1.747  52.540  1.00  0.00     0.158 C 
BRANCH  22  23
HETATM   23  C16 UNL     1      21.089   0.694  53.019  1.00  0.00    -0.038 A 
HETATM   24  C17 UNL     1      22.100  -0.049  52.448  1.00  0.00     0.028 A 
HETATM   25  C18 UNL     1      22.793  -0.974  53.192  1.00  0.00     0.116 A 
HETATM   26  N3  UNL     1      22.540  -1.209  54.483  1.00  0.00    -0.273 NA
HETATM   27  C19 UNL     1      21.576  -0.523  55.084  1.00  0.00     0.116 A 
HETATM   28  C20 UNL     1      20.846   0.425  54.374  1.00  0.00     0.028 A 
ENDBRANCH  22  23
ENDBRANCH  20  22
ENDBRANCH   6  20
TORSDOF 9
ENDMDL
MODEL 7
REMARK VINA RESULT:      -7.3      3.651      7.462
REMARK  9 active torsions:
REMARK  status: ('A' for Active; 'I' for Inactive)
REMARK    1  A    between atoms: C2_2  and  C3_5 
REMARK    2  A    between atoms: C3_5  and  C4_7 
REMARK    3  A    between atoms: C5_8  and  C6_9 
REMARK    4  A    between atoms: C7_10  and  N1_11 
REMARK    5  A    between atoms: N1_11  and  C8_12 
REMARK    6  A    between atoms: C8_12  and  C9_13 
REMARK    7  A    between atoms: C14_18  and  N2_19 
REMARK    8  A    between atoms: N2_19  and  C15_20 
REMARK    9  A    between atoms: C15_20  and  C16_21 
ROOT
HETATM    1  C9  UNL     1      26.850   1.822  53.215  1.00  0.00    -0.014 A 
HETATM    2  C10 UNL     1      28.113   2.328  53.386  1.00  0.00     0.011 A 
HETATM    3  C11 UNL     1      29.113   1.738  54.124  1.00  0.00     0.001 A 
HETATM    4  C12 UNL     1      28.837   0.536  54.748  1.00  0.00     0.002 A 
HETATM    5  C13 UNL     1      27.584   0.002  54.598  1.00  0.00     0.030 A 
HETATM    6  C14 UNL     1      26.579   0.605  53.850  1.00  0.00     0.036 A 
ENDROOT
BRANCH   1   7
HETATM    7  C8  UNL     1      25.758   2.441  52.425  1.00  0.00     0.160 C 
BRANCH   7   8
HETATM    8  N1  UNL     1      26.284   3.335  51.435  1.00  0.00    -0.395 N 
HETATM    9  H9  UNL     1      27.109   3.906  51.180  1.00  0.00     0.159 HD
BRANCH   8  10
HETATM   10  C7  UNL     1      25.264   3.473  50.435  1.00  0.00     0.083 C 
HETATM   11  C6  UNL     1      25.634   3.994  49.266  1.00  0.00     0.016 C 
BRANCH  11  12
HETATM   12  C5  UNL     1      27.016   4.398  49.040  1.00  0.00     0.000 C 
HETATM   13  C4  UNL     1      27.345   5.621  48.663  1.00  0.00     0.016 C 
BRANCH  13  14
HETATM   14  C3  UNL     1      26.404   6.717  48.423  1.00  0.00     0.264 C 
HETATM   15  F3  UNL     1      26.726   7.429  47.270  1.00  0.00    -0.239 F 
BRANCH  14  16
HETATM   16  C2  UNL     1      26.333   7.733  49.536  1.00  0.00     0.273 C 
HETATM   17  C1  UNL     1      25.318   8.795  49.157  1.00  0.00     0.093 C 
HETATM   18  F1  UNL     1      25.851   7.042  50.654  1.00  0.00    -0.203 F 
HETATM   19  F2  UNL     1      27.530   8.297  49.864  1.00  0.00    -0.203 F 
ENDBRANCH  14  16
ENDBRANCH  13  14
ENDBRANCH  11  12
ENDBRANCH   8  10
ENDBRANCH   7   8
ENDBRANCH   1   7
BRANCH   6  20
HETATM   20  N2  UNL     1      25.337  -0.063  53.774  1.00  0.00    -0.385 N 
HETATM   21  H16 UNL     1      24.907   0.042  52.802  1.00  0.00     0.160 HD
BRANCH  20  22
HETATM   22  C15 UNL     1      24.469  -0.847  54.623  1.00  0.00     0.158 C 
BRANCH  22  23
HETATM   23  C16 UNL     1      23.046  -0.800  54.257  1.00  0.00    -0.038 A 
HETATM   24  C17 UNL     1      21.949  -1.588  54.528  1.00  0.00     0.028 A 
HETATM   25  C18 UNL     1      20.709  -1.255  54.036  1.00  0.00     0.116 A 
HETATM   26  N3  UNL     1      20.492  -0.173  53.281  1.00  0.00    -0.273 NA
HETATM   27  C19 UNL     1      21.514   0.622  52.988  1.00  0.00     0.116 A 
HETATM   28  C20 UNL     1      22.787   0.327  53.463  1.00  0.00     0.028 A 
ENDBRANCH  22  23
ENDBRANCH  20  22
ENDBRANCH   6  20
TORSDOF 9
ENDMDL
MODEL 8
REMARK VINA RESULT:      -7.2      2.163      5.146
REMARK  9 active torsions:
REMARK  status: ('A' for Active; 'I' for Inactive)
REMARK    1  A    between atoms: C2_2  and  C3_5 
REMARK    2  A    between atoms: C3_5  and  C4_7 
REMARK    3  A    between atoms: C5_8  and  C6_9 
REMARK    4  A    between atoms: C7_10  and  N1_11 
REMARK    5  A    between atoms: N1_11  and  C8_12 
REMARK    6  A    between atoms: C8_12  and  C9_13 
REMARK    7  A    between atoms: C14_18  and  N2_19 
REMARK    8  A    between atoms: N2_19  and  C15_20 
REMARK    9  A    between atoms: C15_20  and  C16_21 
ROOT
HETATM    1  C9  UNL     1      26.600   4.337  49.476  1.00  0.00    -0.014 A 
HETATM    2  C10 UNL     1      27.642   4.787  48.707  1.00  0.00     0.011 A 
HETATM    3  C11 UNL     1      27.749   6.049  48.171  1.00  0.00     0.001 A 
HETATM    4  C12 UNL     1      26.730   6.950  48.422  1.00  0.00     0.002 A 
HETATM    5  C13 UNL     1      25.673   6.533  49.188  1.00  0.00     0.030 A 
HETATM    6  C14 UNL     1      25.573   5.254  49.725  1.00  0.00     0.036 A 
ENDROOT
BRANCH   1   7
HETATM    7  C8  UNL     1      26.465   2.982  50.062  1.00  0.00     0.160 C 
BRANCH   7   8
HETATM    8  N1  UNL     1      26.878   2.973  51.436  1.00  0.00    -0.395 N 
HETATM    9  H9  UNL     1      27.225   3.571  52.207  1.00  0.00     0.159 HD
BRANCH   8  10
HETATM   10  C7  UNL     1      26.753   1.616  51.885  1.00  0.00     0.083 C 
HETATM   11  C6  UNL     1      25.702   1.329  52.650  1.00  0.00     0.016 C 
BRANCH  11  12
HETATM   12  C5  UNL     1      24.738   2.365  53.001  1.00  0.00     0.000 C 
HETATM   13  C4  UNL     1      23.433   2.182  52.904  1.00  0.00     0.016 C 
BRANCH  13  14
HETATM   14  C3  UNL     1      22.780   0.954  52.446  1.00  0.00     0.264 C 
HETATM   15  F3  UNL     1      22.819   0.835  51.058  1.00  0.00    -0.239 F 
BRANCH  14  16
HETATM   16  C2  UNL     1      21.327   0.837  52.835  1.00  0.00     0.273 C 
HETATM   17  C1  UNL     1      21.243   0.169  54.195  1.00  0.00     0.093 C 
HETATM   18  F1  UNL     1      20.858   2.150  52.960  1.00  0.00    -0.203 F 
HETATM   19  F2  UNL     1      20.548   0.188  51.923  1.00  0.00    -0.203 F 
ENDBRANCH  14  16
ENDBRANCH  13  14
ENDBRANCH  11  12
ENDBRANCH   8  10
ENDBRANCH   7   8
ENDBRANCH   1   7
BRANCH   6  20
HETATM   20  N2  UNL     1      24.431   4.965  50.503  1.00  0.00    -0.385 N 
HETATM   21  H16 UNL     1      24.706   4.697  51.501  1.00  0.00     0.160 HD
BRANCH  20  22
HETATM   22  C15 UNL     1      22.994   4.918  50.352  1.00  0.00     0.158 C 
BRANCH  22  23
HETATM   23  C16 UNL     1      22.497   3.790  49.550  1.00  0.00    -0.038 A 
HETATM   24  C17 UNL     1      23.034   2.988  48.567  1.00  0.00     0.028 A 
HETATM   25  C18 UNL     1      22.291   1.974  48.009  1.00  0.00     0.116 A 
HETATM   26  N3  UNL     1      21.033   1.708  48.372  1.00  0.00    -0.273 NA
HETATM   27  C19 UNL     1      20.464   2.451  49.314  1.00  0.00     0.116 A 
HETATM   28  C20 UNL     1      21.175   3.487  49.909  1.00  0.00     0.028 A 
ENDBRANCH  22  23
ENDBRANCH  20  22
ENDBRANCH   6  20
TORSDOF 9
ENDMDL
MODEL 9
REMARK VINA RESULT:      -7.2      2.475      6.029
REMARK  9 active torsions:
REMARK  status: ('A' for Active; 'I' for Inactive)
REMARK    1  A    between atoms: C2_2  and  C3_5 
REMARK    2  A    between atoms: C3_5  and  C4_7 
REMARK    3  A    between atoms: C5_8  and  C6_9 
REMARK    4  A    between atoms: C7_10  and  N1_11 
REMARK    5  A    between atoms: N1_11  and  C8_12 
REMARK    6  A    between atoms: C8_12  and  C9_13 
REMARK    7  A    between atoms: C14_18  and  N2_19 
REMARK    8  A    between atoms: N2_19  and  C15_20 
REMARK    9  A    between atoms: C15_20  and  C16_21 
ROOT
HETATM    1  C9  UNL     1      27.058   1.479  52.759  1.00  0.00    -0.014 A 
HETATM    2  C10 UNL     1      28.340   1.850  53.073  1.00  0.00     0.011 A 
HETATM    3  C11 UNL     1      29.076   1.357  54.125  1.00  0.00     0.001 A 
HETATM    4  C12 UNL     1      28.488   0.408  54.942  1.00  0.00     0.002 A 
HETATM    5  C13 UNL     1      27.207   0.014  54.656  1.00  0.00     0.030 A 
HETATM    6  C14 UNL     1      26.471   0.518  53.590  1.00  0.00     0.036 A 
ENDROOT
BRANCH   1   7
HETATM    7  C8  UNL     1      26.248   1.996  51.631  1.00  0.00     0.160 C 
BRANCH   7   8
HETATM    8  N1  UNL     1      26.717   3.284  51.209  1.00  0.00    -0.395 N 
HETATM    9  H9  UNL     1      27.125   4.174  51.545  1.00  0.00     0.159 HD
BRANCH   8  10
HETATM   10  C7  UNL     1      26.545   3.329  49.785  1.00  0.00     0.083 C 
HETATM   11  C6  UNL     1      25.851   4.354  49.294  1.00  0.00     0.016 C 
BRANCH  11  12
HETATM   12  C5  UNL     1      25.302   5.369  50.186  1.00  0.00     0.000 C 
HETATM   13  C4  UNL     1      24.007   5.470  50.432  1.00  0.00     0.016 C 
BRANCH  13  14
HETATM   14  C3  UNL     1      22.966   4.609  49.869  1.00  0.00     0.264 C 
HETATM   15  F3  UNL     1      21.804   5.323  49.584  1.00  0.00    -0.239 F 
BRANCH  14  16
HETATM   16  C2  UNL     1      22.547   3.470  50.764  1.00  0.00     0.273 C 
HETATM   17  C1  UNL     1      22.874   2.162  50.068  1.00  0.00     0.093 C 
HETATM   18  F1  UNL     1      23.346   3.570  51.910  1.00  0.00    -0.203 F 
HETATM   19  F2  UNL     1      21.239   3.504  51.150  1.00  0.00    -0.203 F 
ENDBRANCH  14  16
ENDBRANCH  13  14
ENDBRANCH  11  12
ENDBRANCH   8  10
ENDBRANCH   7   8
ENDBRANCH   1   7
BRANCH   6  20
HETATM   20  N2  UNL     1      25.164   0.014  53.409  1.00  0.00    -0.385 N 
HETATM   21  H16 UNL     1      24.780   0.285  52.449  1.00  0.00     0.160 HD
BRANCH  20  22
HETATM   22  C15 UNL     1      24.185  -0.760  54.138  1.00  0.00     0.158 C 
BRANCH  22  23
HETATM   23  C16 UNL     1      22.787  -0.380  53.883  1.00  0.00    -0.038 A 
HETATM   24  C17 UNL     1      22.165   0.736  53.368  1.00  0.00     0.028 A 
HETATM   25  C18 UNL     1      20.796   0.776  53.239  1.00  0.00     0.116 A 
HETATM   26  N3  UNL     1      20.001  -0.237  53.597  1.00  0.00    -0.273 NA
HETATM   27  C19 UNL     1      20.547  -1.337  54.100  1.00  0.00     0.116 A 
HETATM   28  C20 UNL     1      21.927  -1.425  54.250  1.00  0.00     0.028 A 
ENDBRANCH  22  23
ENDBRANCH  20  22
ENDBRANCH   6  20
TORSDOF 9
ENDMDL
