MODEL 1
REMARK VINA RESULT:     -10.0      0.000      0.000
REMARK  5 active torsions:
REMARK  status: ('A' for Active; 'I' for Inactive)
REMARK    1  A    between atoms: C6_7  and  C7_8 
REMARK    2  A    between atoms: C7_8  and  C8_9 
REMARK    3  A    between atoms: C8_9  and  N2_10 
REMARK    4  A    between atoms: C15_21  and  N5_22 
REMARK    5  A    between atoms: N5_22  and  C16_23 
ROOT
HETATM    1  N2  UNL     1      23.344   1.891  52.292  1.00  0.00    -0.314 N 
HETATM    2  C9  UNL     1      22.346   0.982  52.809  1.00  0.00     0.248 C 
HETATM    3  O1  UNL     1      22.697  -0.126  53.298  1.00  0.00    -0.271 OA
HETATM    4  C10 UNL     1      20.876   1.193  52.842  1.00  0.00     0.279 C 
HETATM    5  O2  UNL     1      20.589   2.531  52.574  1.00  0.00    -0.340 OA
HETATM    6  C11 UNL     1      21.483   3.446  52.076  1.00  0.00     0.098 A 
HETATM    7  C12 UNL     1      21.024   4.703  51.705  1.00  0.00     0.071 A 
HETATM    8  C13 UNL     1      21.945   5.600  51.208  1.00  0.00     0.075 A 
HETATM    9  N3  UNL     1      21.465   6.803  50.861  1.00  0.00    -0.241 NA
HETATM   10  C14 UNL     1      22.328   7.718  50.368  1.00  0.00     0.235 A 
HETATM   11  N4  UNL     1      23.649   7.446  50.221  1.00  0.00    -0.224 NA
HETATM   12  C15 UNL     1      24.146   6.253  50.561  1.00  0.00     0.138 A 
HETATM   13  C21 UNL     1      23.273   5.312  51.065  1.00  0.00     0.041 A 
HETATM   14  C22 UNL     1      23.738   4.065  51.430  1.00  0.00     0.050 A 
HETATM   15  C23 UNL     1      22.824   3.163  51.928  1.00  0.00     0.071 A 
ENDROOT
BRANCH   1  16
HETATM   16  C8  UNL     1      24.713   1.424  52.204  1.00  0.00     0.134 C 
BRANCH  16  17
HETATM   17  C7  UNL     1      25.446   1.952  53.410  1.00  0.00     0.056 C 
BRANCH  17  18
HETATM   18  C6  UNL     1      26.849   1.529  53.569  1.00  0.00     0.231 C 
HETATM   19  C2  UNL     1      27.116   0.409  54.499  1.00  0.00     0.000 C 
HETATM   20  C1  UNL     1      26.192  -0.096  55.295  1.00  0.00     0.013 C 
HETATM   21  C3  UNL     1      28.512  -0.117  54.486  1.00  0.00     0.014 C 
HETATM   22  C4  UNL     1      29.340   0.802  53.624  1.00  0.00     0.031 C 
HETATM   23  C5  UNL     1      29.059   2.253  53.823  1.00  0.00     0.270 C 
HETATM   24  N1  UNL     1      27.703   2.609  54.096  1.00  0.00     0.088 N 
HETATM   25  H9  UNL     1      27.614   2.625  55.155  1.00  0.00     0.316 HD
ENDBRANCH  17  18
ENDBRANCH  16  17
ENDBRANCH   1  16
BRANCH  12  26
HETATM   26  N5  UNL     1      25.534   6.023  50.388  1.00  0.00    -0.363 N 
HETATM   27  H19 UNL     1      26.293   6.039  51.100  1.00  0.00     0.162 HD
BRANCH  26  28
HETATM   28  C16 UNL     1      25.996   5.721  49.046  1.00  0.00     0.131 A 
HETATM   29  C17 UNL     1      26.905   4.521  49.064  1.00  0.00     0.004 A 
HETATM   30  C18 UNL     1      28.094   4.864  48.558  1.00  0.00     0.022 A 
HETATM   31  C19 UNL     1      28.060   6.270  48.179  1.00  0.00     0.032 A 
HETATM   32 CL1  UNL     1      29.455   7.086  47.469  1.00  0.00    -0.085 Cl
HETATM   33  C20 UNL     1      26.859   6.749  48.462  1.00  0.00     0.026 A 
ENDBRANCH  26  28
ENDBRANCH  12  26
TORSDOF 5
ENDMDL
MODEL 2
REMARK VINA RESULT:      -9.9      1.934      2.652
REMARK  5 active torsions:
REMARK  status: ('A' for Active; 'I' for Inactive)
REMARK    1  A    between atoms: C6_7  and  C7_8 
REMARK    2  A    between atoms: C7_8  and  C8_9 
REMARK    3  A    between atoms: C8_9  and  N2_10 
REMARK    4  A    between atoms: C15_21  and  N5_22 
REMARK    5  A    between atoms: N5_22  and  C16_23 
ROOT
HETATM    1  N2  UNL     1      24.012   0.704  53.352  1.00  0.00    -0.314 N 
HETATM    2  C9  UNL     1      23.669  -0.494  54.083  1.00  0.00     0.248 C 
HETATM    3  O1  UNL     1      24.497  -0.998  54.889  1.00  0.00    -0.271 OA
HETATM    4  C10 UNL     1      22.396  -1.256  54.004  1.00  0.00     0.279 C 
HETATM    5  O2  UNL     1      21.435  -0.491  53.342  1.00  0.00    -0.340 OA
HETATM    6  C11 UNL     1      21.690   0.649  52.624  1.00  0.00     0.098 A 
HETATM    7  C12 UNL     1      20.665   1.222  51.882  1.00  0.00     0.071 A 
HETATM    8  C13 UNL     1      20.952   2.368  51.171  1.00  0.00     0.075 A 
HETATM    9  N3  UNL     1      19.937   2.892  50.468  1.00  0.00    -0.241 NA
HETATM   10  C14 UNL     1      20.167   4.015  49.754  1.00  0.00     0.235 A 
HETATM   11  N4  UNL     1      21.386   4.612  49.736  1.00  0.00    -0.224 NA
HETATM   12  C15 UNL     1      22.408   4.104  50.431  1.00  0.00     0.138 A 
HETATM   13  C21 UNL     1      22.184   2.958  51.163  1.00  0.00     0.041 A 
HETATM   14  C22 UNL     1      23.209   2.396  51.896  1.00  0.00     0.050 A 
HETATM   15  C23 UNL     1      22.930   1.251  52.610  1.00  0.00     0.071 A 
ENDROOT
BRANCH   1  16
HETATM   16  C8  UNL     1      25.371   1.199  53.450  1.00  0.00     0.134 C 
BRANCH  16  17
HETATM   17  C7  UNL     1      26.209   0.404  52.482  1.00  0.00     0.056 C 
BRANCH  17  18
HETATM   18  C6  UNL     1      27.487  -0.125  52.993  1.00  0.00     0.231 C 
HETATM   19  C2  UNL     1      27.756  -1.564  52.778  1.00  0.00     0.000 C 
HETATM   20  C1  UNL     1      26.848  -2.401  52.312  1.00  0.00     0.013 C 
HETATM   21  C3  UNL     1      29.133  -2.018  53.133  1.00  0.00     0.014 C 
HETATM   22  C4  UNL     1      29.835  -0.869  53.811  1.00  0.00     0.031 C 
HETATM   23  C5  UNL     1      28.990  -0.120  54.785  1.00  0.00     0.270 C 
HETATM   24  N1  UNL     1      27.608   0.021  54.455  1.00  0.00     0.088 N 
HETATM   25  H9  UNL     1      27.113  -0.796  54.919  1.00  0.00     0.316 HD
ENDBRANCH  17  18
ENDBRANCH  16  17
ENDBRANCH   1  16
BRANCH  12  26
HETATM   26  N5  UNL     1      23.659   4.770  50.378  1.00  0.00    -0.363 N 
HETATM   27  H19 UNL     1      24.077   5.431  51.065  1.00  0.00     0.162 HD
BRANCH  26  28
HETATM   28  C16 UNL     1      24.499   4.519  49.221  1.00  0.00     0.131 A 
HETATM   29  C17 UNL     1      25.561   3.507  49.557  1.00  0.00     0.004 A 
HETATM   30  C18 UNL     1      26.765   4.046  49.341  1.00  0.00     0.022 A 
HETATM   31  C19 UNL     1      26.593   5.411  48.861  1.00  0.00     0.032 A 
HETATM   32 CL1  UNL     1      27.965   6.448  48.464  1.00  0.00    -0.085 Cl
HETATM   33  C20 UNL     1      25.296   5.671  48.797  1.00  0.00     0.026 A 
ENDBRANCH  26  28
ENDBRANCH  12  26
TORSDOF 5
ENDMDL
MODEL 3
REMARK VINA RESULT:      -9.8      2.533      6.434
REMARK  5 active torsions:
REMARK  status: ('A' for Active; 'I' for Inactive)
REMARK    1  A    between atoms: C6_7  and  C7_8 
REMARK    2  A    between atoms: C7_8  and  C8_9 
REMARK    3  A    between atoms: C8_9  and  N2_10 
REMARK    4  A    between atoms: C15_21  and  N5_22 
REMARK    5  A    between atoms: N5_22  and  C16_23 
ROOT
HETATM    1  N2  UNL     1      22.123   4.191  51.303  1.00  0.00    -0.314 N 
HETATM    2  C9  UNL     1      20.993   4.953  50.823  1.00  0.00     0.248 C 
HETATM    3  O1  UNL     1      21.181   6.032  50.198  1.00  0.00    -0.271 OA
HETATM    4  C10 UNL     1      19.555   4.614  50.979  1.00  0.00     0.279 C 
HETATM    5  O2  UNL     1      19.430   3.290  51.399  1.00  0.00    -0.340 OA
HETATM    6  C11 UNL     1      20.456   2.511  51.873  1.00  0.00     0.098 A 
HETATM    7  C12 UNL     1      20.163   1.264  52.408  1.00  0.00     0.071 A 
HETATM    8  C13 UNL     1      21.215   0.504  52.876  1.00  0.00     0.075 A 
HETATM    9  N3  UNL     1      20.893  -0.694  53.384  1.00  0.00    -0.241 NA
HETATM   10  C14 UNL     1      21.889  -1.476  53.856  1.00  0.00     0.235 A 
HETATM   11  N4  UNL     1      23.185  -1.077  53.825  1.00  0.00    -0.224 NA
HETATM   12  C15 UNL     1      23.525   0.114  53.322  1.00  0.00     0.138 A 
HETATM   13  C21 UNL     1      22.516   0.920  52.838  1.00  0.00     0.041 A 
HETATM   14  C22 UNL     1      22.817   2.158  52.310  1.00  0.00     0.050 A 
HETATM   15  C23 UNL     1      21.771   2.922  51.839  1.00  0.00     0.071 A 
ENDROOT
BRANCH   1  16
HETATM   16  C8  UNL     1      23.443   4.781  51.190  1.00  0.00     0.134 C 
BRANCH  16  17
HETATM   17  C7  UNL     1      24.045   4.289  49.899  1.00  0.00     0.056 C 
BRANCH  17  18
HETATM   18  C6  UNL     1      25.221   5.023  49.398  1.00  0.00     0.231 C 
HETATM   19  C2  UNL     1      26.483   4.262  49.261  1.00  0.00     0.000 C 
HETATM   20  C1  UNL     1      26.632   3.032  49.718  1.00  0.00     0.013 C 
HETATM   21  C3  UNL     1      27.594   4.982  48.571  1.00  0.00     0.014 C 
HETATM   22  C4  UNL     1      27.156   6.409  48.362  1.00  0.00     0.031 C 
HETATM   23  C5  UNL     1      26.446   7.012  49.527  1.00  0.00     0.270 C 
HETATM   24  N1  UNL     1      25.602   6.141  50.281  1.00  0.00     0.088 N 
HETATM   25  H9  UNL     1      26.206   5.761  51.067  1.00  0.00     0.316 HD
ENDBRANCH  17  18
ENDBRANCH  16  17
ENDBRANCH   1  16
BRANCH  12  26
HETATM   26  N5  UNL     1      24.894   0.479  53.313  1.00  0.00    -0.363 N 
HETATM   27  H19 UNL     1      25.343   1.321  52.898  1.00  0.00     0.162 HD
BRANCH  26  28
HETATM   28  C16 UNL     1      25.828  -0.422  53.963  1.00  0.00     0.131 A 
HETATM   29  C17 UNL     1      26.475   0.258  55.141  1.00  0.00     0.004 A 
HETATM   30  C18 UNL     1      27.801   0.260  54.972  1.00  0.00     0.022 A 
HETATM   31  C19 UNL     1      28.119  -0.397  53.711  1.00  0.00     0.032 A 
HETATM   32 CL1  UNL     1      29.779  -0.587  53.142  1.00  0.00    -0.085 Cl
HETATM   33  C20 UNL     1      26.986  -0.781  53.144  1.00  0.00     0.026 A 
ENDBRANCH  26  28
ENDBRANCH  12  26
TORSDOF 5
ENDMDL
MODEL 4
REMARK VINA RESULT:      -9.8      2.927      6.919
REMARK  5 active torsions:
REMARK  status: ('A' for Active; 'I' for Inactive)
REMARK    1  A    between atoms: C6_7  and  C7_8 
REMARK    2  A    between atoms: C7_8  and  C8_9 
REMARK    3  A    between atoms: C8_9  and  N2_10 
REMARK    4  A    between atoms: C15_21  and  N5_22 
REMARK    5  A    between atoms: N5_22  and  C16_23 
ROOT
HETATM    1  N2  UNL     1      26.366   1.320  52.619  1.00  0.00    -0.314 N 
HETATM    2  C9  UNL     1      27.663   1.207  53.248  1.00  0.00     0.248 C 
HETATM    3  O1  UNL     1      28.616   1.934  52.859  1.00  0.00    -0.271 OA
HETATM    4  C10 UNL     1      28.043   0.292  54.355  1.00  0.00     0.279 C 
HETATM    5  O2  UNL     1      26.893  -0.252  54.928  1.00  0.00    -0.340 OA
HETATM    6  C11 UNL     1      25.634  -0.190  54.383  1.00  0.00     0.098 A 
HETATM    7  C12 UNL     1      24.608  -0.911  54.978  1.00  0.00     0.071 A 
HETATM    8  C13 UNL     1      23.354  -0.829  54.409  1.00  0.00     0.075 A 
HETATM    9  N3  UNL     1      22.388  -1.538  55.010  1.00  0.00    -0.241 NA
HETATM   10  C14 UNL     1      21.142  -1.491  54.491  1.00  0.00     0.235 A 
HETATM   11  N4  UNL     1      20.856  -0.751  53.390  1.00  0.00    -0.224 NA
HETATM   12  C15 UNL     1      21.805  -0.037  52.777  1.00  0.00     0.138 A 
HETATM   13  C21 UNL     1      23.081  -0.079  53.300  1.00  0.00     0.041 A 
HETATM   14  C22 UNL     1      24.095   0.640  52.702  1.00  0.00     0.050 A 
HETATM   15  C23 UNL     1      25.350   0.564  53.265  1.00  0.00     0.071 A 
ENDROOT
BRANCH   1  16
HETATM   16  C8  UNL     1      26.247   2.159  51.443  1.00  0.00     0.134 C 
BRANCH  16  17
HETATM   17  C7  UNL     1      25.093   3.099  51.677  1.00  0.00     0.056 C 
BRANCH  17  18
HETATM   18  C6  UNL     1      24.924   4.193  50.704  1.00  0.00     0.231 C 
HETATM   19  C2  UNL     1      24.103   3.911  49.506  1.00  0.00     0.000 C 
HETATM   20  C1  UNL     1      23.671   2.700  49.202  1.00  0.00     0.013 C 
HETATM   21  C3  UNL     1      23.795   5.091  48.646  1.00  0.00     0.014 C 
HETATM   22  C4  UNL     1      24.596   6.258  49.166  1.00  0.00     0.031 C 
HETATM   23  C5  UNL     1      25.997   5.921  49.549  1.00  0.00     0.270 C 
HETATM   24  N1  UNL     1      26.209   4.634  50.129  1.00  0.00     0.088 N 
HETATM   25  H9  UNL     1      26.458   3.989  49.323  1.00  0.00     0.316 HD
ENDBRANCH  17  18
ENDBRANCH  16  17
ENDBRANCH   1  16
BRANCH  12  26
HETATM   26  N5  UNL     1      21.450   0.719  51.633  1.00  0.00    -0.363 N 
HETATM   27  H19 UNL     1      21.744   0.584  50.643  1.00  0.00     0.162 HD
BRANCH  26  28
HETATM   28  C16 UNL     1      20.555   1.844  51.829  1.00  0.00     0.131 A 
HETATM   29  C17 UNL     1      19.981   2.291  50.511  1.00  0.00     0.004 A 
HETATM   30  C18 UNL     1      20.293   3.575  50.309  1.00  0.00     0.022 A 
HETATM   31  C19 UNL     1      21.071   4.057  51.442  1.00  0.00     0.032 A 
HETATM   32 CL1  UNL     1      21.667   5.716  51.536  1.00  0.00    -0.085 Cl
HETATM   33  C20 UNL     1      21.215   3.062  52.303  1.00  0.00     0.026 A 
ENDBRANCH  26  28
ENDBRANCH  12  26
TORSDOF 5
ENDMDL
MODEL 5
REMARK VINA RESULT:      -9.1      2.782      4.116
REMARK  5 active torsions:
REMARK  status: ('A' for Active; 'I' for Inactive)
REMARK    1  A    between atoms: C6_7  and  C7_8 
REMARK    2  A    between atoms: C7_8  and  C8_9 
REMARK    3  A    between atoms: C8_9  and  N2_10 
REMARK    4  A    between atoms: C15_21  and  N5_22 
REMARK    5  A    between atoms: N5_22  and  C16_23 
ROOT
HETATM    1  N2  UNL     1      25.368   3.359  49.916  1.00  0.00    -0.314 N 
HETATM    2  C9  UNL     1      23.981   2.982  50.073  1.00  0.00     0.248 C 
HETATM    3  O1  UNL     1      23.679   1.959  50.745  1.00  0.00    -0.271 OA
HETATM    4  C10 UNL     1      22.796   3.681  49.513  1.00  0.00     0.279 C 
HETATM    5  O2  UNL     1      23.173   4.942  49.051  1.00  0.00    -0.340 OA
HETATM    6  C11 UNL     1      24.467   5.363  48.870  1.00  0.00     0.098 A 
HETATM    7  C12 UNL     1      24.697   6.585  48.252  1.00  0.00     0.071 A 
HETATM    8  C13 UNL     1      26.007   6.981  48.085  1.00  0.00     0.075 A 
HETATM    9  N3  UNL     1      26.190   8.167  47.485  1.00  0.00    -0.241 NA
HETATM   10  C14 UNL     1      27.456   8.600  47.297  1.00  0.00     0.235 A 
HETATM   11  N4  UNL     1      28.527   7.869  47.698  1.00  0.00    -0.224 NA
HETATM   12  C15 UNL     1      28.364   6.686  48.298  1.00  0.00     0.138 A 
HETATM   13  C21 UNL     1      27.076   6.235  48.494  1.00  0.00     0.041 A 
HETATM   14  C22 UNL     1      26.857   5.019  49.108  1.00  0.00     0.050 A 
HETATM   15  C23 UNL     1      25.550   4.617  49.280  1.00  0.00     0.071 A 
ENDROOT
BRANCH   1  16
HETATM   16  C8  UNL     1      26.383   2.447  50.406  1.00  0.00     0.134 C 
BRANCH  16  17
HETATM   17  C7  UNL     1      26.456   2.618  51.902  1.00  0.00     0.056 C 
BRANCH  17  18
HETATM   18  C6  UNL     1      27.476   1.822  52.609  1.00  0.00     0.231 C 
HETATM   19  C2  UNL     1      27.083   0.468  53.059  1.00  0.00     0.000 C 
HETATM   20  C1  UNL     1      25.840   0.027  53.003  1.00  0.00     0.013 C 
HETATM   21  C3  UNL     1      28.191  -0.376  53.594  1.00  0.00     0.014 C 
HETATM   22  C4  UNL     1      29.419   0.492  53.699  1.00  0.00     0.031 C 
HETATM   23  C5  UNL     1      29.162   1.862  54.230  1.00  0.00     0.270 C 
HETATM   24  N1  UNL     1      27.925   2.469  53.855  1.00  0.00     0.088 N 
HETATM   25  H9  UNL     1      27.237   2.229  54.628  1.00  0.00     0.316 HD
ENDBRANCH  17  18
ENDBRANCH  16  17
ENDBRANCH   1  16
BRANCH  12  26
HETATM   26  N5  UNL     1      29.517   5.966  48.698  1.00  0.00    -0.363 N 
HETATM   27  H19 UNL     1      29.662   5.384  49.550  1.00  0.00     0.162 HD
BRANCH  26  28
HETATM   28  C16 UNL     1      30.675   6.024  47.826  1.00  0.00     0.131 A 
HETATM   29  C17 UNL     1      31.068   4.638  47.387  1.00  0.00     0.004 A 
HETATM   30  C18 UNL     1      32.332   4.403  47.757  1.00  0.00     0.022 A 
HETATM   31  C19 UNL     1      32.850   5.578  48.444  1.00  0.00     0.032 A 
HETATM   32 CL1  UNL     1      34.495   5.646  49.082  1.00  0.00    -0.085 Cl
HETATM   33  C20 UNL     1      31.897   6.496  48.478  1.00  0.00     0.026 A 
ENDBRANCH  26  28
ENDBRANCH  12  26
TORSDOF 5
ENDMDL
MODEL 6
REMARK VINA RESULT:      -9.1      2.674      6.393
REMARK  5 active torsions:
REMARK  status: ('A' for Active; 'I' for Inactive)
REMARK    1  A    between atoms: C6_7  and  C7_8 
REMARK    2  A    between atoms: C7_8  and  C8_9 
REMARK    3  A    between atoms: C8_9  and  N2_10 
REMARK    4  A    between atoms: C15_21  and  N5_22 
REMARK    5  A    between atoms: N5_22  and  C16_23 
ROOT
HETATM    1  N2  UNL     1      21.541   0.610  53.073  1.00  0.00    -0.314 N 
HETATM    2  C9  UNL     1      20.681  -0.423  53.604  1.00  0.00     0.248 C 
HETATM    3  O1  UNL     1      19.458  -0.440  53.301  1.00  0.00    -0.271 OA
HETATM    4  C10 UNL     1      21.072  -1.531  54.513  1.00  0.00     0.279 C 
HETATM    5  O2  UNL     1      22.462  -1.629  54.561  1.00  0.00    -0.340 OA
HETATM    6  C11 UNL     1      23.337  -0.685  54.085  1.00  0.00     0.098 A 
HETATM    7  C12 UNL     1      24.694  -0.834  54.341  1.00  0.00     0.071 A 
HETATM    8  C13 UNL     1      25.548   0.130  53.850  1.00  0.00     0.075 A 
HETATM    9  N3  UNL     1      26.850  -0.048  54.116  1.00  0.00    -0.241 NA
HETATM   10  C14 UNL     1      27.729   0.870  53.657  1.00  0.00     0.235 A 
HETATM   11  N4  UNL     1      27.323   1.950  52.943  1.00  0.00    -0.224 NA
HETATM   12  C15 UNL     1      26.030   2.145  52.668  1.00  0.00     0.138 A 
HETATM   13  C21 UNL     1      25.125   1.214  53.132  1.00  0.00     0.041 A 
HETATM   14  C22 UNL     1      23.780   1.371  52.874  1.00  0.00     0.050 A 
HETATM   15  C23 UNL     1      22.919   0.411  53.361  1.00  0.00     0.071 A 
ENDROOT
BRANCH   1  16
HETATM   16  C8  UNL     1      20.929   1.696  52.333  1.00  0.00     0.134 C 
BRANCH  16  17
HETATM   17  C7  UNL     1      20.836   1.262  50.893  1.00  0.00     0.056 C 
BRANCH  17  18
HETATM   18  C6  UNL     1      20.346   2.266  49.931  1.00  0.00     0.231 C 
HETATM   19  C2  UNL     1      20.861   2.181  48.546  1.00  0.00     0.000 C 
HETATM   20  C1  UNL     1      21.843   1.371  48.195  1.00  0.00     0.013 C 
HETATM   21  C3  UNL     1      20.200   3.085  47.559  1.00  0.00     0.014 C 
HETATM   22  C4  UNL     1      19.277   4.000  48.323  1.00  0.00     0.031 C 
HETATM   23  C5  UNL     1      19.847   4.527  49.597  1.00  0.00     0.270 C 
HETATM   24  N1  UNL     1      20.694   3.641  50.331  1.00  0.00     0.088 N 
HETATM   25  H9  UNL     1      21.684   3.849  50.005  1.00  0.00     0.316 HD
ENDBRANCH  17  18
ENDBRANCH  16  17
ENDBRANCH   1  16
BRANCH  12  26
HETATM   26  N5  UNL     1      25.663   3.289  51.917  1.00  0.00    -0.363 N 
HETATM   27  H19 UNL     1      25.406   4.239  52.257  1.00  0.00     0.162 HD
BRANCH  26  28
HETATM   28  C16 UNL     1      25.629   3.156  50.472  1.00  0.00     0.131 A 
HETATM   29  C17 UNL     1      26.513   4.192  49.831  1.00  0.00     0.004 A 
HETATM   30  C18 UNL     1      25.781   4.940  49.000  1.00  0.00     0.022 A 
HETATM   31  C19 UNL     1      24.403   4.469  49.028  1.00  0.00     0.032 A 
HETATM   32 CL1  UNL     1      23.134   5.213  48.054  1.00  0.00    -0.085 Cl
HETATM   33  C20 UNL     1      24.327   3.451  49.871  1.00  0.00     0.026 A 
ENDBRANCH  26  28
ENDBRANCH  12  26
TORSDOF 5
ENDMDL
MODEL 7
REMARK VINA RESULT:      -8.9      3.654      5.996
REMARK  5 active torsions:
REMARK  status: ('A' for Active; 'I' for Inactive)
REMARK    1  A    between atoms: C6_7  and  C7_8 
REMARK    2  A    between atoms: C7_8  and  C8_9 
REMARK    3  A    between atoms: C8_9  and  N2_10 
REMARK    4  A    between atoms: C15_21  and  N5_22 
REMARK    5  A    between atoms: N5_22  and  C16_23 
ROOT
HETATM    1  N2  UNL     1      25.947   4.059  49.285  1.00  0.00    -0.314 N 
HETATM    2  C9  UNL     1      26.936   5.037  48.892  1.00  0.00     0.248 C 
HETATM    3  O1  UNL     1      28.139   4.691  48.745  1.00  0.00    -0.271 OA
HETATM    4  C10 UNL     1      26.709   6.481  48.625  1.00  0.00     0.279 C 
HETATM    5  O2  UNL     1      25.340   6.725  48.511  1.00  0.00    -0.340 OA
HETATM    6  C11 UNL     1      24.349   5.848  48.871  1.00  0.00     0.098 A 
HETATM    7  C12 UNL     1      23.029   6.280  48.855  1.00  0.00     0.071 A 
HETATM    8  C13 UNL     1      22.054   5.376  49.223  1.00  0.00     0.075 A 
HETATM    9  N3  UNL     1      20.793   5.829  49.194  1.00  0.00    -0.241 NA
HETATM   10  C14 UNL     1      19.801   4.981  49.546  1.00  0.00     0.235 A 
HETATM   11  N4  UNL     1      20.055   3.703  49.921  1.00  0.00    -0.224 NA
HETATM   12  C15 UNL     1      21.307   3.233  49.955  1.00  0.00     0.138 A 
HETATM   13  C21 UNL     1      22.326   4.090  49.598  1.00  0.00     0.041 A 
HETATM   14  C22 UNL     1      23.634   3.653  49.618  1.00  0.00     0.050 A 
HETATM   15  C23 UNL     1      24.613   4.550  49.251  1.00  0.00     0.071 A 
ENDROOT
BRANCH   1  16
HETATM   16  C8  UNL     1      26.405   2.736  49.658  1.00  0.00     0.134 C 
BRANCH  16  17
HETATM   17  C7  UNL     1      26.658   2.750  51.143  1.00  0.00     0.056 C 
BRANCH  17  18
HETATM   18  C6  UNL     1      26.350   1.510  51.879  1.00  0.00     0.231 C 
HETATM   19  C2  UNL     1      25.157   1.523  52.754  1.00  0.00     0.000 C 
HETATM   20  C1  UNL     1      24.477   2.622  53.023  1.00  0.00     0.013 C 
HETATM   21  C3  UNL     1      24.767   0.201  53.326  1.00  0.00     0.014 C 
HETATM   22  C4  UNL     1      25.855  -0.786  52.983  1.00  0.00     0.031 C 
HETATM   23  C5  UNL     1      27.240  -0.253  53.133  1.00  0.00     0.270 C 
HETATM   24  N1  UNL     1      27.434   1.122  52.800  1.00  0.00     0.088 N 
HETATM   25  H9  UNL     1      27.315   1.661  53.708  1.00  0.00     0.316 HD
ENDBRANCH  17  18
ENDBRANCH  16  17
ENDBRANCH   1  16
BRANCH  12  26
HETATM   26  N5  UNL     1      21.514   1.889  50.352  1.00  0.00    -0.363 N 
HETATM   27  H19 UNL     1      22.241   1.217  50.029  1.00  0.00     0.162 HD
BRANCH  26  28
HETATM   28  C16 UNL     1      20.608   1.339  51.343  1.00  0.00     0.131 A 
HETATM   29  C17 UNL     1      20.781   2.050  52.659  1.00  0.00     0.004 A 
HETATM   30  C18 UNL     1      21.108   1.157  53.600  1.00  0.00     0.022 A 
HETATM   31  C19 UNL     1      21.173  -0.166  52.994  1.00  0.00     0.032 A 
HETATM   32 CL1  UNL     1      21.578  -1.608  53.928  1.00  0.00    -0.085 Cl
HETATM   33  C20 UNL     1      20.887  -0.051  51.707  1.00  0.00     0.026 A 
ENDBRANCH  26  28
ENDBRANCH  12  26
TORSDOF 5
ENDMDL
MODEL 8
REMARK VINA RESULT:      -8.8      3.052      4.081
REMARK  5 active torsions:
REMARK  status: ('A' for Active; 'I' for Inactive)
REMARK    1  A    between atoms: C6_7  and  C7_8 
REMARK    2  A    between atoms: C7_8  and  C8_9 
REMARK    3  A    between atoms: C8_9  and  N2_10 
REMARK    4  A    between atoms: C15_21  and  N5_22 
REMARK    5  A    between atoms: N5_22  and  C16_23 
ROOT
HETATM    1  N2  UNL     1      23.170  -0.245  53.794  1.00  0.00    -0.314 N 
HETATM    2  C9  UNL     1      22.459  -1.150  54.667  1.00  0.00     0.248 C 
HETATM    3  O1  UNL     1      22.985  -1.523  55.750  1.00  0.00    -0.271 OA
HETATM    4  C10 UNL     1      21.111  -1.733  54.444  1.00  0.00     0.279 C 
HETATM    5  O2  UNL     1      20.475  -1.056  53.403  1.00  0.00    -0.340 OA
HETATM    6  C11 UNL     1      21.089  -0.191  52.532  1.00  0.00     0.098 A 
HETATM    7  C12 UNL     1      20.373   0.289  51.444  1.00  0.00     0.071 A 
HETATM    8  C13 UNL     1      21.016   1.157  50.587  1.00  0.00     0.075 A 
HETATM    9  N3  UNL     1      20.293   1.600  49.548  1.00  0.00    -0.241 NA
HETATM   10  C14 UNL     1      20.878   2.453  48.679  1.00  0.00     0.235 A 
HETATM   11  N4  UNL     1      22.162   2.861  48.835  1.00  0.00    -0.224 NA
HETATM   12  C15 UNL     1      22.899   2.430  49.864  1.00  0.00     0.138 A 
HETATM   13  C21 UNL     1      22.311   1.559  50.757  1.00  0.00     0.041 A 
HETATM   14  C22 UNL     1      23.030   1.086  51.835  1.00  0.00     0.050 A 
HETATM   15  C23 UNL     1      22.394   0.219  52.697  1.00  0.00     0.071 A 
ENDROOT
BRANCH   1  16
HETATM   16  C8  UNL     1      24.546   0.078  54.118  1.00  0.00     0.134 C 
BRANCH  16  17
HETATM   17  C7  UNL     1      25.426  -0.806  53.273  1.00  0.00     0.056 C 
BRANCH  17  18
HETATM   18  C6  UNL     1      26.881  -0.653  53.450  1.00  0.00     0.231 C 
HETATM   19  C2  UNL     1      27.514   0.536  52.837  1.00  0.00     0.000 C 
HETATM   20  C1  UNL     1      26.871   1.349  52.019  1.00  0.00     0.013 C 
HETATM   21  C3  UNL     1      28.945   0.759  53.199  1.00  0.00     0.014 C 
HETATM   22  C4  UNL     1      29.414  -0.444  53.975  1.00  0.00     0.031 C 
HETATM   23  C5  UNL     1      28.947  -1.751  53.429  1.00  0.00     0.270 C 
HETATM   24  N1  UNL     1      27.637  -1.773  52.859  1.00  0.00     0.088 N 
HETATM   25  H9  UNL     1      27.768  -1.584  51.822  1.00  0.00     0.316 HD
ENDBRANCH  17  18
ENDBRANCH  16  17
ENDBRANCH   1  16
BRANCH  12  26
HETATM   26  N5  UNL     1      24.234   2.890  49.980  1.00  0.00    -0.363 N 
HETATM   27  H19 UNL     1      25.115   2.421  49.682  1.00  0.00     0.162 HD
BRANCH  26  28
HETATM   28  C16 UNL     1      24.441   4.188  50.594  1.00  0.00     0.131 A 
HETATM   29  C17 UNL     1      24.043   4.149  52.045  1.00  0.00     0.004 A 
HETATM   30  C18 UNL     1      23.093   5.065  52.264  1.00  0.00     0.022 A 
HETATM   31  C19 UNL     1      22.803   5.754  51.013  1.00  0.00     0.032 A 
HETATM   32 CL1  UNL     1      21.597   7.038  50.905  1.00  0.00    -0.085 Cl
HETATM   33  C20 UNL     1      23.578   5.246  50.067  1.00  0.00     0.026 A 
ENDBRANCH  26  28
ENDBRANCH  12  26
TORSDOF 5
ENDMDL
MODEL 9
REMARK VINA RESULT:      -8.7      3.129      6.907
REMARK  5 active torsions:
REMARK  status: ('A' for Active; 'I' for Inactive)
REMARK    1  A    between atoms: C6_7  and  C7_8 
REMARK    2  A    between atoms: C7_8  and  C8_9 
REMARK    3  A    between atoms: C8_9  and  N2_10 
REMARK    4  A    between atoms: C15_21  and  N5_22 
REMARK    5  A    between atoms: N5_22  and  C16_23 
ROOT
HETATM    1  N2  UNL     1      24.650   1.691  52.821  1.00  0.00    -0.314 N 
HETATM    2  C9  UNL     1      25.900   1.359  53.467  1.00  0.00     0.248 C 
HETATM    3  O1  UNL     1      26.888   2.135  53.361  1.00  0.00    -0.271 OA
HETATM    4  C10 UNL     1      26.190   0.155  54.287  1.00  0.00     0.279 C 
HETATM    5  O2  UNL     1      24.996  -0.490  54.610  1.00  0.00    -0.340 OA
HETATM    6  C11 UNL     1      23.778  -0.233  54.032  1.00  0.00     0.098 A 
HETATM    7  C12 UNL     1      22.703  -1.058  54.331  1.00  0.00     0.071 A 
HETATM    8  C13 UNL     1      21.492  -0.775  53.735  1.00  0.00     0.075 A 
HETATM    9  N3  UNL     1      20.477  -1.593  54.050  1.00  0.00    -0.241 NA
HETATM   10  C14 UNL     1      19.270  -1.358  53.491  1.00  0.00     0.235 A 
HETATM   11  N4  UNL     1      19.070  -0.327  52.633  1.00  0.00    -0.224 NA
HETATM   12  C15 UNL     1      20.069   0.500  52.309  1.00  0.00     0.138 A 
HETATM   13  C21 UNL     1      21.305   0.268  52.873  1.00  0.00     0.041 A 
HETATM   14  C22 UNL     1      22.368   1.093  52.568  1.00  0.00     0.050 A 
HETATM   15  C23 UNL     1      23.581   0.817  53.161  1.00  0.00     0.071 A 
ENDROOT
BRANCH   1  16
HETATM   16  C8  UNL     1      24.624   2.833  51.929  1.00  0.00     0.134 C 
BRANCH  16  17
HETATM   17  C7  UNL     1      23.866   3.932  52.629  1.00  0.00     0.056 C 
BRANCH  17  18
HETATM   18  C6  UNL     1      23.796   5.231  51.937  1.00  0.00     0.231 C 
HETATM   19  C2  UNL     1      22.535   5.552  51.231  1.00  0.00     0.000 C 
HETATM   20  C1  UNL     1      21.564   4.673  51.061  1.00  0.00     0.013 C 
HETATM   21  C3  UNL     1      22.429   6.947  50.710  1.00  0.00     0.014 C 
HETATM   22  C4  UNL     1      23.770   7.609  50.898  1.00  0.00     0.031 C 
HETATM   23  C5  UNL     1      24.937   6.743  50.565  1.00  0.00     0.270 C 
HETATM   24  N1  UNL     1      24.811   5.355  50.875  1.00  0.00     0.088 N 
HETATM   25  H9  UNL     1      24.438   4.893  49.994  1.00  0.00     0.316 HD
ENDBRANCH  17  18
ENDBRANCH  16  17
ENDBRANCH   1  16
BRANCH  12  26
HETATM   26  N5  UNL     1      19.803   1.563  51.409  1.00  0.00    -0.363 N 
HETATM   27  H19 UNL     1      19.687   2.577  51.612  1.00  0.00     0.162 HD
BRANCH  26  28
HETATM   28  C16 UNL     1      19.669   1.228  50.003  1.00  0.00     0.131 A 
HETATM   29  C17 UNL     1      21.018   0.927  49.407  1.00  0.00     0.004 A 
HETATM   30  C18 UNL     1      21.242   1.761  48.386  1.00  0.00     0.022 A 
HETATM   31  C19 UNL     1      20.094   2.645  48.237  1.00  0.00     0.032 A 
HETATM   32 CL1  UNL     1      20.021   3.889  46.986  1.00  0.00    -0.085 Cl
HETATM   33  C20 UNL     1      19.203   2.333  49.164  1.00  0.00     0.026 A 
ENDBRANCH  26  28
ENDBRANCH  12  26
TORSDOF 5
ENDMDL
