MODEL 1
REMARK VINA RESULT:      -8.7      0.000      0.000
REMARK  5 active torsions:
REMARK  status: ('A' for Active; 'I' for Inactive)
REMARK    1  A    between atoms: N1_2  and  C3_4 
REMARK    2  A    between atoms: C3_4  and  C4_5 
REMARK    3  A    between atoms: C5_6  and  C6_7 
REMARK       I    between atoms: C6_7  and  N2_9 
REMARK    4  A    between atoms: N2_9  and  C7_10 
REMARK    5  A    between atoms: C12_17  and  C13_18 
ROOT
HETATM    1  C7  UNL     1      26.042   1.018  52.238  1.00  0.00     0.035 A 
HETATM    2  C8  UNL     1      26.979   0.609  53.195  1.00  0.00     0.032 A 
HETATM    3  C9  UNL     1      26.637  -0.141  54.309  1.00  0.00     0.035 A 
HETATM    4  C10 UNL     1      25.319  -0.504  54.489  1.00  0.00     0.070 A 
HETATM    5  N3  UNL     1      24.928  -1.217  55.546  1.00  0.00    -0.241 NA
HETATM    6  C11 UNL     1      23.618  -1.530  55.667  1.00  0.00     0.234 A 
HETATM    7  N4  UNL     1      22.731  -1.127  54.735  1.00  0.00    -0.240 NA
HETATM    8  C12 UNL     1      23.077  -0.402  53.642  1.00  0.00     0.081 A 
HETATM    9  C19 UNL     1      24.419  -0.087  53.532  1.00  0.00     0.025 A 
HETATM   10  C20 UNL     1      24.727   0.650  52.429  1.00  0.00     0.045 A 
ENDROOT
BRANCH   1  11
HETATM   11  N2  UNL     1      26.530   1.785  51.143  1.00  0.00    -0.324 N 
HETATM   12  C6  UNL     1      26.131   3.098  50.783  1.00  0.00     0.245 C 
HETATM   13  O1  UNL     1      25.248   3.423  51.650  1.00  0.00    -0.268 OA
HETATM   14  H11 UNL     1      27.240   1.201  50.655  1.00  0.00     0.169 HD
BRANCH  12  15
HETATM   15  C5  UNL     1      26.717   3.761  49.635  1.00  0.00     0.072 C 
HETATM   16  C4  UNL     1      26.646   4.881  48.944  1.00  0.00    -0.002 C 
BRANCH  16  17
HETATM   17  C3  UNL     1      25.972   6.178  48.840  1.00  0.00     0.143 C 
BRANCH  17  18
HETATM   18  N1  UNL     1      25.885   6.922  50.074  1.00  0.00    -0.418 N 
HETATM   19  C1  UNL     1      26.468   8.222  50.037  1.00  0.00     0.142 C 
HETATM   20  C2  UNL     1      24.634   6.841  50.748  1.00  0.00     0.142 C 
ENDBRANCH  17  18
ENDBRANCH  16  17
ENDBRANCH  12  15
ENDBRANCH   1  11
BRANCH   8  21
HETATM   21  C13 UNL     1      21.960  -0.090  52.794  1.00  0.00    -0.005 A 
HETATM   22  C14 UNL     1      20.697  -0.361  53.333  1.00  0.00     0.014 A 
HETATM   23  C15 UNL     1      19.514  -0.134  52.632  1.00  0.00     0.002 A 
HETATM   24  C16 UNL     1      19.571   0.377  51.355  1.00  0.00     0.019 A 
HETATM   25  C17 UNL     1      20.796   0.655  50.793  1.00  0.00     0.011 A 
HETATM   26 BR1  UNL     1      20.945   1.368  49.020  1.00  0.00    -0.051 Br
HETATM   27  C18 UNL     1      21.938   0.414  51.525  1.00  0.00     0.032 A 
ENDBRANCH   8  21
TORSDOF 5
ENDMDL
MODEL 2
REMARK VINA RESULT:      -8.7      2.682      4.680
REMARK  5 active torsions:
REMARK  status: ('A' for Active; 'I' for Inactive)
REMARK    1  A    between atoms: N1_2  and  C3_4 
REMARK    2  A    between atoms: C3_4  and  C4_5 
REMARK    3  A    between atoms: C5_6  and  C6_7 
REMARK       I    between atoms: C6_7  and  N2_9 
REMARK    4  A    between atoms: N2_9  and  C7_10 
REMARK    5  A    between atoms: C12_17  and  C13_18 
ROOT
HETATM    1  C7  UNL     1      22.519   2.602  51.811  1.00  0.00     0.035 A 
HETATM    2  C8  UNL     1      21.170   2.434  52.145  1.00  0.00     0.032 A 
HETATM    3  C9  UNL     1      20.727   1.443  53.006  1.00  0.00     0.035 A 
HETATM    4  C10 UNL     1      21.649   0.581  53.562  1.00  0.00     0.070 A 
HETATM    5  N3  UNL     1      21.282  -0.397  54.390  1.00  0.00    -0.241 NA
HETATM    6  C11 UNL     1      22.236  -1.213  54.892  1.00  0.00     0.234 A 
HETATM    7  N4  UNL     1      23.530  -1.035  54.558  1.00  0.00    -0.240 NA
HETATM    8  C12 UNL     1      23.956  -0.056  53.722  1.00  0.00     0.081 A 
HETATM    9  C19 UNL     1      22.969   0.770  53.215  1.00  0.00     0.025 A 
HETATM   10  C20 UNL     1      23.433   1.734  52.371  1.00  0.00     0.045 A 
ENDROOT
BRANCH   1  11
HETATM   11  N2  UNL     1      22.836   3.660  50.913  1.00  0.00    -0.324 N 
HETATM   12  C6  UNL     1      22.957   3.568  49.502  1.00  0.00     0.245 C 
HETATM   13  O1  UNL     1      22.724   2.339  49.232  1.00  0.00    -0.268 OA
HETATM   14  H11 UNL     1      22.959   4.519  51.487  1.00  0.00     0.169 HD
BRANCH  12  15
HETATM   15  C5  UNL     1      23.286   4.736  48.709  1.00  0.00     0.072 C 
HETATM   16  C4  UNL     1      24.232   5.639  48.548  1.00  0.00    -0.002 C 
BRANCH  16  17
HETATM   17  C3  UNL     1      25.545   6.088  49.017  1.00  0.00     0.143 C 
BRANCH  17  18
HETATM   18  N1  UNL     1      26.647   5.222  48.672  1.00  0.00    -0.418 N 
HETATM   19  C1  UNL     1      27.876   5.889  48.401  1.00  0.00     0.142 C 
HETATM   20  C2  UNL     1      26.761   4.040  49.457  1.00  0.00     0.142 C 
ENDBRANCH  17  18
ENDBRANCH  16  17
ENDBRANCH  12  15
ENDBRANCH   1  11
BRANCH   8  21
HETATM   21  C13 UNL     1      25.378  -0.067  53.516  1.00  0.00    -0.005 A 
HETATM   22  C14 UNL     1      25.916  -1.280  53.071  1.00  0.00     0.014 A 
HETATM   23  C15 UNL     1      27.279  -1.462  52.842  1.00  0.00     0.002 A 
HETATM   24  C16 UNL     1      28.147  -0.416  53.059  1.00  0.00     0.019 A 
HETATM   25  C17 UNL     1      27.654   0.792  53.498  1.00  0.00     0.011 A 
HETATM   26 BR1  UNL     1      28.809   2.287  53.819  1.00  0.00    -0.051 Br
HETATM   27  C18 UNL     1      26.299   0.924  53.710  1.00  0.00     0.032 A 
ENDBRANCH   8  21
TORSDOF 5
ENDMDL
MODEL 3
REMARK VINA RESULT:      -8.4      3.023      4.929
REMARK  5 active torsions:
REMARK  status: ('A' for Active; 'I' for Inactive)
REMARK    1  A    between atoms: N1_2  and  C3_4 
REMARK    2  A    between atoms: C3_4  and  C4_5 
REMARK    3  A    between atoms: C5_6  and  C6_7 
REMARK       I    between atoms: C6_7  and  N2_9 
REMARK    4  A    between atoms: N2_9  and  C7_10 
REMARK    5  A    between atoms: C12_17  and  C13_18 
ROOT
HETATM    1  C7  UNL     1      24.033   3.566  51.512  1.00  0.00     0.035 A 
HETATM    2  C8  UNL     1      22.642   3.718  51.555  1.00  0.00     0.032 A 
HETATM    3  C9  UNL     1      21.802   2.788  52.146  1.00  0.00     0.035 A 
HETATM    4  C10 UNL     1      22.354   1.661  52.719  1.00  0.00     0.070 A 
HETATM    5  N3  UNL     1      21.596   0.727  53.295  1.00  0.00    -0.241 NA
HETATM    6  C11 UNL     1      22.201  -0.357  53.829  1.00  0.00     0.234 A 
HETATM    7  N4  UNL     1      23.542  -0.486  53.778  1.00  0.00    -0.240 NA
HETATM    8  C12 UNL     1      24.357   0.435  53.206  1.00  0.00     0.081 A 
HETATM    9  C19 UNL     1      23.725   1.539  52.662  1.00  0.00     0.025 A 
HETATM   10  C20 UNL     1      24.574   2.436  52.087  1.00  0.00     0.045 A 
ENDROOT
BRANCH   1  11
HETATM   11  N2  UNL     1      24.776   4.598  50.872  1.00  0.00    -0.324 N 
HETATM   12  C6  UNL     1      25.468   4.503  49.637  1.00  0.00     0.245 C 
HETATM   13  O1  UNL     1      25.275   3.302  49.243  1.00  0.00    -0.268 OA
HETATM   14  H11 UNL     1      24.714   5.439  51.481  1.00  0.00     0.169 HD
BRANCH  12  15
HETATM   15  C5  UNL     1      26.187   5.643  49.102  1.00  0.00     0.072 C 
HETATM   16  C4  UNL     1      27.357   5.980  48.599  1.00  0.00    -0.002 C 
BRANCH  16  17
HETATM   17  C3  UNL     1      28.688   5.484  48.239  1.00  0.00     0.143 C 
BRANCH  17  18
HETATM   18  N1  UNL     1      29.582   6.476  47.690  1.00  0.00    -0.418 N 
HETATM   19  C1  UNL     1      28.956   7.473  46.887  1.00  0.00     0.142 C 
HETATM   20  C2  UNL     1      30.580   6.958  48.584  1.00  0.00     0.142 C 
ENDBRANCH  17  18
ENDBRANCH  16  17
ENDBRANCH  12  15
ENDBRANCH   1  11
BRANCH   8  21
HETATM   21  C13 UNL     1      25.747   0.079  53.272  1.00  0.00    -0.005 A 
HETATM   22  C14 UNL     1      26.070  -1.192  52.782  1.00  0.00     0.014 A 
HETATM   23  C15 UNL     1      27.370  -1.696  52.793  1.00  0.00     0.002 A 
HETATM   24  C16 UNL     1      28.390  -0.927  53.304  1.00  0.00     0.019 A 
HETATM   25  C17 UNL     1      28.110   0.328  53.796  1.00  0.00     0.011 A 
HETATM   26 BR1  UNL     1      29.484   1.449  54.521  1.00  0.00    -0.051 Br
HETATM   27  C18 UNL     1      26.810   0.783  53.764  1.00  0.00     0.032 A 
ENDBRANCH   8  21
TORSDOF 5
ENDMDL
MODEL 4
REMARK VINA RESULT:      -8.4      1.643      1.922
REMARK  5 active torsions:
REMARK  status: ('A' for Active; 'I' for Inactive)
REMARK    1  A    between atoms: N1_2  and  C3_4 
REMARK    2  A    between atoms: C3_4  and  C4_5 
REMARK    3  A    between atoms: C5_6  and  C6_7 
REMARK       I    between atoms: C6_7  and  N2_9 
REMARK    4  A    between atoms: N2_9  and  C7_10 
REMARK    5  A    between atoms: C12_17  and  C13_18 
ROOT
HETATM    1  C7  UNL     1      25.719   2.398  52.298  1.00  0.00     0.035 A 
HETATM    2  C8  UNL     1      26.848   2.095  53.068  1.00  0.00     0.032 A 
HETATM    3  C9  UNL     1      26.862   1.083  54.016  1.00  0.00     0.035 A 
HETATM    4  C10 UNL     1      25.717   0.339  54.213  1.00  0.00     0.070 A 
HETATM    5  N3  UNL     1      25.668  -0.641  55.116  1.00  0.00    -0.241 NA
HETATM    6  C11 UNL     1      24.511  -1.325  55.265  1.00  0.00     0.234 A 
HETATM    7  N4  UNL     1      23.434  -1.018  54.514  1.00  0.00    -0.240 NA
HETATM    8  C12 UNL     1      23.433  -0.032  53.582  1.00  0.00     0.081 A 
HETATM    9  C19 UNL     1      24.622   0.660  53.441  1.00  0.00     0.025 A 
HETATM   10  C20 UNL     1      24.580   1.649  52.505  1.00  0.00     0.045 A 
ENDROOT
BRANCH   1  11
HETATM   11  N2  UNL     1      25.843   3.464  51.363  1.00  0.00    -0.324 N 
HETATM   12  C6  UNL     1      26.481   3.411  50.097  1.00  0.00     0.245 C 
HETATM   13  O1  UNL     1      26.911   2.211  49.995  1.00  0.00    -0.268 OA
HETATM   14  H11 UNL     1      25.373   4.292  51.782  1.00  0.00     0.169 HD
BRANCH  12  15
HETATM   15  C5  UNL     1      26.530   4.582  49.243  1.00  0.00     0.072 C 
HETATM   16  C4  UNL     1      27.382   5.345  48.589  1.00  0.00    -0.002 C 
BRANCH  16  17
HETATM   17  C3  UNL     1      28.797   5.551  48.268  1.00  0.00     0.143 C 
BRANCH  17  18
HETATM   18  N1  UNL     1      29.123   6.860  47.755  1.00  0.00    -0.418 N 
HETATM   19  C1  UNL     1      28.003   7.659  47.383  1.00  0.00     0.142 C 
HETATM   20  C2  UNL     1      30.150   7.551  48.458  1.00  0.00     0.142 C 
ENDBRANCH  17  18
ENDBRANCH  16  17
ENDBRANCH  12  15
ENDBRANCH   1  11
BRANCH   8  21
HETATM   21  C13 UNL     1      22.171   0.109  52.911  1.00  0.00    -0.005 A 
HETATM   22  C14 UNL     1      21.054  -0.346  53.620  1.00  0.00     0.014 A 
HETATM   23  C15 UNL     1      19.760  -0.298  53.101  1.00  0.00     0.002 A 
HETATM   24  C16 UNL     1      19.556   0.213  51.840  1.00  0.00     0.019 A 
HETATM   25  C17 UNL     1      20.631   0.669  51.113  1.00  0.00     0.011 A 
HETATM   26 BR1  UNL     1      20.414   1.394  49.351  1.00  0.00    -0.051 Br
HETATM   27  C18 UNL     1      21.891   0.602  51.667  1.00  0.00     0.032 A 
ENDBRANCH   8  21
TORSDOF 5
ENDMDL
MODEL 5
REMARK VINA RESULT:      -8.3      2.555      6.123
REMARK  5 active torsions:
REMARK  status: ('A' for Active; 'I' for Inactive)
REMARK    1  A    between atoms: N1_2  and  C3_4 
REMARK    2  A    between atoms: C3_4  and  C4_5 
REMARK    3  A    between atoms: C5_6  and  C6_7 
REMARK       I    between atoms: C6_7  and  N2_9 
REMARK    4  A    between atoms: N2_9  and  C7_10 
REMARK    5  A    between atoms: C12_17  and  C13_18 
ROOT
HETATM    1  C7  UNL     1      22.832  -0.427  53.390  1.00  0.00     0.035 A 
HETATM    2  C8  UNL     1      23.240  -1.244  54.451  1.00  0.00     0.032 A 
HETATM    3  C9  UNL     1      24.502  -1.166  55.017  1.00  0.00     0.035 A 
HETATM    4  C10 UNL     1      25.400  -0.245  54.520  1.00  0.00     0.070 A 
HETATM    5  N3  UNL     1      26.632  -0.130  55.018  1.00  0.00    -0.241 NA
HETATM    6  C11 UNL     1      27.465   0.788  54.477  1.00  0.00     0.234 A 
HETATM    7  N4  UNL     1      27.053   1.566  53.456  1.00  0.00    -0.240 NA
HETATM    8  C12 UNL     1      25.812   1.489  52.915  1.00  0.00     0.081 A 
HETATM    9  C19 UNL     1      24.971   0.546  53.476  1.00  0.00     0.025 A 
HETATM   10  C20 UNL     1      23.738   0.490  52.900  1.00  0.00     0.045 A 
ENDROOT
BRANCH   1  11
HETATM   11  N2  UNL     1      21.507  -0.614  52.903  1.00  0.00    -0.324 N 
HETATM   12  C6  UNL     1      20.313  -0.109  53.477  1.00  0.00     0.245 C 
HETATM   13  O1  UNL     1      20.694   0.537  54.513  1.00  0.00    -0.268 OA
HETATM   14  H11 UNL     1      21.580  -1.192  52.041  1.00  0.00     0.169 HD
BRANCH  12  15
HETATM   15  C5  UNL     1      19.025  -0.381  52.868  1.00  0.00     0.072 C 
HETATM   16  C4  UNL     1      18.336  -0.149  51.769  1.00  0.00    -0.002 C 
BRANCH  16  17
HETATM   17  C3  UNL     1      18.364   0.504  50.459  1.00  0.00     0.143 C 
BRANCH  17  18
HETATM   18  N1  UNL     1      19.347   1.553  50.320  1.00  0.00    -0.418 N 
HETATM   19  C1  UNL     1      20.550   1.169  49.660  1.00  0.00     0.142 C 
HETATM   20  C2  UNL     1      18.830   2.825  49.942  1.00  0.00     0.142 C 
ENDBRANCH  17  18
ENDBRANCH  16  17
ENDBRANCH  12  15
ENDBRANCH   1  11
BRANCH   8  21
HETATM   21  C13 UNL     1      25.607   2.418  51.837  1.00  0.00    -0.005 A 
HETATM   22  C14 UNL     1      26.527   2.338  50.786  1.00  0.00     0.014 A 
HETATM   23  C15 UNL     1      26.479   3.180  49.676  1.00  0.00     0.002 A 
HETATM   24  C16 UNL     1      25.493   4.137  49.595  1.00  0.00     0.019 A 
HETATM   25  C17 UNL     1      24.571   4.245  50.611  1.00  0.00     0.011 A 
HETATM   26 BR1  UNL     1      23.173   5.555  50.559  1.00  0.00    -0.051 Br
HETATM   27  C18 UNL     1      24.659   3.390  51.688  1.00  0.00     0.032 A 
ENDBRANCH   8  21
TORSDOF 5
ENDMDL
MODEL 6
REMARK VINA RESULT:      -8.2      2.421      3.052
REMARK  5 active torsions:
REMARK  status: ('A' for Active; 'I' for Inactive)
REMARK    1  A    between atoms: N1_2  and  C3_4 
REMARK    2  A    between atoms: C3_4  and  C4_5 
REMARK    3  A    between atoms: C5_6  and  C6_7 
REMARK       I    between atoms: C6_7  and  N2_9 
REMARK    4  A    between atoms: N2_9  and  C7_10 
REMARK    5  A    between atoms: C12_17  and  C13_18 
ROOT
HETATM    1  C7  UNL     1      25.605   2.833  51.547  1.00  0.00     0.035 A 
HETATM    2  C8  UNL     1      26.504   2.211  52.422  1.00  0.00     0.032 A 
HETATM    3  C9  UNL     1      26.159   1.119  53.203  1.00  0.00     0.035 A 
HETATM    4  C10 UNL     1      24.877   0.618  53.119  1.00  0.00     0.070 A 
HETATM    5  N3  UNL     1      24.484  -0.425  53.852  1.00  0.00    -0.241 NA
HETATM    6  C11 UNL     1      23.210  -0.859  53.728  1.00  0.00     0.234 A 
HETATM    7  N4  UNL     1      22.359  -0.247  52.880  1.00  0.00    -0.240 NA
HETATM    8  C12 UNL     1      22.709   0.815  52.112  1.00  0.00     0.081 A 
HETATM    9  C19 UNL     1      24.014   1.250  52.250  1.00  0.00     0.025 A 
HETATM   10  C20 UNL     1      24.325   2.324  51.472  1.00  0.00     0.045 A 
ENDROOT
BRANCH   1  11
HETATM   11  N2  UNL     1      26.091   3.947  50.806  1.00  0.00    -0.324 N 
HETATM   12  C6  UNL     1      26.671   3.916  49.512  1.00  0.00     0.245 C 
HETATM   13  O1  UNL     1      26.659   2.682  49.175  1.00  0.00    -0.268 OA
HETATM   14  H11 UNL     1      25.938   4.792  51.393  1.00  0.00     0.169 HD
BRANCH  12  15
HETATM   15  C5  UNL     1      27.125   5.137  48.875  1.00  0.00     0.072 C 
HETATM   16  C4  UNL     1      28.203   5.691  48.359  1.00  0.00    -0.002 C 
BRANCH  16  17
HETATM   17  C3  UNL     1      29.625   5.493  48.072  1.00  0.00     0.143 C 
BRANCH  17  18
HETATM   18  N1  UNL     1      30.524   6.335  48.826  1.00  0.00    -0.418 N 
HETATM   19  C1  UNL     1      31.855   5.841  48.946  1.00  0.00     0.142 C 
HETATM   20  C2  UNL     1      30.419   7.729  48.559  1.00  0.00     0.142 C 
ENDBRANCH  17  18
ENDBRANCH  16  17
ENDBRANCH  12  15
ENDBRANCH   1  11
BRANCH   8  21
HETATM   21  C13 UNL     1      21.633   1.297  51.291  1.00  0.00    -0.005 A 
HETATM   22  C14 UNL     1      21.676   0.908  49.947  1.00  0.00     0.014 A 
HETATM   23  C15 UNL     1      20.719   1.306  49.015  1.00  0.00     0.002 A 
HETATM   24  C16 UNL     1      19.682   2.118  49.416  1.00  0.00     0.019 A 
HETATM   25  C17 UNL     1      19.607   2.522  50.729  1.00  0.00     0.011 A 
HETATM   26 BR1  UNL     1      18.189   3.651  51.351  1.00  0.00    -0.051 Br
HETATM   27  C18 UNL     1      20.577   2.102  51.614  1.00  0.00     0.032 A 
ENDBRANCH   8  21
TORSDOF 5
ENDMDL
MODEL 7
REMARK VINA RESULT:      -8.1      2.565      3.710
REMARK  5 active torsions:
REMARK  status: ('A' for Active; 'I' for Inactive)
REMARK    1  A    between atoms: N1_2  and  C3_4 
REMARK    2  A    between atoms: C3_4  and  C4_5 
REMARK    3  A    between atoms: C5_6  and  C6_7 
REMARK       I    between atoms: C6_7  and  N2_9 
REMARK    4  A    between atoms: N2_9  and  C7_10 
REMARK    5  A    between atoms: C12_17  and  C13_18 
ROOT
HETATM    1  C7  UNL     1      25.100   2.542  50.779  1.00  0.00     0.035 A 
HETATM    2  C8  UNL     1      26.466   2.794  50.955  1.00  0.00     0.032 A 
HETATM    3  C9  UNL     1      27.209   2.227  51.978  1.00  0.00     0.035 A 
HETATM    4  C10 UNL     1      26.582   1.378  52.866  1.00  0.00     0.070 A 
HETATM    5  N3  UNL     1      27.243   0.810  53.875  1.00  0.00    -0.241 NA
HETATM    6  C11 UNL     1      26.566  -0.005  54.714  1.00  0.00     0.234 A 
HETATM    7  N4  UNL     1      25.250  -0.236  54.529  1.00  0.00    -0.240 NA
HETATM    8  C12 UNL     1      24.534   0.315  53.518  1.00  0.00     0.081 A 
HETATM    9  C19 UNL     1      25.238   1.148  52.668  1.00  0.00     0.025 A 
HETATM   10  C20 UNL     1      24.483   1.691  51.673  1.00  0.00     0.045 A 
ENDROOT
BRANCH   1  11
HETATM   11  N2  UNL     1      24.459   3.191  49.686  1.00  0.00    -0.324 N 
HETATM   12  C6  UNL     1      23.756   4.423  49.726  1.00  0.00     0.245 C 
HETATM   13  O1  UNL     1      23.830   4.804  50.944  1.00  0.00    -0.268 OA
HETATM   14  H11 UNL     1      24.604   2.591  48.849  1.00  0.00     0.169 HD
BRANCH  12  15
HETATM   15  C5  UNL     1      23.150   4.968  48.527  1.00  0.00     0.072 C 
HETATM   16  C4  UNL     1      22.418   4.614  47.490  1.00  0.00    -0.002 C 
BRANCH  16  17
HETATM   17  C3  UNL     1      21.734   3.494  46.839  1.00  0.00     0.143 C 
BRANCH  17  18
HETATM   18  N1  UNL     1      20.899   2.699  47.709  1.00  0.00    -0.418 N 
HETATM   19  C1  UNL     1      21.567   1.628  48.372  1.00  0.00     0.142 C 
HETATM   20  C2  UNL     1      19.987   3.435  48.518  1.00  0.00     0.142 C 
ENDBRANCH  17  18
ENDBRANCH  16  17
ENDBRANCH  12  15
ENDBRANCH   1  11
BRANCH   8  21
HETATM   21  C13 UNL     1      23.151  -0.077  53.526  1.00  0.00    -0.005 A 
HETATM   22  C14 UNL     1      22.782  -0.973  54.535  1.00  0.00     0.014 A 
HETATM   23  C15 UNL     1      21.485  -1.465  54.670  1.00  0.00     0.002 A 
HETATM   24  C16 UNL     1      20.514  -1.065  53.781  1.00  0.00     0.019 A 
HETATM   25  C17 UNL     1      20.840  -0.184  52.774  1.00  0.00     0.011 A 
HETATM   26 BR1  UNL     1      19.535   0.413  51.504  1.00  0.00    -0.051 Br
HETATM   27  C18 UNL     1      22.136   0.275  52.682  1.00  0.00     0.032 A 
ENDBRANCH   8  21
TORSDOF 5
ENDMDL
MODEL 8
REMARK VINA RESULT:      -8.0      1.787      2.341
REMARK  5 active torsions:
REMARK  status: ('A' for Active; 'I' for Inactive)
REMARK    1  A    between atoms: N1_2  and  C3_4 
REMARK    2  A    between atoms: C3_4  and  C4_5 
REMARK    3  A    between atoms: C5_6  and  C6_7 
REMARK       I    between atoms: C6_7  and  N2_9 
REMARK    4  A    between atoms: N2_9  and  C7_10 
REMARK    5  A    between atoms: C12_17  and  C13_18 
ROOT
HETATM    1  C7  UNL     1      25.626   2.826  51.511  1.00  0.00     0.035 A 
HETATM    2  C8  UNL     1      26.525   2.224  52.401  1.00  0.00     0.032 A 
HETATM    3  C9  UNL     1      26.178   1.157  53.214  1.00  0.00     0.035 A 
HETATM    4  C10 UNL     1      24.893   0.661  53.148  1.00  0.00     0.070 A 
HETATM    5  N3  UNL     1      24.497  -0.358  53.912  1.00  0.00    -0.241 NA
HETATM    6  C11 UNL     1      23.221  -0.789  53.806  1.00  0.00     0.234 A 
HETATM    7  N4  UNL     1      22.370  -0.197  52.943  1.00  0.00    -0.240 NA
HETATM    8  C12 UNL     1      22.722   0.840  52.144  1.00  0.00     0.081 A 
HETATM    9  C19 UNL     1      24.030   1.272  52.265  1.00  0.00     0.025 A 
HETATM   10  C20 UNL     1      24.344   2.322  51.456  1.00  0.00     0.045 A 
ENDROOT
BRANCH   1  11
HETATM   11  N2  UNL     1      26.115   3.915  50.737  1.00  0.00    -0.324 N 
HETATM   12  C6  UNL     1      26.735   3.840  49.463  1.00  0.00     0.245 C 
HETATM   13  O1  UNL     1      26.754   2.593  49.180  1.00  0.00    -0.268 OA
HETATM   14  H11 UNL     1      25.931   4.782  51.282  1.00  0.00     0.169 HD
BRANCH  12  15
HETATM   15  C5  UNL     1      27.186   5.040  48.787  1.00  0.00     0.072 C 
HETATM   16  C4  UNL     1      27.003   6.345  48.771  1.00  0.00    -0.002 C 
BRANCH  16  17
HETATM   17  C3  UNL     1      26.263   7.453  49.380  1.00  0.00     0.143 C 
BRANCH  17  18
HETATM   18  N1  UNL     1      24.843   7.236  49.520  1.00  0.00    -0.418 N 
HETATM   19  C1  UNL     1      24.200   8.057  50.492  1.00  0.00     0.142 C 
HETATM   20  C2  UNL     1      24.128   7.074  48.299  1.00  0.00     0.142 C 
ENDBRANCH  17  18
ENDBRANCH  16  17
ENDBRANCH  12  15
ENDBRANCH   1  11
BRANCH   8  21
HETATM   21  C13 UNL     1      21.646   1.304  51.313  1.00  0.00    -0.005 A 
HETATM   22  C14 UNL     1      21.686   0.882  49.979  1.00  0.00     0.014 A 
HETATM   23  C15 UNL     1      20.727   1.260  49.040  1.00  0.00     0.002 A 
HETATM   24  C16 UNL     1      19.693   2.083  49.422  1.00  0.00     0.019 A 
HETATM   25  C17 UNL     1      19.622   2.519  50.726  1.00  0.00     0.011 A 
HETATM   26 BR1  UNL     1      18.206   3.666  51.322  1.00  0.00    -0.051 Br
HETATM   27  C18 UNL     1      20.592   2.118  51.618  1.00  0.00     0.032 A 
ENDBRANCH   8  21
TORSDOF 5
ENDMDL
MODEL 9
REMARK VINA RESULT:      -8.0      3.152      5.056
REMARK  5 active torsions:
REMARK  status: ('A' for Active; 'I' for Inactive)
REMARK    1  A    between atoms: N1_2  and  C3_4 
REMARK    2  A    between atoms: C3_4  and  C4_5 
REMARK    3  A    between atoms: C5_6  and  C6_7 
REMARK       I    between atoms: C6_7  and  N2_9 
REMARK    4  A    between atoms: N2_9  and  C7_10 
REMARK    5  A    between atoms: C12_17  and  C13_18 
ROOT
HETATM    1  C7  UNL     1      22.224   1.457  51.136  1.00  0.00     0.035 A 
HETATM    2  C8  UNL     1      20.904   1.232  51.546  1.00  0.00     0.032 A 
HETATM    3  C9  UNL     1      20.583   0.493  52.674  1.00  0.00     0.035 A 
HETATM    4  C10 UNL     1      21.602  -0.047  53.429  1.00  0.00     0.070 A 
HETATM    5  N3  UNL     1      21.354  -0.775  54.519  1.00  0.00    -0.241 NA
HETATM    6  C11 UNL     1      22.400  -1.284  55.208  1.00  0.00     0.234 A 
HETATM    7  N4  UNL     1      23.664  -1.057  54.798  1.00  0.00    -0.240 NA
HETATM    8  C12 UNL     1      23.969  -0.324  53.698  1.00  0.00     0.081 A 
HETATM    9  C19 UNL     1      22.891   0.189  53.002  1.00  0.00     0.025 A 
HETATM   10  C20 UNL     1      23.235   0.910  51.899  1.00  0.00     0.045 A 
ENDROOT
BRANCH   1  11
HETATM   11  N2  UNL     1      22.412   2.233  49.958  1.00  0.00    -0.324 N 
HETATM   12  C6  UNL     1      22.054   1.866  48.635  1.00  0.00     0.245 C 
HETATM   13  O1  UNL     1      21.537   0.701  48.745  1.00  0.00    -0.268 OA
HETATM   14  H11 UNL     1      22.861   3.125  50.250  1.00  0.00     0.169 HD
BRANCH  12  15
HETATM   15  C5  UNL     1      22.306   2.763  47.524  1.00  0.00     0.072 C 
HETATM   16  C4  UNL     1      22.149   4.019  47.158  1.00  0.00    -0.002 C 
BRANCH  16  17
HETATM   17  C3  UNL     1      21.644   5.329  47.574  1.00  0.00     0.143 C 
BRANCH  17  18
HETATM   18  N1  UNL     1      22.655   6.341  47.768  1.00  0.00    -0.418 N 
HETATM   19  C1  UNL     1      23.681   5.999  48.696  1.00  0.00     0.142 C 
HETATM   20  C2  UNL     1      23.104   6.988  46.582  1.00  0.00     0.142 C 
ENDBRANCH  17  18
ENDBRANCH  16  17
ENDBRANCH  12  15
ENDBRANCH   1  11
BRANCH   8  21
HETATM   21  C13 UNL     1      25.383  -0.223  53.461  1.00  0.00    -0.005 A 
HETATM   22  C14 UNL     1      26.004  -1.389  53.000  1.00  0.00     0.014 A 
HETATM   23  C15 UNL     1      27.372  -1.463  52.741  1.00  0.00     0.002 A 
HETATM   24  C16 UNL     1      28.160  -0.352  52.943  1.00  0.00     0.019 A 
HETATM   25  C17 UNL     1      27.583   0.812  53.396  1.00  0.00     0.011 A 
HETATM   26 BR1  UNL     1      28.624   2.394  53.697  1.00  0.00    -0.051 Br
HETATM   27  C18 UNL     1      26.227   0.837  53.639  1.00  0.00     0.032 A 
ENDBRANCH   8  21
TORSDOF 5
ENDMDL
