MODEL 1
REMARK VINA RESULT:      -8.5      0.000      0.000
REMARK  5 active torsions:
REMARK  status: ('A' for Active; 'I' for Inactive)
REMARK    1  A    between atoms: C2_2  and  C3_3 
REMARK    2  A    between atoms: C4_4  and  C5_5 
REMARK    3  A    between atoms: C5_5  and  C6_6 
REMARK    4  A    between atoms: C6_6  and  N1_8 
REMARK    5  A    between atoms: C11_14  and  O1_15 
ROOT
HETATM    1  N1  UNL     1      24.306  -0.559  54.053  1.00  0.00    -0.265 N 
HETATM    2  N2  UNL     1      23.410  -1.245  54.937  1.00  0.00    -0.167 NA
HETATM    3  C8  UNL     1      22.141  -1.067  54.867  1.00  0.00     0.230 C 
HETATM    4  N3  UNL     1      20.813  -0.696  54.581  1.00  0.00    -0.349 N 
HETATM    5  C9  UNL     1      20.043  -0.457  53.420  1.00  0.00     0.046 A 
HETATM    6  C10 UNL     1      18.707  -0.784  53.501  1.00  0.00     0.067 A 
HETATM    7  C11 UNL     1      17.879  -0.561  52.396  1.00  0.00     0.070 A 
HETATM    8  C13 UNL     1      18.380  -0.008  51.196  1.00  0.00     0.038 A 
HETATM    9  C14 UNL     1      19.708   0.327  51.089  1.00  0.00     0.017 A 
HETATM   10  C15 UNL     1      20.458   0.086  52.194  1.00  0.00    -0.003 A 
HETATM   11  C16 UNL     1      21.854   0.420  52.090  1.00  0.00    -0.040 C 
HETATM   12  C17 UNL     1      22.471  -0.615  52.580  1.00  0.00     0.039 C 
HETATM   13  C18 UNL     1      23.469   0.278  53.194  1.00  0.00     0.050 C 
HETATM   14  C19 UNL     1      23.445   1.614  53.050  1.00  0.00     0.009 C 
HETATM   15  C20 UNL     1      22.698   1.558  51.682  1.00  0.00     0.069 C 
HETATM   16  H13 UNL     1      20.298  -0.574  55.507  1.00  0.00     0.167 HD
ENDROOT
BRANCH   1  17
HETATM   17  C6  UNL     1      25.698  -0.484  53.831  1.00  0.00     0.110 C 
HETATM   18  C7  UNL     1      26.138  -0.503  52.396  1.00  0.00     0.034 C 
BRANCH  17  19
HETATM   19  C5  UNL     1      26.438   0.560  54.642  1.00  0.00     0.054 C 
BRANCH  19  20
HETATM   20  C4  UNL     1      27.063   1.523  53.703  1.00  0.00    -0.025 C 
HETATM   21  C3  UNL     1      28.377   1.514  53.536  1.00  0.00    -0.005 C 
BRANCH  21  22
HETATM   22  C2  UNL     1      29.155   0.556  54.285  1.00  0.00    -0.011 C 
HETATM   23  C1  UNL     1      29.779  -0.421  53.675  1.00  0.00     0.011 C 
ENDBRANCH  21  22
ENDBRANCH  19  20
ENDBRANCH  17  19
ENDBRANCH   1  17
BRANCH   7  24
HETATM   24  O1  UNL     1      16.560  -0.903  52.525  1.00  0.00    -0.356 OA
HETATM   25  C12 UNL     1      15.474  -0.034  52.689  1.00  0.00     0.210 C 
ENDBRANCH   7  24
TORSDOF 5
ENDMDL
MODEL 2
REMARK VINA RESULT:      -8.4      4.149      7.731
REMARK  5 active torsions:
REMARK  status: ('A' for Active; 'I' for Inactive)
REMARK    1  A    between atoms: C2_2  and  C3_3 
REMARK    2  A    between atoms: C4_4  and  C5_5 
REMARK    3  A    between atoms: C5_5  and  C6_6 
REMARK    4  A    between atoms: C6_6  and  N1_8 
REMARK    5  A    between atoms: C11_14  and  O1_15 
ROOT
HETATM    1  N1  UNL     1      24.184   4.312  49.801  1.00  0.00    -0.265 N 
HETATM    2  N2  UNL     1      25.600   4.171  49.633  1.00  0.00    -0.167 NA
HETATM    3  C8  UNL     1      26.305   3.497  50.468  1.00  0.00     0.230 C 
HETATM    4  N3  UNL     1      26.832   2.716  51.514  1.00  0.00    -0.349 N 
HETATM    5  C9  UNL     1      26.447   1.554  52.220  1.00  0.00     0.046 A 
HETATM    6  C10 UNL     1      27.471   0.741  52.654  1.00  0.00     0.067 A 
HETATM    7  C11 UNL     1      27.167  -0.420  53.374  1.00  0.00     0.070 A 
HETATM    8  C13 UNL     1      25.833  -0.779  53.667  1.00  0.00     0.038 A 
HETATM    9  C14 UNL     1      24.793   0.014  53.246  1.00  0.00     0.017 A 
HETATM   10  C15 UNL     1      25.153   1.124  52.553  1.00  0.00    -0.003 A 
HETATM   11  C16 UNL     1      24.072   1.956  52.095  1.00  0.00    -0.040 C 
HETATM   12  C17 UNL     1      24.368   2.216  50.854  1.00  0.00     0.039 C 
HETATM   13  C18 UNL     1      23.843   3.583  51.022  1.00  0.00     0.050 C 
HETATM   14  C19 UNL     1      23.302   4.025  52.170  1.00  0.00     0.009 C 
HETATM   15  C20 UNL     1      22.861   2.602  52.633  1.00  0.00     0.069 C 
HETATM   16  H13 UNL     1      27.757   3.153  51.817  1.00  0.00     0.167 HD
ENDROOT
BRANCH   1  17
HETATM   17  C6  UNL     1      23.113   4.949  49.137  1.00  0.00     0.110 C 
HETATM   18  C7  UNL     1      23.492   5.914  48.052  1.00  0.00     0.034 C 
BRANCH  17  19
HETATM   19  C5  UNL     1      21.965   4.049  48.727  1.00  0.00     0.054 C 
BRANCH  19  20
HETATM   20  C4  UNL     1      22.502   2.976  47.854  1.00  0.00    -0.025 C 
HETATM   21  C3  UNL     1      22.061   1.736  47.997  1.00  0.00    -0.005 C 
BRANCH  21  22
HETATM   22  C2  UNL     1      21.066   1.475  49.010  1.00  0.00    -0.011 C 
HETATM   23  C1  UNL     1      21.281   0.581  49.943  1.00  0.00     0.011 C 
ENDBRANCH  21  22
ENDBRANCH  19  20
ENDBRANCH  17  19
ENDBRANCH   1  17
BRANCH   7  24
HETATM   24  O1  UNL     1      28.219  -1.195  53.782  1.00  0.00    -0.356 OA
HETATM   25  C12 UNL     1      29.579  -0.860  53.745  1.00  0.00     0.210 C 
ENDBRANCH   7  24
TORSDOF 5
ENDMDL
MODEL 3
REMARK VINA RESULT:      -8.3      3.595      7.462
REMARK  5 active torsions:
REMARK  status: ('A' for Active; 'I' for Inactive)
REMARK    1  A    between atoms: C2_2  and  C3_3 
REMARK    2  A    between atoms: C4_4  and  C5_5 
REMARK    3  A    between atoms: C5_5  and  C6_6 
REMARK    4  A    between atoms: C6_6  and  N1_8 
REMARK    5  A    between atoms: C11_14  and  O1_15 
ROOT
HETATM    1  N1  UNL     1      21.653   2.694  51.900  1.00  0.00    -0.265 N 
HETATM    2  N2  UNL     1      22.658   3.704  52.056  1.00  0.00    -0.167 NA
HETATM    3  C8  UNL     1      23.767   3.451  52.651  1.00  0.00     0.230 C 
HETATM    4  N3  UNL     1      24.876   2.916  53.333  1.00  0.00    -0.349 N 
HETATM    5  C9  UNL     1      25.599   1.701  53.321  1.00  0.00     0.046 A 
HETATM    6  C10 UNL     1      26.947   1.795  53.592  1.00  0.00     0.067 A 
HETATM    7  C11 UNL     1      27.725   0.633  53.612  1.00  0.00     0.070 A 
HETATM    8  C13 UNL     1      27.161  -0.638  53.361  1.00  0.00     0.038 A 
HETATM    9  C14 UNL     1      25.820  -0.759  53.088  1.00  0.00     0.017 A 
HETATM   10  C15 UNL     1      25.121   0.404  53.082  1.00  0.00    -0.003 A 
HETATM   11  C16 UNL     1      23.718   0.291  52.785  1.00  0.00    -0.040 C 
HETATM   12  C17 UNL     1      23.496   1.232  51.913  1.00  0.00     0.039 C 
HETATM   13  C18 UNL     1      22.184   1.488  52.534  1.00  0.00     0.050 C 
HETATM   14  C19 UNL     1      21.715   0.783  53.577  1.00  0.00     0.009 C 
HETATM   15  C20 UNL     1      22.547  -0.489  53.225  1.00  0.00     0.069 C 
HETATM   16  H13 UNL     1      25.223   3.650  54.026  1.00  0.00     0.167 HD
ENDROOT
BRANCH   1  17
HETATM   17  C6  UNL     1      20.361   2.587  51.341  1.00  0.00     0.110 C 
HETATM   18  C7  UNL     1      19.298   3.439  51.972  1.00  0.00     0.034 C 
BRANCH  17  19
HETATM   19  C5  UNL     1      20.294   2.615  49.828  1.00  0.00     0.054 C 
BRANCH  19  20
HETATM   20  C4  UNL     1      20.769   1.306  49.316  1.00  0.00    -0.025 C 
HETATM   21  C3  UNL     1      21.772   1.267  48.453  1.00  0.00    -0.005 C 
BRANCH  21  22
HETATM   22  C2  UNL     1      22.369   2.515  48.040  1.00  0.00    -0.011 C 
HETATM   23  C1  UNL     1      23.432   2.982  48.647  1.00  0.00     0.011 C 
ENDBRANCH  21  22
ENDBRANCH  19  20
ENDBRANCH  17  19
ENDBRANCH   1  17
BRANCH   7  24
HETATM   24  O1  UNL     1      29.058   0.779  53.885  1.00  0.00    -0.356 OA
HETATM   25  C12 UNL     1      30.083  -0.133  53.604  1.00  0.00     0.210 C 
ENDBRANCH   7  24
TORSDOF 5
ENDMDL
MODEL 4
REMARK VINA RESULT:      -8.2      3.218      7.881
REMARK  5 active torsions:
REMARK  status: ('A' for Active; 'I' for Inactive)
REMARK    1  A    between atoms: C2_2  and  C3_3 
REMARK    2  A    between atoms: C4_4  and  C5_5 
REMARK    3  A    between atoms: C5_5  and  C6_6 
REMARK    4  A    between atoms: C6_6  and  N1_8 
REMARK    5  A    between atoms: C11_14  and  O1_15 
ROOT
HETATM    1  N1  UNL     1      21.528   2.415  52.188  1.00  0.00    -0.265 N 
HETATM    2  N2  UNL     1      22.503   3.466  52.228  1.00  0.00    -0.167 NA
HETATM    3  C8  UNL     1      23.676   3.266  52.710  1.00  0.00     0.230 C 
HETATM    4  N3  UNL     1      24.869   2.786  53.282  1.00  0.00    -0.349 N 
HETATM    5  C9  UNL     1      25.636   1.600  53.211  1.00  0.00     0.046 A 
HETATM    6  C10 UNL     1      26.999   1.751  53.342  1.00  0.00     0.067 A 
HETATM    7  C11 UNL     1      27.821   0.621  53.297  1.00  0.00     0.070 A 
HETATM    8  C13 UNL     1      27.287  -0.675  53.120  1.00  0.00     0.038 A 
HETATM    9  C14 UNL     1      25.931  -0.853  52.987  1.00  0.00     0.017 A 
HETATM   10  C15 UNL     1      25.189   0.281  53.038  1.00  0.00    -0.003 A 
HETATM   11  C16 UNL     1      23.768   0.109  52.887  1.00  0.00    -0.040 C 
HETATM   12  C17 UNL     1      23.421   1.026  52.031  1.00  0.00     0.039 C 
HETATM   13  C18 UNL     1      22.169   1.241  52.779  1.00  0.00     0.050 C 
HETATM   14  C19 UNL     1      21.838   0.535  53.873  1.00  0.00     0.009 C 
HETATM   15  C20 UNL     1      22.680  -0.709  53.453  1.00  0.00     0.069 C 
HETATM   16  H13 UNL     1      25.254   3.544  53.926  1.00  0.00     0.167 HD
ENDROOT
BRANCH   1  17
HETATM   17  C6  UNL     1      20.191   2.248  51.765  1.00  0.00     0.110 C 
HETATM   18  C7  UNL     1      19.540   3.453  51.152  1.00  0.00     0.034 C 
BRANCH  17  19
HETATM   19  C5  UNL     1      19.901   0.982  50.986  1.00  0.00     0.054 C 
BRANCH  19  20
HETATM   20  C4  UNL     1      18.431   0.849  50.843  1.00  0.00    -0.025 C 
HETATM   21  C3  UNL     1      17.762   0.060  51.669  1.00  0.00    -0.005 C 
BRANCH  21  22
HETATM   22  C2  UNL     1      18.502  -0.650  52.686  1.00  0.00    -0.011 C 
HETATM   23  C1  UNL     1      17.984  -1.696  53.282  1.00  0.00     0.011 C 
ENDBRANCH  21  22
ENDBRANCH  19  20
ENDBRANCH  17  19
ENDBRANCH   1  17
BRANCH   7  24
HETATM   24  O1  UNL     1      29.168   0.823  53.431  1.00  0.00    -0.356 OA
HETATM   25  C12 UNL     1      30.158  -0.156  53.586  1.00  0.00     0.210 C 
ENDBRANCH   7  24
TORSDOF 5
ENDMDL
MODEL 5
REMARK VINA RESULT:      -7.9      1.578      2.441
REMARK  5 active torsions:
REMARK  status: ('A' for Active; 'I' for Inactive)
REMARK    1  A    between atoms: C2_2  and  C3_3 
REMARK    2  A    between atoms: C4_4  and  C5_5 
REMARK    3  A    between atoms: C5_5  and  C6_6 
REMARK    4  A    between atoms: C6_6  and  N1_8 
REMARK    5  A    between atoms: C11_14  and  O1_15 
ROOT
HETATM    1  N1  UNL     1      24.644   0.129  53.461  1.00  0.00    -0.265 N 
HETATM    2  N2  UNL     1      24.038  -0.802  54.367  1.00  0.00    -0.167 NA
HETATM    3  C8  UNL     1      22.762  -0.861  54.503  1.00  0.00     0.230 C 
HETATM    4  N3  UNL     1      21.362  -0.720  54.461  1.00  0.00    -0.349 N 
HETATM    5  C9  UNL     1      20.382  -0.513  53.463  1.00  0.00     0.046 A 
HETATM    6  C10 UNL     1      19.153  -1.093  53.691  1.00  0.00     0.067 A 
HETATM    7  C11 UNL     1      18.129  -0.919  52.754  1.00  0.00     0.070 A 
HETATM    8  C13 UNL     1      18.324  -0.160  51.579  1.00  0.00     0.038 A 
HETATM    9  C14 UNL     1      19.539   0.429  51.328  1.00  0.00     0.017 A 
HETATM   10  C15 UNL     1      20.491   0.222  52.273  1.00  0.00    -0.003 A 
HETATM   11  C16 UNL     1      21.772   0.823  52.015  1.00  0.00    -0.040 C 
HETATM   12  C17 UNL     1      22.630  -0.122  52.272  1.00  0.00     0.039 C 
HETATM   13  C18 UNL     1      23.548   0.877  52.848  1.00  0.00     0.050 C 
HETATM   14  C19 UNL     1      23.272   2.191  52.886  1.00  0.00     0.009 C 
HETATM   15  C20 UNL     1      22.331   2.136  51.643  1.00  0.00     0.069 C 
HETATM   16  H13 UNL     1      20.993  -0.794  55.459  1.00  0.00     0.167 HD
ENDROOT
BRANCH   1  17
HETATM   17  C6  UNL     1      25.948   0.489  53.054  1.00  0.00     0.110 C 
HETATM   18  C7  UNL     1      27.044  -0.463  53.439  1.00  0.00     0.034 C 
BRANCH  17  19
HETATM   19  C5  UNL     1      26.082   0.968  51.623  1.00  0.00     0.054 C 
BRANCH  19  20
HETATM   20  C4  UNL     1      26.871   2.224  51.625  1.00  0.00    -0.025 C 
HETATM   21  C3  UNL     1      26.570   3.186  50.767  1.00  0.00    -0.005 C 
BRANCH  21  22
HETATM   22  C2  UNL     1      25.473   2.970  49.853  1.00  0.00    -0.011 C 
HETATM   23  C1  UNL     1      24.729   3.972  49.454  1.00  0.00     0.011 C 
ENDBRANCH  21  22
ENDBRANCH  19  20
ENDBRANCH  17  19
ENDBRANCH   1  17
BRANCH   7  24
HETATM   24  O1  UNL     1      16.927  -1.516  53.026  1.00  0.00    -0.356 OA
HETATM   25  C12 UNL     1      15.882  -1.759  52.125  1.00  0.00     0.210 C 
ENDBRANCH   7  24
TORSDOF 5
ENDMDL
MODEL 6
REMARK VINA RESULT:      -7.9      3.241      7.068
REMARK  5 active torsions:
REMARK  status: ('A' for Active; 'I' for Inactive)
REMARK    1  A    between atoms: C2_2  and  C3_3 
REMARK    2  A    between atoms: C4_4  and  C5_5 
REMARK    3  A    between atoms: C5_5  and  C6_6 
REMARK    4  A    between atoms: C6_6  and  N1_8 
REMARK    5  A    between atoms: C11_14  and  O1_15 
ROOT
HETATM    1  N1  UNL     1      20.660   1.346  52.032  1.00  0.00    -0.265 N 
HETATM    2  N2  UNL     1      20.870   0.344  53.035  1.00  0.00    -0.167 NA
HETATM    3  C8  UNL     1      22.020  -0.203  53.198  1.00  0.00     0.230 C 
HETATM    4  N3  UNL     1      23.360  -0.633  53.166  1.00  0.00    -0.349 N 
HETATM    5  C9  UNL     1      24.628  -0.028  53.005  1.00  0.00     0.046 A 
HETATM    6  C10 UNL     1      25.671  -0.616  53.687  1.00  0.00     0.067 A 
HETATM    7  C11 UNL     1      26.958  -0.082  53.564  1.00  0.00     0.070 A 
HETATM    8  C13 UNL     1      27.214   1.048  52.757  1.00  0.00     0.038 A 
HETATM    9  C14 UNL     1      26.192   1.654  52.067  1.00  0.00     0.017 A 
HETATM   10  C15 UNL     1      24.969   1.089  52.228  1.00  0.00    -0.003 A 
HETATM   11  C16 UNL     1      23.888   1.723  51.521  1.00  0.00    -0.040 C 
HETATM   12  C17 UNL     1      22.936   1.816  52.403  1.00  0.00     0.039 C 
HETATM   13  C18 UNL     1      21.943   1.521  51.354  1.00  0.00     0.050 C 
HETATM   14  C19 UNL     1      22.274   1.322  50.067  1.00  0.00     0.009 C 
HETATM   15  C20 UNL     1      23.570   2.185  50.157  1.00  0.00     0.069 C 
HETATM   16  H13 UNL     1      23.369  -1.691  53.299  1.00  0.00     0.167 HD
ENDROOT
BRANCH   1  17
HETATM   17  C6  UNL     1      19.592   2.141  51.559  1.00  0.00     0.110 C 
HETATM   18  C7  UNL     1      18.215   1.574  51.751  1.00  0.00     0.034 C 
BRANCH  17  19
HETATM   19  C5  UNL     1      19.661   3.612  51.912  1.00  0.00     0.054 C 
BRANCH  19  20
HETATM   20  C4  UNL     1      19.908   4.379  50.666  1.00  0.00    -0.025 C 
HETATM   21  C3  UNL     1      20.974   5.159  50.580  1.00  0.00    -0.005 C 
BRANCH  21  22
HETATM   22  C2  UNL     1      21.861   5.235  51.717  1.00  0.00    -0.011 C 
HETATM   23  C1  UNL     1      23.126   5.537  51.559  1.00  0.00     0.011 C 
ENDBRANCH  21  22
ENDBRANCH  19  20
ENDBRANCH  17  19
ENDBRANCH   1  17
BRANCH   7  24
HETATM   24  O1  UNL     1      27.960  -0.701  54.261  1.00  0.00    -0.356 OA
HETATM   25  C12 UNL     1      29.339  -0.562  54.061  1.00  0.00     0.210 C 
ENDBRANCH   7  24
TORSDOF 5
ENDMDL
MODEL 7
REMARK VINA RESULT:      -7.8      5.207      8.018
REMARK  5 active torsions:
REMARK  status: ('A' for Active; 'I' for Inactive)
REMARK    1  A    between atoms: C2_2  and  C3_3 
REMARK    2  A    between atoms: C4_4  and  C5_5 
REMARK    3  A    between atoms: C5_5  and  C6_6 
REMARK    4  A    between atoms: C6_6  and  N1_8 
REMARK    5  A    between atoms: C11_14  and  O1_15 
ROOT
HETATM    1  N1  UNL     1      22.189   3.200  51.911  1.00  0.00    -0.265 N 
HETATM    2  N2  UNL     1      21.902   4.508  51.399  1.00  0.00    -0.167 NA
HETATM    3  C8  UNL     1      22.839   5.278  50.980  1.00  0.00     0.230 C 
HETATM    4  N3  UNL     1      24.036   5.910  50.592  1.00  0.00    -0.349 N 
HETATM    5  C9  UNL     1      25.228   5.531  49.933  1.00  0.00     0.046 A 
HETATM    6  C10 UNL     1      25.827   6.500  49.157  1.00  0.00     0.067 A 
HETATM    7  C11 UNL     1      27.018   6.202  48.487  1.00  0.00     0.070 A 
HETATM    8  C13 UNL     1      27.624   4.931  48.588  1.00  0.00     0.038 A 
HETATM    9  C14 UNL     1      27.049   3.947  49.355  1.00  0.00     0.017 A 
HETATM   10  C15 UNL     1      25.895   4.297  49.978  1.00  0.00    -0.003 A 
HETATM   11  C16 UNL     1      25.276   3.271  50.774  1.00  0.00    -0.040 C 
HETATM   12  C17 UNL     1      24.019   3.315  50.437  1.00  0.00     0.039 C 
HETATM   13  C18 UNL     1      23.641   3.042  51.834  1.00  0.00     0.050 C 
HETATM   14  C19 UNL     1      24.540   2.841  52.812  1.00  0.00     0.009 C 
HETATM   15  C20 UNL     1      25.639   2.317  51.837  1.00  0.00     0.069 C 
HETATM   16  H13 UNL     1      23.983   6.932  50.894  1.00  0.00     0.167 HD
ENDROOT
BRANCH   1  17
HETATM   17  C6  UNL     1      21.471   2.110  52.448  1.00  0.00     0.110 C 
HETATM   18  C7  UNL     1      19.976   2.249  52.462  1.00  0.00     0.034 C 
BRANCH  17  19
HETATM   19  C5  UNL     1      21.914   0.737  51.984  1.00  0.00     0.054 C 
BRANCH  19  20
HETATM   20  C4  UNL     1      21.572  -0.245  53.042  1.00  0.00    -0.025 C 
HETATM   21  C3  UNL     1      22.541  -0.884  53.678  1.00  0.00    -0.005 C 
BRANCH  21  22
HETATM   22  C2  UNL     1      23.908  -0.596  53.310  1.00  0.00    -0.011 C 
HETATM   23  C1  UNL     1      24.862  -0.624  54.208  1.00  0.00     0.011 C 
ENDBRANCH  21  22
ENDBRANCH  19  20
ENDBRANCH  17  19
ENDBRANCH   1  17
BRANCH   7  24
HETATM   24  O1  UNL     1      27.572   7.198  47.729  1.00  0.00    -0.356 OA
HETATM   25  C12 UNL     1      28.862   7.224  47.182  1.00  0.00     0.210 C 
ENDBRANCH   7  24
TORSDOF 5
ENDMDL
MODEL 8
REMARK VINA RESULT:      -7.5      4.711      7.294
REMARK  5 active torsions:
REMARK  status: ('A' for Active; 'I' for Inactive)
REMARK    1  A    between atoms: C2_2  and  C3_3 
REMARK    2  A    between atoms: C4_4  and  C5_5 
REMARK    3  A    between atoms: C5_5  and  C6_6 
REMARK    4  A    between atoms: C6_6  and  N1_8 
REMARK    5  A    between atoms: C11_14  and  O1_15 
ROOT
HETATM    1  N1  UNL     1      25.511   1.272  51.921  1.00  0.00    -0.265 N 
HETATM    2  N2  UNL     1      26.667   1.994  51.479  1.00  0.00    -0.167 NA
HETATM    3  C8  UNL     1      26.556   3.115  50.864  1.00  0.00     0.230 C 
HETATM    4  N3  UNL     1      26.158   4.304  50.223  1.00  0.00    -0.349 N 
HETATM    5  C9  UNL     1      25.180   5.303  50.432  1.00  0.00     0.046 A 
HETATM    6  C10 UNL     1      25.525   6.579  50.042  1.00  0.00     0.067 A 
HETATM    7  C11 UNL     1      24.602   7.618  50.203  1.00  0.00     0.070 A 
HETATM    8  C13 UNL     1      23.323   7.391  50.758  1.00  0.00     0.038 A 
HETATM    9  C14 UNL     1      22.954   6.128  51.155  1.00  0.00     0.017 A 
HETATM   10  C15 UNL     1      23.893   5.165  50.973  1.00  0.00    -0.003 A 
HETATM   11  C16 UNL     1      23.523   3.841  51.398  1.00  0.00    -0.040 C 
HETATM   12  C17 UNL     1      24.555   3.417  52.068  1.00  0.00     0.039 C 
HETATM   13  C18 UNL     1      24.353   2.067  51.514  1.00  0.00     0.050 C 
HETATM   14  C19 UNL     1      23.344   1.759  50.682  1.00  0.00     0.009 C 
HETATM   15  C20 UNL     1      22.413   2.887  51.225  1.00  0.00     0.069 C 
HETATM   16  H13 UNL     1      26.780   4.441  49.368  1.00  0.00     0.167 HD
ENDROOT
BRANCH   1  17
HETATM   17  C6  UNL     1      25.230   0.061  52.591  1.00  0.00     0.110 C 
HETATM   18  C7  UNL     1      26.356  -0.930  52.657  1.00  0.00     0.034 C 
BRANCH  17  19
HETATM   19  C5  UNL     1      24.506   0.194  53.915  1.00  0.00     0.054 C 
BRANCH  19  20
HETATM   20  C4  UNL     1      23.647  -1.002  54.098  1.00  0.00    -0.025 C 
HETATM   21  C3  UNL     1      22.331  -0.877  54.040  1.00  0.00    -0.005 C 
BRANCH  21  22
HETATM   22  C2  UNL     1      21.778   0.435  53.800  1.00  0.00    -0.011 C 
HETATM   23  C1  UNL     1      20.485   0.602  53.671  1.00  0.00     0.011 C 
ENDBRANCH  21  22
ENDBRANCH  19  20
ENDBRANCH  17  19
ENDBRANCH   1  17
BRANCH   7  24
HETATM   24  O1  UNL     1      24.992   8.867  49.801  1.00  0.00    -0.356 OA
HETATM   25  C12 UNL     1      26.300   9.365  49.741  1.00  0.00     0.210 C 
ENDBRANCH   7  24
TORSDOF 5
ENDMDL
MODEL 9
REMARK VINA RESULT:      -7.4      4.745      6.335
REMARK  5 active torsions:
REMARK  status: ('A' for Active; 'I' for Inactive)
REMARK    1  A    between atoms: C2_2  and  C3_3 
REMARK    2  A    between atoms: C4_4  and  C5_5 
REMARK    3  A    between atoms: C5_5  and  C6_6 
REMARK    4  A    between atoms: C6_6  and  N1_8 
REMARK    5  A    between atoms: C11_14  and  O1_15 
ROOT
HETATM    1  N1  UNL     1      23.695   5.240  50.061  1.00  0.00    -0.265 N 
HETATM    2  N2  UNL     1      22.378   4.805  50.421  1.00  0.00    -0.167 NA
HETATM    3  C8  UNL     1      22.167   3.617  50.862  1.00  0.00     0.230 C 
HETATM    4  N3  UNL     1      22.214   2.284  51.311  1.00  0.00    -0.349 N 
HETATM    5  C9  UNL     1      23.073   1.503  52.118  1.00  0.00     0.046 A 
HETATM    6  C10 UNL     1      22.472   0.510  52.860  1.00  0.00     0.067 A 
HETATM    7  C11 UNL     1      23.260  -0.313  53.671  1.00  0.00     0.070 A 
HETATM    8  C13 UNL     1      24.661  -0.151  53.747  1.00  0.00     0.038 A 
HETATM    9  C14 UNL     1      25.286   0.832  53.017  1.00  0.00     0.017 A 
HETATM   10  C15 UNL     1      24.467   1.596  52.252  1.00  0.00    -0.003 A 
HETATM   11  C16 UNL     1      25.108   2.637  51.493  1.00  0.00    -0.040 C 
HETATM   12  C17 UNL     1      24.368   3.688  51.696  1.00  0.00     0.039 C 
HETATM   13  C18 UNL     1      24.581   4.101  50.298  1.00  0.00     0.050 C 
HETATM   14  C19 UNL     1      25.349   3.411  49.438  1.00  0.00     0.009 C 
HETATM   15  C20 UNL     1      26.240   2.799  50.562  1.00  0.00     0.069 C 
HETATM   16  H13 UNL     1      21.366   1.773  50.914  1.00  0.00     0.167 HD
ENDROOT
BRANCH   1  17
HETATM   17  C6  UNL     1      24.305   6.408  49.554  1.00  0.00     0.110 C 
HETATM   18  C7  UNL     1      23.439   7.633  49.502  1.00  0.00     0.034 C 
BRANCH  17  19
HETATM   19  C5  UNL     1      25.692   6.709  50.084  1.00  0.00     0.054 C 
BRANCH  19  20
HETATM   20  C4  UNL     1      26.348   7.664  49.157  1.00  0.00    -0.025 C 
HETATM   21  C3  UNL     1      27.287   7.231  48.330  1.00  0.00    -0.005 C 
BRANCH  21  22
HETATM   22  C2  UNL     1      27.639   5.831  48.367  1.00  0.00    -0.011 C 
HETATM   23  C1  UNL     1      28.894   5.456  48.327  1.00  0.00     0.011 C 
ENDBRANCH  21  22
ENDBRANCH  19  20
ENDBRANCH  17  19
ENDBRANCH   1  17
BRANCH   7  24
HETATM   24  O1  UNL     1      22.616  -1.283  54.389  1.00  0.00    -0.356 OA
HETATM   25  C12 UNL     1      21.253  -1.605  54.341  1.00  0.00     0.210 C 
ENDBRANCH   7  24
TORSDOF 5
ENDMDL
