MODEL 1
REMARK VINA RESULT:      -7.8      0.000      0.000
REMARK  8 active torsions:
REMARK  status: ('A' for Active; 'I' for Inactive)
REMARK    1  A    between atoms: C2_2  and  C3_3 
REMARK    2  A    between atoms: C2_2  and  C4_5 
REMARK    3  A    between atoms: C3_3  and  O1_4 
REMARK    4  A    between atoms: C8_11  and  N3_12 
REMARK    5  A    between atoms: N3_12  and  C9_13 
REMARK    6  A    between atoms: C10_14  and  C11_15 
REMARK    7  A    between atoms: C11_15  and  O2_16 
REMARK    8  A    between atoms: O2_16  and  C12_17 
ROOT
HETATM    1  C4  UNL     1      19.652  -0.857  53.461  1.00  0.00    -0.049 C 
HETATM    2  C5  UNL     1      20.379  -1.692  54.183  1.00  0.00     0.027 C 
HETATM    3  C6  UNL     1      21.765  -1.469  54.567  1.00  0.00     0.118 C 
HETATM    4  N1  UNL     1      22.962  -1.138  54.823  1.00  0.00    -0.254 NA
HETATM    5  C7  UNL     1      23.554   0.091  54.356  1.00  0.00     0.234 C 
HETATM    6  N2  UNL     1      23.469  -0.052  53.057  1.00  0.00    -0.222 NA
HETATM    7  C8  UNL     1      23.908   0.882  52.116  1.00  0.00     0.153 C 
HETATM    8  C13 UNL     1      23.222   1.842  51.469  1.00  0.00     0.077 C 
HETATM    9  C14 UNL     1      24.010   2.691  50.506  1.00  0.00     0.228 C 
HETATM   10  O3  UNL     1      24.180   3.903  51.145  1.00  0.00    -0.384 OA
HETATM   11  C15 UNL     1      22.966   4.444  51.492  1.00  0.00     0.187 C 
HETATM   12  C16 UNL     1      22.048   3.512  52.253  1.00  0.00     0.149 C 
HETATM   13  N4  UNL     1      21.870   2.267  51.486  1.00  0.00    -0.377 N 
HETATM   14  C17 UNL     1      20.527   1.945  51.046  1.00  0.00     0.123 C 
HETATM   15  C18 UNL     1      20.070   0.585  51.458  1.00  0.00     0.024 C 
HETATM   16  C19 UNL     1      20.048   0.468  52.946  1.00  0.00     0.041 C 
ENDROOT
BRANCH   7  17
HETATM   17  N3  UNL     1      25.286   0.756  51.837  1.00  0.00    -0.349 N 
HETATM   18  H9  UNL     1      25.279   0.310  50.903  1.00  0.00     0.167 HD
BRANCH  17  19
HETATM   19  C9  UNL     1      26.581   0.999  52.332  1.00  0.00     0.088 C 
HETATM   20  C10 UNL     1      26.869   0.538  53.536  1.00  0.00     0.016 C 
BRANCH  20  21
HETATM   21  C11 UNL     1      28.212   0.750  54.137  1.00  0.00     0.201 C 
BRANCH  21  22
HETATM   22  O2  UNL     1      28.683  -0.452  54.678  1.00  0.00    -0.341 OA
BRANCH  22  23
HETATM   23  C12 UNL     1      29.734  -0.994  53.968  1.00  0.00     0.407 C 
HETATM   24  F1  UNL     1      30.224  -0.103  53.030  1.00  0.00    -0.202 F 
HETATM   25 CL1  UNL     1      29.096  -2.441  53.125  1.00  0.00    -0.060 Cl
ENDBRANCH  22  23
ENDBRANCH  21  22
ENDBRANCH  20  21
ENDBRANCH  17  19
ENDBRANCH   7  17
BRANCH   1  26
HETATM   26  C2  UNL     1      18.317  -1.321  53.221  1.00  0.00    -0.038 C 
HETATM   27  C1  UNL     1      17.926  -2.523  53.549  1.00  0.00     0.021 C 
BRANCH  26  28
HETATM   28  C3  UNL     1      17.215  -0.530  52.582  1.00  0.00     0.202 C 
BRANCH  28  29
HETATM   29  O1  UNL     1      16.062  -0.583  53.337  1.00  0.00    -0.396 OA
HETATM   30  H5  UNL     1      16.298  -0.594  54.283  1.00  0.00     0.209 HD
ENDBRANCH  28  29
ENDBRANCH  26  28
ENDBRANCH   1  26
TORSDOF 8
ENDMDL
MODEL 2
REMARK VINA RESULT:      -7.8      4.071      5.425
REMARK  8 active torsions:
REMARK  status: ('A' for Active; 'I' for Inactive)
REMARK    1  A    between atoms: C2_2  and  C3_3 
REMARK    2  A    between atoms: C2_2  and  C4_5 
REMARK    3  A    between atoms: C3_3  and  O1_4 
REMARK    4  A    between atoms: C8_11  and  N3_12 
REMARK    5  A    between atoms: N3_12  and  C9_13 
REMARK    6  A    between atoms: C10_14  and  C11_15 
REMARK    7  A    between atoms: C11_15  and  O2_16 
REMARK    8  A    between atoms: O2_16  and  C12_17 
ROOT
HETATM    1  C4  UNL     1      23.760   0.158  53.308  1.00  0.00    -0.049 C 
HETATM    2  C5  UNL     1      24.958  -0.390  53.210  1.00  0.00     0.027 C 
HETATM    3  C6  UNL     1      26.151   0.300  52.742  1.00  0.00     0.118 C 
HETATM    4  N1  UNL     1      27.099   1.028  52.316  1.00  0.00    -0.254 NA
HETATM    5  C7  UNL     1      26.918   2.406  51.934  1.00  0.00     0.234 C 
HETATM    6  N2  UNL     1      26.055   2.297  50.955  1.00  0.00    -0.222 NA
HETATM    7  C8  UNL     1      25.532   3.366  50.224  1.00  0.00     0.153 C 
HETATM    8  C13 UNL     1      24.380   4.042  50.387  1.00  0.00     0.077 C 
HETATM    9  C14 UNL     1      24.116   5.158  49.411  1.00  0.00     0.228 C 
HETATM   10  O3  UNL     1      24.350   6.322  50.117  1.00  0.00    -0.384 OA
HETATM   11  C15 UNL     1      23.563   6.374  51.240  1.00  0.00     0.187 C 
HETATM   12  C16 UNL     1      23.623   5.144  52.118  1.00  0.00     0.149 C 
HETATM   13  N4  UNL     1      23.309   3.952  51.311  1.00  0.00    -0.377 N 
HETATM   14  C17 UNL     1      22.135   3.188  51.684  1.00  0.00     0.123 C 
HETATM   15  C18 UNL     1      22.410   1.738  51.912  1.00  0.00     0.024 C 
HETATM   16  C19 UNL     1      23.383   1.557  53.028  1.00  0.00     0.041 C 
ENDROOT
BRANCH   7  17
HETATM   17  N3  UNL     1      26.378   3.756  49.163  1.00  0.00    -0.349 N 
HETATM   18  H9  UNL     1      25.840   3.455  48.332  1.00  0.00     0.167 HD
BRANCH  17  19
HETATM   19  C9  UNL     1      27.607   4.364  48.844  1.00  0.00     0.088 C 
HETATM   20  C10 UNL     1      27.588   5.643  48.517  1.00  0.00     0.016 C 
BRANCH  20  21
HETATM   21  C11 UNL     1      28.838   6.364  48.165  1.00  0.00     0.201 C 
BRANCH  21  22
HETATM   22  O2  UNL     1      29.944   5.664  48.663  1.00  0.00    -0.341 OA
BRANCH  22  23
HETATM   23  C12 UNL     1      31.064   5.777  47.865  1.00  0.00     0.407 C 
HETATM   24  F1  UNL     1      30.838   6.622  46.793  1.00  0.00    -0.202 F 
HETATM   25 CL1  UNL     1      31.428   4.134  47.251  1.00  0.00    -0.060 Cl
ENDBRANCH  22  23
ENDBRANCH  21  22
ENDBRANCH  20  21
ENDBRANCH  17  19
ENDBRANCH   7  17
BRANCH   1  26
HETATM   26  C2  UNL     1      22.755  -0.744  53.792  1.00  0.00    -0.038 C 
HETATM   27  C1  UNL     1      22.096  -1.545  52.999  1.00  0.00     0.021 C 
BRANCH  26  28
HETATM   28  C3  UNL     1      22.327  -0.895  55.221  1.00  0.00     0.202 C 
BRANCH  28  29
HETATM   29  O1  UNL     1      23.001  -1.931  55.835  1.00  0.00    -0.396 OA
HETATM   30  H5  UNL     1      23.491  -2.438  55.163  1.00  0.00     0.209 HD
ENDBRANCH  28  29
ENDBRANCH  26  28
ENDBRANCH   1  26
TORSDOF 8
ENDMDL
MODEL 3
REMARK VINA RESULT:      -7.6      4.234      8.048
REMARK  8 active torsions:
REMARK  status: ('A' for Active; 'I' for Inactive)
REMARK    1  A    between atoms: C2_2  and  C3_3 
REMARK    2  A    between atoms: C2_2  and  C4_5 
REMARK    3  A    between atoms: C3_3  and  O1_4 
REMARK    4  A    between atoms: C8_11  and  N3_12 
REMARK    5  A    between atoms: N3_12  and  C9_13 
REMARK    6  A    between atoms: C10_14  and  C11_15 
REMARK    7  A    between atoms: C11_15  and  O2_16 
REMARK    8  A    between atoms: O2_16  and  C12_17 
ROOT
HETATM    1  C4  UNL     1      26.811   7.397  48.650  1.00  0.00    -0.049 C 
HETATM    2  C5  UNL     1      27.752   6.488  48.466  1.00  0.00     0.027 C 
HETATM    3  C6  UNL     1      27.583   5.060  48.697  1.00  0.00     0.118 C 
HETATM    4  N1  UNL     1      27.289   3.851  48.941  1.00  0.00    -0.254 NA
HETATM    5  C7  UNL     1      25.990   3.439  49.411  1.00  0.00     0.234 C 
HETATM    6  N2  UNL     1      25.902   4.087  50.546  1.00  0.00    -0.222 NA
HETATM    7  C8  UNL     1      24.811   4.037  51.417  1.00  0.00     0.153 C 
HETATM    8  C13 UNL     1      23.760   4.869  51.532  1.00  0.00     0.077 C 
HETATM    9  C14 UNL     1      22.745   4.521  52.588  1.00  0.00     0.228 C 
HETATM   10  O3  UNL     1      21.663   4.010  51.899  1.00  0.00    -0.384 OA
HETATM   11  C15 UNL     1      21.207   4.916  50.973  1.00  0.00     0.187 C 
HETATM   12  C16 UNL     1      22.269   5.474  50.051  1.00  0.00     0.149 C 
HETATM   13  N4  UNL     1      23.361   6.049  50.856  1.00  0.00    -0.377 N 
HETATM   14  C17 UNL     1      23.616   7.468  50.709  1.00  0.00     0.123 C 
HETATM   15  C18 UNL     1      25.033   7.792  50.368  1.00  0.00     0.024 C 
HETATM   16  C19 UNL     1      25.411   7.176  49.062  1.00  0.00     0.041 C 
ENDROOT
BRANCH   7  17
HETATM   17  N3  UNL     1      24.870   2.927  52.287  1.00  0.00    -0.349 N 
HETATM   18  H9  UNL     1      23.869   2.717  52.442  1.00  0.00     0.167 HD
BRANCH  17  19
HETATM   19  C9  UNL     1      25.737   2.059  52.977  1.00  0.00     0.088 C 
HETATM   20  C10 UNL     1      26.224   1.028  52.311  1.00  0.00     0.016 C 
BRANCH  20  21
HETATM   21  C11 UNL     1      27.146   0.061  52.961  1.00  0.00     0.201 C 
BRANCH  21  22
HETATM   22  O2  UNL     1      27.335   0.416  54.303  1.00  0.00    -0.341 OA
BRANCH  22  23
HETATM   23  C12 UNL     1      28.664   0.529  54.654  1.00  0.00     0.407 C 
HETATM   24  F1  UNL     1      29.183   1.756  54.279  1.00  0.00    -0.202 F 
HETATM   25 CL1  UNL     1      29.541  -0.770  53.787  1.00  0.00    -0.060 Cl
ENDBRANCH  22  23
ENDBRANCH  21  22
ENDBRANCH  20  21
ENDBRANCH  17  19
ENDBRANCH   7  17
BRANCH   1  26
HETATM   26  C2  UNL     1      27.241   8.733  48.354  1.00  0.00    -0.038 C 
HETATM   27  C1  UNL     1      26.755   9.416  47.353  1.00  0.00     0.021 C 
BRANCH  26  28
HETATM   28  C3  UNL     1      28.271   9.512  49.115  1.00  0.00     0.202 C 
BRANCH  28  29
HETATM   29  O1  UNL     1      27.779   9.930  50.334  1.00  0.00    -0.396 OA
HETATM   30  H5  UNL     1      26.809  10.006  50.279  1.00  0.00     0.209 HD
ENDBRANCH  28  29
ENDBRANCH  26  28
ENDBRANCH   1  26
TORSDOF 8
ENDMDL
MODEL 4
REMARK VINA RESULT:      -7.4      3.372      5.080
REMARK  8 active torsions:
REMARK  status: ('A' for Active; 'I' for Inactive)
REMARK    1  A    between atoms: C2_2  and  C3_3 
REMARK    2  A    between atoms: C2_2  and  C4_5 
REMARK    3  A    between atoms: C3_3  and  O1_4 
REMARK    4  A    between atoms: C8_11  and  N3_12 
REMARK    5  A    between atoms: N3_12  and  C9_13 
REMARK    6  A    between atoms: C10_14  and  C11_15 
REMARK    7  A    between atoms: C11_15  and  O2_16 
REMARK    8  A    between atoms: O2_16  and  C12_17 
ROOT
HETATM    1  C4  UNL     1      18.991   0.251  51.427  1.00  0.00    -0.049 C 
HETATM    2  C5  UNL     1      18.870   0.834  50.248  1.00  0.00     0.027 C 
HETATM    3  C6  UNL     1      19.980   1.348  49.458  1.00  0.00     0.118 C 
HETATM    4  N1  UNL     1      21.040   1.746  48.887  1.00  0.00    -0.254 NA
HETATM    5  C7  UNL     1      22.350   1.596  49.471  1.00  0.00     0.234 C 
HETATM    6  N2  UNL     1      22.229   2.292  50.574  1.00  0.00    -0.222 NA
HETATM    7  C8  UNL     1      23.235   2.469  51.526  1.00  0.00     0.153 C 
HETATM    8  C13 UNL     1      23.471   1.797  52.667  1.00  0.00     0.077 C 
HETATM    9  C14 UNL     1      24.659   2.250  53.475  1.00  0.00     0.228 C 
HETATM   10  O3  UNL     1      25.629   1.291  53.264  1.00  0.00    -0.384 OA
HETATM   11  C15 UNL     1      25.166   0.046  53.613  1.00  0.00     0.187 C 
HETATM   12  C16 UNL     1      23.836  -0.333  53.001  1.00  0.00     0.149 C 
HETATM   13  N4  UNL     1      22.840   0.706  53.315  1.00  0.00    -0.377 N 
HETATM   14  C17 UNL     1      21.691   0.307  54.103  1.00  0.00     0.123 C 
HETATM   15  C18 UNL     1      20.382   0.647  53.471  1.00  0.00     0.024 C 
HETATM   16  C19 UNL     1      20.236  -0.052  52.160  1.00  0.00     0.041 C 
ENDROOT
BRANCH   7  17
HETATM   17  N3  UNL     1      24.108   3.528  51.193  1.00  0.00    -0.349 N 
HETATM   18  H9  UNL     1      24.213   4.017  52.099  1.00  0.00     0.167 HD
BRANCH  17  19
HETATM   19  C9  UNL     1      24.839   4.122  50.148  1.00  0.00     0.088 C 
HETATM   20  C10 UNL     1      26.127   3.841  50.068  1.00  0.00     0.016 C 
BRANCH  20  21
HETATM   21  C11 UNL     1      26.975   4.425  48.997  1.00  0.00     0.201 C 
BRANCH  21  22
HETATM   22  O2  UNL     1      26.563   5.736  48.728  1.00  0.00    -0.341 OA
BRANCH  22  23
HETATM   23  C12 UNL     1      27.605   6.580  48.410  1.00  0.00     0.407 C 
HETATM   24  F1  UNL     1      27.374   7.241  47.216  1.00  0.00    -0.202 F 
HETATM   25 CL1  UNL     1      29.066   5.557  48.242  1.00  0.00    -0.060 Cl
ENDBRANCH  22  23
ENDBRANCH  21  22
ENDBRANCH  20  21
ENDBRANCH  17  19
ENDBRANCH   7  17
BRANCH   1  26
HETATM   26  C2  UNL     1      17.738  -0.159  51.994  1.00  0.00    -0.038 C 
HETATM   27  C1  UNL     1      16.663   0.577  51.914  1.00  0.00     0.021 C 
BRANCH  26  28
HETATM   28  C3  UNL     1      17.487  -1.439  52.734  1.00  0.00     0.202 C 
BRANCH  28  29
HETATM   29  O1  UNL     1      17.399  -1.219  54.093  1.00  0.00    -0.396 OA
HETATM   30  H5  UNL     1      17.714  -2.010  54.567  1.00  0.00     0.209 HD
ENDBRANCH  28  29
ENDBRANCH  26  28
ENDBRANCH   1  26
TORSDOF 8
ENDMDL
MODEL 5
REMARK VINA RESULT:      -7.4      3.718      7.559
REMARK  8 active torsions:
REMARK  status: ('A' for Active; 'I' for Inactive)
REMARK    1  A    between atoms: C2_2  and  C3_3 
REMARK    2  A    between atoms: C2_2  and  C4_5 
REMARK    3  A    between atoms: C3_3  and  O1_4 
REMARK    4  A    between atoms: C8_11  and  N3_12 
REMARK    5  A    between atoms: N3_12  and  C9_13 
REMARK    6  A    between atoms: C10_14  and  C11_15 
REMARK    7  A    between atoms: C11_15  and  O2_16 
REMARK    8  A    between atoms: O2_16  and  C12_17 
ROOT
HETATM    1  C4  UNL     1      26.533  -0.038  53.137  1.00  0.00    -0.049 C 
HETATM    2  C5  UNL     1      25.628  -0.681  53.854  1.00  0.00     0.027 C 
HETATM    3  C6  UNL     1      24.188  -0.555  53.681  1.00  0.00     0.118 C 
HETATM    4  N1  UNL     1      22.966  -0.344  53.414  1.00  0.00    -0.254 NA
HETATM    5  C7  UNL     1      22.535   0.563  52.380  1.00  0.00     0.234 C 
HETATM    6  N2  UNL     1      23.033   1.699  52.801  1.00  0.00    -0.222 NA
HETATM    7  C8  UNL     1      22.902   2.925  52.144  1.00  0.00     0.153 C 
HETATM    8  C13 UNL     1      23.742   3.542  51.293  1.00  0.00     0.077 C 
HETATM    9  C14 UNL     1      23.289   4.875  50.757  1.00  0.00     0.228 C 
HETATM   10  O3  UNL     1      22.903   4.630  49.454  1.00  0.00    -0.384 OA
HETATM   11  C15 UNL     1      23.932   4.068  48.740  1.00  0.00     0.187 C 
HETATM   12  C16 UNL     1      24.574   2.862  49.389  1.00  0.00     0.149 C 
HETATM   13  N4  UNL     1      25.010   3.214  50.752  1.00  0.00    -0.377 N 
HETATM   14  C17 UNL     1      26.428   3.130  51.037  1.00  0.00     0.123 C 
HETATM   15  C18 UNL     1      26.753   2.282  52.223  1.00  0.00     0.024 C 
HETATM   16  C19 UNL     1      26.300   0.878  52.003  1.00  0.00     0.041 C 
ENDROOT
BRANCH   7  17
HETATM   17  N3  UNL     1      21.688   3.574  52.457  1.00  0.00    -0.349 N 
HETATM   18  H9  UNL     1      21.934   4.094  53.318  1.00  0.00     0.167 HD
BRANCH  17  19
HETATM   19  C9  UNL     1      20.353   3.760  52.053  1.00  0.00     0.088 C 
HETATM   20  C10 UNL     1      19.589   2.687  51.957  1.00  0.00     0.016 C 
BRANCH  20  21
HETATM   21  C11 UNL     1      18.168   2.792  51.537  1.00  0.00     0.201 C 
BRANCH  21  22
HETATM   22  O2  UNL     1      17.563   1.530  51.594  1.00  0.00    -0.341 OA
BRANCH  22  23
HETATM   23  C12 UNL     1      18.405   0.504  51.219  1.00  0.00     0.407 C 
HETATM   24  F1  UNL     1      17.973  -0.105  50.055  1.00  0.00    -0.202 F 
HETATM   25 CL1  UNL     1      18.386  -0.693  52.551  1.00  0.00    -0.060 Cl
ENDBRANCH  22  23
ENDBRANCH  21  22
ENDBRANCH  20  21
ENDBRANCH  17  19
ENDBRANCH   7  17
BRANCH   1  26
HETATM   26  C2  UNL     1      27.883  -0.338  53.517  1.00  0.00    -0.038 C 
HETATM   27  C1  UNL     1      28.521  -1.381  53.059  1.00  0.00     0.021 C 
BRANCH  26  28
HETATM   28  C3  UNL     1      28.728   0.466  54.459  1.00  0.00     0.202 C 
BRANCH  28  29
HETATM   29  O1  UNL     1      29.775   1.071  53.796  1.00  0.00    -0.396 OA
HETATM   30  H5  UNL     1      29.947   1.943  54.196  1.00  0.00     0.209 HD
ENDBRANCH  28  29
ENDBRANCH  26  28
ENDBRANCH   1  26
TORSDOF 8
ENDMDL
MODEL 6
REMARK VINA RESULT:      -7.2      4.921      8.231
REMARK  8 active torsions:
REMARK  status: ('A' for Active; 'I' for Inactive)
REMARK    1  A    between atoms: C2_2  and  C3_3 
REMARK    2  A    between atoms: C2_2  and  C4_5 
REMARK    3  A    between atoms: C3_3  and  O1_4 
REMARK    4  A    between atoms: C8_11  and  N3_12 
REMARK    5  A    between atoms: N3_12  and  C9_13 
REMARK    6  A    between atoms: C10_14  and  C11_15 
REMARK    7  A    between atoms: C11_15  and  O2_16 
REMARK    8  A    between atoms: O2_16  and  C12_17 
ROOT
HETATM    1  C4  UNL     1      24.991   0.130  53.142  1.00  0.00    -0.049 C 
HETATM    2  C5  UNL     1      24.011  -0.525  53.738  1.00  0.00     0.027 C 
HETATM    3  C6  UNL     1      22.604  -0.425  53.377  1.00  0.00     0.118 C 
HETATM    4  N1  UNL     1      21.425  -0.236  52.951  1.00  0.00    -0.254 NA
HETATM    5  C7  UNL     1      21.118   0.659  51.863  1.00  0.00     0.234 C 
HETATM    6  N2  UNL     1      21.538   1.805  52.337  1.00  0.00    -0.222 NA
HETATM    7  C8  UNL     1      21.474   3.025  51.660  1.00  0.00     0.153 C 
HETATM    8  C13 UNL     1      22.408   3.652  50.922  1.00  0.00     0.077 C 
HETATM    9  C14 UNL     1      22.009   4.974  50.322  1.00  0.00     0.228 C 
HETATM   10  O3  UNL     1      21.800   4.717  48.981  1.00  0.00    -0.384 OA
HETATM   11  C15 UNL     1      22.924   4.169  48.412  1.00  0.00     0.187 C 
HETATM   12  C16 UNL     1      23.494   2.977  49.148  1.00  0.00     0.149 C 
HETATM   13  N4  UNL     1      23.742   3.344  50.554  1.00  0.00    -0.377 N 
HETATM   14  C17 UNL     1      25.112   3.285  51.024  1.00  0.00     0.123 C 
HETATM   15  C18 UNL     1      25.291   2.449  52.248  1.00  0.00     0.024 C 
HETATM   16  C19 UNL     1      24.894   1.036  51.980  1.00  0.00     0.041 C 
ENDROOT
BRANCH   7  17
HETATM   17  N3  UNL     1      20.219   3.655  51.807  1.00  0.00    -0.349 N 
HETATM   18  H9  UNL     1      20.476   4.658  51.802  1.00  0.00     0.167 HD
BRANCH  17  19
HETATM   19  C9  UNL     1      18.837   3.432  51.948  1.00  0.00     0.088 C 
HETATM   20  C10 UNL     1      18.020   4.209  51.259  1.00  0.00     0.016 C 
BRANCH  20  21
HETATM   21  C11 UNL     1      16.546   4.044  51.348  1.00  0.00     0.201 C 
BRANCH  21  22
HETATM   22  O2  UNL     1      16.136   4.171  52.681  1.00  0.00    -0.341 OA
BRANCH  22  23
HETATM   23  C12 UNL     1      14.774   4.036  52.847  1.00  0.00     0.407 C 
HETATM   24  F1  UNL     1      14.340   4.665  54.000  1.00  0.00    -0.202 F 
HETATM   25 CL1  UNL     1      14.441   2.280  52.976  1.00  0.00    -0.060 Cl
ENDBRANCH  22  23
ENDBRANCH  21  22
ENDBRANCH  20  21
ENDBRANCH  17  19
ENDBRANCH   7  17
BRANCH   1  26
HETATM   26  C2  UNL     1      26.285  -0.145  53.697  1.00  0.00    -0.038 C 
HETATM   27  C1  UNL     1      26.601   0.179  54.921  1.00  0.00     0.021 C 
BRANCH  26  28
HETATM   28  C3  UNL     1      27.421  -0.815  52.984  1.00  0.00     0.202 C 
BRANCH  28  29
HETATM   29  O1  UNL     1      27.319  -2.188  53.064  1.00  0.00    -0.396 OA
HETATM   30  H5  UNL     1      26.471  -2.422  53.483  1.00  0.00     0.209 HD
ENDBRANCH  28  29
ENDBRANCH  26  28
ENDBRANCH   1  26
TORSDOF 8
ENDMDL
MODEL 7
REMARK VINA RESULT:      -6.9      5.705      8.694
REMARK  8 active torsions:
REMARK  status: ('A' for Active; 'I' for Inactive)
REMARK    1  A    between atoms: C2_2  and  C3_3 
REMARK    2  A    between atoms: C2_2  and  C4_5 
REMARK    3  A    between atoms: C3_3  and  O1_4 
REMARK    4  A    between atoms: C8_11  and  N3_12 
REMARK    5  A    between atoms: N3_12  and  C9_13 
REMARK    6  A    between atoms: C10_14  and  C11_15 
REMARK    7  A    between atoms: C11_15  and  O2_16 
REMARK    8  A    between atoms: O2_16  and  C12_17 
ROOT
HETATM    1  C4  UNL     1      22.633  -0.305  53.579  1.00  0.00    -0.049 C 
HETATM    2  C5  UNL     1      21.515  -0.876  53.992  1.00  0.00     0.027 C 
HETATM    3  C6  UNL     1      20.198  -0.631  53.421  1.00  0.00     0.118 C 
HETATM    4  N1  UNL     1      19.123  -0.319  52.826  1.00  0.00    -0.254 NA
HETATM    5  C7  UNL     1      19.074   0.627  51.739  1.00  0.00     0.234 C 
HETATM    6  N2  UNL     1      19.518   1.715  52.316  1.00  0.00    -0.222 NA
HETATM    7  C8  UNL     1      19.674   2.952  51.685  1.00  0.00     0.153 C 
HETATM    8  C13 UNL     1      20.766   3.503  51.125  1.00  0.00     0.077 C 
HETATM    9  C14 UNL     1      20.589   4.871  50.521  1.00  0.00     0.228 C 
HETATM   10  O3  UNL     1      20.572   4.666  49.156  1.00  0.00    -0.384 OA
HETATM   11  C15 UNL     1      21.715   4.026  48.746  1.00  0.00     0.187 C 
HETATM   12  C16 UNL     1      22.051   2.768  49.515  1.00  0.00     0.149 C 
HETATM   13  N4  UNL     1      22.107   3.075  50.955  1.00  0.00    -0.377 N 
HETATM   14  C17 UNL     1      23.374   2.873  51.628  1.00  0.00     0.123 C 
HETATM   15  C18 UNL     1      23.282   1.995  52.832  1.00  0.00     0.024 C 
HETATM   16  C19 UNL     1      22.803   0.633  52.452  1.00  0.00     0.041 C 
ENDROOT
BRANCH   7  17
HETATM   17  N3  UNL     1      18.475   3.696  51.660  1.00  0.00    -0.349 N 
HETATM   18  H9  UNL     1      18.761   4.586  52.105  1.00  0.00     0.167 HD
BRANCH  17  19
HETATM   19  C9  UNL     1      17.121   3.673  51.276  1.00  0.00     0.088 C 
HETATM   20  C10 UNL     1      16.217   3.894  52.214  1.00  0.00     0.016 C 
BRANCH  20  21
HETATM   21  C11 UNL     1      14.765   3.887  51.897  1.00  0.00     0.201 C 
BRANCH  21  22
HETATM   22  O2  UNL     1      14.034   4.296  53.019  1.00  0.00    -0.341 OA
BRANCH  22  23
HETATM   23  C12 UNL     1      12.990   3.450  53.327  1.00  0.00     0.407 C 
HETATM   24  F1  UNL     1      12.211   3.182  52.215  1.00  0.00    -0.202 F 
HETATM   25 CL1  UNL     1      11.991   4.288  54.556  1.00  0.00    -0.060 Cl
ENDBRANCH  22  23
ENDBRANCH  21  22
ENDBRANCH  20  21
ENDBRANCH  17  19
ENDBRANCH   7  17
BRANCH   1  26
HETATM   26  C2  UNL     1      23.792  -0.717  54.317  1.00  0.00    -0.038 C 
HETATM   27  C1  UNL     1      24.998  -0.626  53.827  1.00  0.00     0.021 C 
BRANCH  26  28
HETATM   28  C3  UNL     1      23.792  -1.292  55.701  1.00  0.00     0.202 C 
BRANCH  28  29
HETATM   29  O1  UNL     1      25.068  -1.338  56.222  1.00  0.00    -0.396 OA
HETATM   30  H5  UNL     1      25.414  -2.246  56.145  1.00  0.00     0.209 HD
ENDBRANCH  28  29
ENDBRANCH  26  28
ENDBRANCH   1  26
TORSDOF 8
ENDMDL
MODEL 8
REMARK VINA RESULT:      -6.9      5.560      7.787
REMARK  8 active torsions:
REMARK  status: ('A' for Active; 'I' for Inactive)
REMARK    1  A    between atoms: C2_2  and  C3_3 
REMARK    2  A    between atoms: C2_2  and  C4_5 
REMARK    3  A    between atoms: C3_3  and  O1_4 
REMARK    4  A    between atoms: C8_11  and  N3_12 
REMARK    5  A    between atoms: N3_12  and  C9_13 
REMARK    6  A    between atoms: C10_14  and  C11_15 
REMARK    7  A    between atoms: C11_15  and  O2_16 
REMARK    8  A    between atoms: O2_16  and  C12_17 
ROOT
HETATM    1  C4  UNL     1      22.329   0.512  52.098  1.00  0.00    -0.049 C 
HETATM    2  C5  UNL     1      21.309   0.205  51.316  1.00  0.00     0.027 C 
HETATM    3  C6  UNL     1      21.152   0.658  49.941  1.00  0.00     0.118 C 
HETATM    4  N1  UNL     1      21.152   1.127  48.763  1.00  0.00    -0.254 NA
HETATM    5  C7  UNL     1      22.202   1.975  48.256  1.00  0.00     0.234 C 
HETATM    6  N2  UNL     1      22.131   2.998  49.071  1.00  0.00    -0.222 NA
HETATM    7  C8  UNL     1      22.953   4.126  49.016  1.00  0.00     0.153 C 
HETATM    8  C13 UNL     1      24.080   4.407  49.696  1.00  0.00     0.077 C 
HETATM    9  C14 UNL     1      24.729   5.731  49.394  1.00  0.00     0.228 C 
HETATM   10  O3  UNL     1      25.832   5.428  48.621  1.00  0.00    -0.384 OA
HETATM   11  C15 UNL     1      26.656   4.546  49.276  1.00  0.00     0.187 C 
HETATM   12  C16 UNL     1      25.968   3.310  49.813  1.00  0.00     0.149 C 
HETATM   13  N4  UNL     1      24.840   3.713  50.671  1.00  0.00    -0.377 N 
HETATM   14  C17 UNL     1      24.892   3.319  52.065  1.00  0.00     0.123 C 
HETATM   15  C18 UNL     1      23.683   2.574  52.524  1.00  0.00     0.024 C 
HETATM   16  C19 UNL     1      23.523   1.307  51.752  1.00  0.00     0.041 C 
ENDROOT
BRANCH   7  17
HETATM   17  N3  UNL     1      22.483   5.087  48.095  1.00  0.00    -0.349 N 
HETATM   18  H9  UNL     1      22.092   5.814  48.719  1.00  0.00     0.167 HD
BRANCH  17  19
HETATM   19  C9  UNL     1      22.362   5.397  46.728  1.00  0.00     0.088 C 
HETATM   20  C10 UNL     1      21.669   4.564  45.973  1.00  0.00     0.016 C 
BRANCH  20  21
HETATM   21  C11 UNL     1      21.490   4.814  44.519  1.00  0.00     0.201 C 
BRANCH  21  22
HETATM   22  O2  UNL     1      21.054   3.642  43.888  1.00  0.00    -0.341 OA
BRANCH  22  23
HETATM   23  C12 UNL     1      20.029   3.856  42.990  1.00  0.00     0.407 C 
HETATM   24  F1  UNL     1      19.512   2.663  42.519  1.00  0.00    -0.202 F 
HETATM   25 CL1  UNL     1      20.726   4.776  41.620  1.00  0.00    -0.060 Cl
ENDBRANCH  22  23
ENDBRANCH  21  22
ENDBRANCH  20  21
ENDBRANCH  17  19
ENDBRANCH   7  17
BRANCH   1  26
HETATM   26  C2  UNL     1      22.236  -0.060  53.410  1.00  0.00    -0.038 C 
HETATM   27  C1  UNL     1      23.228  -0.705  53.962  1.00  0.00     0.021 C 
BRANCH  26  28
HETATM   28  C3  UNL     1      21.035  -0.008  54.306  1.00  0.00     0.202 C 
BRANCH  28  29
HETATM   29  O1  UNL     1      20.862  -1.201  54.976  1.00  0.00    -0.396 OA
HETATM   30  H5  UNL     1      21.062  -1.070  55.921  1.00  0.00     0.209 HD
ENDBRANCH  28  29
ENDBRANCH  26  28
ENDBRANCH   1  26
TORSDOF 8
ENDMDL
MODEL 9
REMARK VINA RESULT:      -6.9      5.581      8.082
REMARK  8 active torsions:
REMARK  status: ('A' for Active; 'I' for Inactive)
REMARK    1  A    between atoms: C2_2  and  C3_3 
REMARK    2  A    between atoms: C2_2  and  C4_5 
REMARK    3  A    between atoms: C3_3  and  O1_4 
REMARK    4  A    between atoms: C8_11  and  N3_12 
REMARK    5  A    between atoms: N3_12  and  C9_13 
REMARK    6  A    between atoms: C10_14  and  C11_15 
REMARK    7  A    between atoms: C11_15  and  O2_16 
REMARK    8  A    between atoms: O2_16  and  C12_17 
ROOT
HETATM    1  C4  UNL     1      21.862   1.018  53.007  1.00  0.00    -0.049 C 
HETATM    2  C5  UNL     1      20.590   1.356  53.124  1.00  0.00     0.027 C 
HETATM    3  C6  UNL     1      19.959   2.468  52.429  1.00  0.00     0.118 C 
HETATM    4  N1  UNL     1      19.550   3.464  51.759  1.00  0.00    -0.254 NA
HETATM    5  C7  UNL     1      20.409   4.234  50.894  1.00  0.00     0.234 C 
HETATM    6  N2  UNL     1      21.299   4.686  51.741  1.00  0.00    -0.222 NA
HETATM    7  C8  UNL     1      22.382   5.503  51.408  1.00  0.00     0.153 C 
HETATM    8  C13 UNL     1      23.660   5.175  51.140  1.00  0.00     0.077 C 
HETATM    9  C14 UNL     1      24.587   6.316  50.811  1.00  0.00     0.228 C 
HETATM   10  O3  UNL     1      24.778   6.246  49.446  1.00  0.00    -0.384 OA
HETATM   11  C15 UNL     1      25.268   5.015  49.086  1.00  0.00     0.187 C 
HETATM   12  C16 UNL     1      24.485   3.837  49.621  1.00  0.00     0.149 C 
HETATM   13  N4  UNL     1      24.370   3.950  51.085  1.00  0.00    -0.377 N 
HETATM   14  C17 UNL     1      24.969   2.898  51.881  1.00  0.00     0.123 C 
HETATM   15  C18 UNL     1      24.025   2.268  52.852  1.00  0.00     0.024 C 
HETATM   16  C19 UNL     1      22.882   1.633  52.134  1.00  0.00     0.041 C 
ENDROOT
BRANCH   7  17
HETATM   17  N3  UNL     1      22.030   6.869  51.361  1.00  0.00    -0.349 N 
HETATM   18  H9  UNL     1      22.514   7.249  52.193  1.00  0.00     0.167 HD
BRANCH  17  19
HETATM   19  C9  UNL     1      21.307   7.840  50.642  1.00  0.00     0.088 C 
HETATM   20  C10 UNL     1      21.642   8.040  49.381  1.00  0.00     0.016 C 
BRANCH  20  21
HETATM   21  C11 UNL     1      20.932   9.046  48.548  1.00  0.00     0.201 C 
BRANCH  21  22
HETATM   22  O2  UNL     1      21.263  10.336  48.981  1.00  0.00    -0.341 OA
BRANCH  22  23
HETATM   23  C12 UNL     1      20.184  11.194  49.010  1.00  0.00     0.407 C 
HETATM   24  F1  UNL     1      20.410  12.262  49.859  1.00  0.00    -0.202 F 
HETATM   25 CL1  UNL     1      18.789  10.248  49.617  1.00  0.00    -0.060 Cl
ENDBRANCH  22  23
ENDBRANCH  21  22
ENDBRANCH  20  21
ENDBRANCH  17  19
ENDBRANCH   7  17
BRANCH   1  26
HETATM   26  C2  UNL     1      22.229  -0.115  53.806  1.00  0.00    -0.038 C 
HETATM   27  C1  UNL     1      21.562  -0.462  54.873  1.00  0.00     0.021 C 
BRANCH  26  28
HETATM   28  C3  UNL     1      23.389  -1.031  53.549  1.00  0.00     0.202 C 
BRANCH  28  29
HETATM   29  O1  UNL     1      24.406  -0.812  54.453  1.00  0.00    -0.396 OA
HETATM   30  H5  UNL     1      24.506   0.147  54.598  1.00  0.00     0.209 HD
ENDBRANCH  28  29
ENDBRANCH  26  28
ENDBRANCH   1  26
TORSDOF 8
ENDMDL
