MODEL 1
REMARK VINA RESULT:     -10.6      0.000      0.000
REMARK  3 active torsions:
REMARK  status: ('A' for Active; 'I' for Inactive)
REMARK    1  A    between atoms: C5_5  and  C6_6 
REMARK    2  A    between atoms: C13_13  and  N1_14 
REMARK    3  A    between atoms: N1_14  and  C14_15 
ROOT
HETATM    1  N1  UNL     1      24.217   2.486  52.468  1.00  0.00    -0.188 N 
HETATM    2  H12 UNL     1      23.446   2.698  53.173  1.00  0.00     0.184 HD
ENDROOT
BRANCH   1   3
HETATM    3  C13 UNL     1      24.127   3.180  51.231  1.00  0.00     0.056 A 
HETATM    4  C2  UNL     1      22.959   3.205  50.485  1.00  0.00    -0.035 A 
HETATM    5  C1  UNL     1      21.780   2.465  51.047  1.00  0.00     0.050 C 
HETATM    6  C3  UNL     1      22.868   3.871  49.282  1.00  0.00     0.010 A 
HETATM    7  C4  UNL     1      23.941   4.554  48.752  1.00  0.00     0.013 A 
HETATM    8  C5  UNL     1      25.109   4.552  49.458  1.00  0.00    -0.024 A 
HETATM    9  C12 UNL     1      25.165   3.876  50.656  1.00  0.00     0.043 A 
BRANCH   8  10
HETATM   10  C6  UNL     1      26.253   5.272  48.905  1.00  0.00    -0.026 A 
HETATM   11  C7  UNL     1      26.026   6.580  48.470  1.00  0.00     0.012 A 
HETATM   12  C8  UNL     1      27.054   7.314  47.942  1.00  0.00     0.001 A 
HETATM   13  C9  UNL     1      28.309   6.768  47.836  1.00  0.00     0.000 A 
HETATM   14  C10 UNL     1      28.541   5.496  48.256  1.00  0.00     0.001 A 
HETATM   15  C11 UNL     1      27.525   4.730  48.794  1.00  0.00     0.012 A 
ENDBRANCH   8  10
ENDBRANCH   1   3
BRANCH   1  16
HETATM   16  C14 UNL     1      25.230   1.554  52.816  1.00  0.00     0.719 C 
HETATM   17  N2  UNL     1      24.764   0.363  53.110  1.00  0.00    -0.104 NA
HETATM   18  C15 UNL     1      25.656  -0.708  53.487  1.00  0.00     0.185 C 
HETATM   19  C16 UNL     1      26.994  -0.647  52.832  1.00  0.00     0.102 A 
HETATM   20  C17 UNL     1      27.456  -2.030  52.551  1.00  0.00     0.104 A 
HETATM   21  C20 UNL     1      28.086  -0.166  53.722  1.00  0.00    -0.039 A 
HETATM   22  F1  UNL     1      26.664  -2.783  51.737  1.00  0.00    -0.210 F 
HETATM   23  C18 UNL     1      28.593  -2.326  53.146  1.00  0.00     0.039 A 
HETATM   24  C19 UNL     1      28.991  -1.142  53.889  1.00  0.00     0.011 A 
HETATM   25  O1  UNL     1      28.246   1.073  54.337  1.00  0.00     0.000 OA
HETATM   26  C21 UNL     1      29.429   1.799  54.318  1.00  0.00     0.132 A 
HETATM   27  C22 UNL     1      27.137   2.169  53.987  1.00  0.00     0.294 A 
HETATM   28  N3  UNL     1      28.483   2.628  54.042  1.00  0.00    -0.268 NA
HETATM   29  N4  UNL     1      26.596   2.022  52.803  1.00  0.00    -0.073 NA
ENDBRANCH   1  16
TORSDOF 3
ENDMDL
MODEL 2
REMARK VINA RESULT:     -10.5      2.542      5.939
REMARK  3 active torsions:
REMARK  status: ('A' for Active; 'I' for Inactive)
REMARK    1  A    between atoms: C5_5  and  C6_6 
REMARK    2  A    between atoms: C13_13  and  N1_14 
REMARK    3  A    between atoms: N1_14  and  C14_15 
ROOT
HETATM    1  N1  UNL     1      23.765   2.023  52.821  1.00  0.00    -0.188 N 
HETATM    2  H12 UNL     1      23.643   2.943  53.347  1.00  0.00     0.184 HD
ENDROOT
BRANCH   1   3
HETATM    3  C13 UNL     1      22.725   1.695  51.910  1.00  0.00     0.056 A 
HETATM    4  C2  UNL     1      22.798   2.013  50.563  1.00  0.00    -0.035 A 
HETATM    5  C1  UNL     1      24.038   2.722  50.101  1.00  0.00     0.050 C 
HETATM    6  C3  UNL     1      21.790   1.701  49.676  1.00  0.00     0.010 A 
HETATM    7  C4  UNL     1      20.645   1.052  50.085  1.00  0.00     0.013 A 
HETATM    8  C5  UNL     1      20.536   0.722  51.405  1.00  0.00    -0.024 A 
HETATM    9  C12 UNL     1      21.562   1.048  52.262  1.00  0.00     0.043 A 
BRANCH   8  10
HETATM   10  C6  UNL     1      19.327   0.033  51.849  1.00  0.00    -0.026 A 
HETATM   11  C7  UNL     1      18.214   0.103  51.006  1.00  0.00     0.012 A 
HETATM   12  C8  UNL     1      17.049  -0.520  51.360  1.00  0.00     0.001 A 
HETATM   13  C9  UNL     1      16.966  -1.214  52.542  1.00  0.00     0.000 A 
HETATM   14  C10 UNL     1      18.042  -1.288  53.369  1.00  0.00     0.001 A 
HETATM   15  C11 UNL     1      19.234  -0.670  53.041  1.00  0.00     0.012 A 
ENDBRANCH   8  10
ENDBRANCH   1   3
BRANCH   1  16
HETATM   16  C14 UNL     1      24.916   1.233  53.075  1.00  0.00     0.719 C 
HETATM   17  N2  UNL     1      24.637  -0.002  53.418  1.00  0.00    -0.104 NA
HETATM   18  C15 UNL     1      25.690  -0.945  53.712  1.00  0.00     0.185 C 
HETATM   19  C16 UNL     1      26.941  -0.726  52.931  1.00  0.00     0.102 A 
HETATM   20  C17 UNL     1      27.547  -2.044  52.614  1.00  0.00     0.104 A 
HETATM   21  C20 UNL     1      28.042  -0.096  53.709  1.00  0.00    -0.039 A 
HETATM   22  F1  UNL     1      26.784  -2.905  51.883  1.00  0.00    -0.210 F 
HETATM   23  C18 UNL     1      28.763  -2.184  53.097  1.00  0.00     0.039 A 
HETATM   24  C19 UNL     1      29.076  -0.946  53.793  1.00  0.00     0.011 A 
HETATM   25  O1  UNL     1      28.100   1.164  54.300  1.00  0.00     0.000 OA
HETATM   26  C21 UNL     1      29.174   2.033  54.163  1.00  0.00     0.132 A 
HETATM   27  C22 UNL     1      26.832   2.104  54.053  1.00  0.00     0.294 A 
HETATM   28  N3  UNL     1      28.108   2.731  53.975  1.00  0.00    -0.268 NA
HETATM   29  N4  UNL     1      26.204   1.870  52.927  1.00  0.00    -0.073 NA
ENDBRANCH   1  16
TORSDOF 3
ENDMDL
MODEL 3
REMARK VINA RESULT:      -9.7      3.551      7.386
REMARK  3 active torsions:
REMARK  status: ('A' for Active; 'I' for Inactive)
REMARK    1  A    between atoms: C5_5  and  C6_6 
REMARK    2  A    between atoms: C13_13  and  N1_14 
REMARK    3  A    between atoms: N1_14  and  C14_15 
ROOT
HETATM    1  N1  UNL     1      21.433   0.796  51.762  1.00  0.00    -0.188 N 
HETATM    2  H12 UNL     1      20.444   0.431  51.608  1.00  0.00     0.184 HD
ENDROOT
BRANCH   1   3
HETATM    3  C13 UNL     1      22.163   0.170  52.809  1.00  0.00     0.056 A 
HETATM    4  C2  UNL     1      21.533  -0.479  53.860  1.00  0.00    -0.035 A 
HETATM    5  C1  UNL     1      20.032  -0.498  53.841  1.00  0.00     0.050 C 
HETATM    6  C3  UNL     1      22.235  -1.082  54.880  1.00  0.00     0.010 A 
HETATM    7  C4  UNL     1      23.613  -1.072  54.912  1.00  0.00     0.013 A 
HETATM    8  C5  UNL     1      24.270  -0.442  53.895  1.00  0.00    -0.024 A 
HETATM    9  C12 UNL     1      23.536   0.150  52.892  1.00  0.00     0.043 A 
BRANCH   8  10
HETATM   10  C6  UNL     1      25.730  -0.425  53.919  1.00  0.00    -0.026 A 
HETATM   11  C7  UNL     1      26.386  -1.133  52.909  1.00  0.00     0.012 A 
HETATM   12  C8  UNL     1      27.754  -1.159  52.871  1.00  0.00     0.001 A 
HETATM   13  C9  UNL     1      28.485  -0.493  53.823  1.00  0.00     0.000 A 
HETATM   14  C10 UNL     1      27.857   0.199  54.810  1.00  0.00     0.001 A 
HETATM   15  C11 UNL     1      26.477   0.245  54.877  1.00  0.00     0.012 A 
ENDBRANCH   8  10
ENDBRANCH   1   3
BRANCH   1  16
HETATM   16  C14 UNL     1      21.915   1.845  50.937  1.00  0.00     0.719 C 
HETATM   17  N2  UNL     1      22.243   1.451  49.729  1.00  0.00    -0.104 NA
HETATM   18  C15 UNL     1      22.752   2.389  48.757  1.00  0.00     0.185 C 
HETATM   19  C16 UNL     1      22.202   3.768  48.892  1.00  0.00     0.102 A 
HETATM   20  C17 UNL     1      22.041   4.358  47.538  1.00  0.00     0.104 A 
HETATM   21  C20 UNL     1      23.143   4.742  49.508  1.00  0.00    -0.039 A 
HETATM   22  F1  UNL     1      21.215   3.696  46.680  1.00  0.00    -0.210 F 
HETATM   23  C18 UNL     1      22.740   5.461  47.369  1.00  0.00     0.039 A 
HETATM   24  C19 UNL     1      23.439   5.703  48.620  1.00  0.00     0.011 A 
HETATM   25  O1  UNL     1      23.693   4.753  50.788  1.00  0.00     0.000 OA
HETATM   26  C21 UNL     1      23.723   5.874  51.606  1.00  0.00     0.132 A 
HETATM   27  C22 UNL     1      23.192   3.595  51.768  1.00  0.00     0.294 A 
HETATM   28  N3  UNL     1      23.324   4.893  52.338  1.00  0.00    -0.268 NA
HETATM   29  N4  UNL     1      21.980   3.167  51.514  1.00  0.00    -0.073 NA
ENDBRANCH   1  16
TORSDOF 3
ENDMDL
MODEL 4
REMARK VINA RESULT:      -9.6      3.884      7.703
REMARK  3 active torsions:
REMARK  status: ('A' for Active; 'I' for Inactive)
REMARK    1  A    between atoms: C5_5  and  C6_6 
REMARK    2  A    between atoms: C13_13  and  N1_14 
REMARK    3  A    between atoms: N1_14  and  C14_15 
ROOT
HETATM    1  N1  UNL     1      22.026   0.200  52.029  1.00  0.00    -0.188 N 
HETATM    2  H12 UNL     1      21.315  -0.499  51.653  1.00  0.00     0.184 HD
ENDROOT
BRANCH   1   3
HETATM    3  C13 UNL     1      22.839  -0.265  53.098  1.00  0.00     0.056 A 
HETATM    4  C2  UNL     1      22.299  -0.848  54.234  1.00  0.00    -0.035 A 
HETATM    5  C1  UNL     1      20.804  -0.974  54.285  1.00  0.00     0.050 C 
HETATM    6  C3  UNL     1      23.082  -1.295  55.276  1.00  0.00     0.010 A 
HETATM    7  C4  UNL     1      24.455  -1.186  55.245  1.00  0.00     0.013 A 
HETATM    8  C5  UNL     1      25.025  -0.616  54.143  1.00  0.00    -0.024 A 
HETATM    9  C12 UNL     1      24.212  -0.180  53.121  1.00  0.00     0.043 A 
BRANCH   8  10
HETATM   10  C6  UNL     1      26.480  -0.495  54.100  1.00  0.00    -0.026 A 
HETATM   11  C7  UNL     1      27.149  -1.260  53.142  1.00  0.00     0.012 A 
HETATM   12  C8  UNL     1      28.513  -1.194  53.046  1.00  0.00     0.001 A 
HETATM   13  C9  UNL     1      29.227  -0.380  53.890  1.00  0.00     0.000 A 
HETATM   14  C10 UNL     1      28.586   0.369  54.825  1.00  0.00     0.001 A 
HETATM   15  C11 UNL     1      27.210   0.325  54.948  1.00  0.00     0.012 A 
ENDBRANCH   8  10
ENDBRANCH   1   3
BRANCH   1  16
HETATM   16  C14 UNL     1      22.091   1.494  51.449  1.00  0.00     0.719 C 
HETATM   17  N2  UNL     1      21.724   2.452  52.268  1.00  0.00    -0.104 NA
HETATM   18  C15 UNL     1      21.729   3.831  51.842  1.00  0.00     0.185 C 
HETATM   19  C16 UNL     1      22.791   4.160  50.849  1.00  0.00     0.102 A 
HETATM   20  C17 UNL     1      23.287   5.535  51.112  1.00  0.00     0.104 A 
HETATM   21  C20 UNL     1      22.296   4.308  49.454  1.00  0.00    -0.039 A 
HETATM   22  F1  UNL     1      23.827   5.763  52.342  1.00  0.00    -0.210 F 
HETATM   23  C18 UNL     1      23.127   6.347  50.088  1.00  0.00     0.039 A 
HETATM   24  C19 UNL     1      22.497   5.566  49.036  1.00  0.00     0.011 A 
HETATM   25  O1  UNL     1      21.704   3.361  48.620  1.00  0.00     0.000 OA
HETATM   26  C21 UNL     1      22.080   3.150  47.301  1.00  0.00     0.132 A 
HETATM   27  C22 UNL     1      21.599   1.883  49.215  1.00  0.00     0.294 A 
HETATM   28  N3  UNL     1      21.975   1.988  47.846  1.00  0.00    -0.268 NA
HETATM   29  N4  UNL     1      22.538   1.586  50.080  1.00  0.00    -0.073 NA
ENDBRANCH   1  16
TORSDOF 3
ENDMDL
MODEL 5
REMARK VINA RESULT:      -9.6      3.467      7.542
REMARK  3 active torsions:
REMARK  status: ('A' for Active; 'I' for Inactive)
REMARK    1  A    between atoms: C5_5  and  C6_6 
REMARK    2  A    between atoms: C13_13  and  N1_14 
REMARK    3  A    between atoms: N1_14  and  C14_15 
ROOT
HETATM    1  N1  UNL     1      25.187   3.313  49.592  1.00  0.00    -0.188 N 
HETATM    2  H12 UNL     1      24.712   2.794  48.792  1.00  0.00     0.184 HD
ENDROOT
BRANCH   1   3
HETATM    3  C13 UNL     1      25.222   2.626  50.836  1.00  0.00     0.056 A 
HETATM    4  C2  UNL     1      24.150   2.638  51.714  1.00  0.00    -0.035 A 
HETATM    5  C1  UNL     1      22.936   3.412  51.290  1.00  0.00     0.050 C 
HETATM    6  C3  UNL     1      24.181   1.978  52.924  1.00  0.00     0.010 A 
HETATM    7  C4  UNL     1      25.289   1.265  53.328  1.00  0.00     0.013 A 
HETATM    8  C5  UNL     1      26.365   1.229  52.490  1.00  0.00    -0.024 A 
HETATM    9  C12 UNL     1      26.300   1.900  51.289  1.00  0.00     0.043 A 
BRANCH   8  10
HETATM   10  C6  UNL     1      27.544   0.476  52.909  1.00  0.00    -0.026 A 
HETATM   11  C7  UNL     1      27.473  -0.915  52.811  1.00  0.00     0.012 A 
HETATM   12  C8  UNL     1      28.542  -1.683  53.186  1.00  0.00     0.001 A 
HETATM   13  C9  UNL     1      29.686  -1.090  53.660  1.00  0.00     0.000 A 
HETATM   14  C10 UNL     1      29.767   0.263  53.758  1.00  0.00     0.001 A 
HETATM   15  C11 UNL     1      28.705   1.066  53.388  1.00  0.00     0.012 A 
ENDBRANCH   8  10
ENDBRANCH   1   3
BRANCH   1  16
HETATM   16  C14 UNL     1      25.721   4.607  49.352  1.00  0.00     0.719 C 
HETATM   17  N2  UNL     1      24.816   5.487  48.993  1.00  0.00    -0.104 NA
HETATM   18  C15 UNL     1      25.185   6.853  48.708  1.00  0.00     0.185 C 
HETATM   19  C16 UNL     1      26.335   7.355  49.513  1.00  0.00     0.102 A 
HETATM   20  C17 UNL     1      26.112   8.789  49.830  1.00  0.00     0.104 A 
HETATM   21  C20 UNL     1      27.617   7.435  48.761  1.00  0.00    -0.039 A 
HETATM   22  F1  UNL     1      24.987   9.088  50.538  1.00  0.00    -0.210 F 
HETATM   23  C18 UNL     1      27.062   9.574  49.366  1.00  0.00     0.039 A 
HETATM   24  C19 UNL     1      28.016   8.713  48.688  1.00  0.00     0.011 A 
HETATM   25  O1  UNL     1      28.368   6.414  48.184  1.00  0.00     0.000 OA
HETATM   26  C21 UNL     1      29.740   6.277  48.347  1.00  0.00     0.132 A 
HETATM   27  C22 UNL     1      27.820   4.932  48.416  1.00  0.00     0.294 A 
HETATM   28  N3  UNL     1      29.228   5.108  48.522  1.00  0.00    -0.268 NA
HETATM   29  N4  UNL     1      27.144   4.781  49.528  1.00  0.00    -0.073 NA
ENDBRANCH   1  16
TORSDOF 3
ENDMDL
MODEL 6
REMARK VINA RESULT:      -9.6      3.719      7.750
REMARK  3 active torsions:
REMARK  status: ('A' for Active; 'I' for Inactive)
REMARK    1  A    between atoms: C5_5  and  C6_6 
REMARK    2  A    between atoms: C13_13  and  N1_14 
REMARK    3  A    between atoms: N1_14  and  C14_15 
ROOT
HETATM    1  N1  UNL     1      22.992   1.321  51.332  1.00  0.00    -0.188 N 
HETATM    2  H12 UNL     1      22.612   0.716  50.541  1.00  0.00     0.184 HD
ENDROOT
BRANCH   1   3
HETATM    3  C13 UNL     1      23.658   0.622  52.375  1.00  0.00     0.056 A 
HETATM    4  C2  UNL     1      22.968   0.015  53.413  1.00  0.00    -0.035 A 
HETATM    5  C1  UNL     1      21.471   0.124  53.386  1.00  0.00     0.050 C 
HETATM    6  C3  UNL     1      23.610  -0.659  54.430  1.00  0.00     0.010 A 
HETATM    7  C4  UNL     1      24.983  -0.766  54.469  1.00  0.00     0.013 A 
HETATM    8  C5  UNL     1      25.698  -0.181  53.464  1.00  0.00    -0.024 A 
HETATM    9  C12 UNL     1      25.024   0.484  52.465  1.00  0.00     0.043 A 
BRANCH   8  10
HETATM   10  C6  UNL     1      27.154  -0.289  53.497  1.00  0.00    -0.026 A 
HETATM   11  C7  UNL     1      27.862   0.840  53.915  1.00  0.00     0.012 A 
HETATM   12  C8  UNL     1      29.229   0.808  53.970  1.00  0.00     0.001 A 
HETATM   13  C9  UNL     1      29.909  -0.330  53.614  1.00  0.00     0.000 A 
HETATM   14  C10 UNL     1      29.230  -1.434  53.206  1.00  0.00     0.001 A 
HETATM   15  C11 UNL     1      27.850  -1.435  53.140  1.00  0.00     0.012 A 
ENDBRANCH   8  10
ENDBRANCH   1   3
BRANCH   1  16
HETATM   16  C14 UNL     1      22.798   2.726  51.277  1.00  0.00     0.719 C 
HETATM   17  N2  UNL     1      23.547   3.390  52.125  1.00  0.00    -0.104 NA
HETATM   18  C15 UNL     1      23.478   4.830  52.203  1.00  0.00     0.185 C 
HETATM   19  C16 UNL     1      23.169   5.498  50.906  1.00  0.00     0.102 A 
HETATM   20  C17 UNL     1      23.917   6.779  50.833  1.00  0.00     0.104 A 
HETATM   21  C20 UNL     1      21.769   5.989  50.792  1.00  0.00    -0.039 A 
HETATM   22  F1  UNL     1      25.275   6.696  50.909  1.00  0.00    -0.210 F 
HETATM   23  C18 UNL     1      23.133   7.828  50.701  1.00  0.00     0.039 A 
HETATM   24  C19 UNL     1      21.769   7.325  50.676  1.00  0.00     0.011 A 
HETATM   25  O1  UNL     1      20.576   5.269  50.793  1.00  0.00     0.000 OA
HETATM   26  C21 UNL     1      19.558   5.459  49.869  1.00  0.00     0.132 A 
HETATM   27  C22 UNL     1      20.725   3.680  50.856  1.00  0.00     0.294 A 
HETATM   28  N3  UNL     1      19.732   4.187  49.970  1.00  0.00    -0.268 NA
HETATM   29  N4  UNL     1      21.833   3.226  50.326  1.00  0.00    -0.073 NA
ENDBRANCH   1  16
TORSDOF 3
ENDMDL
MODEL 7
REMARK VINA RESULT:      -9.6      3.539      6.867
REMARK  3 active torsions:
REMARK  status: ('A' for Active; 'I' for Inactive)
REMARK    1  A    between atoms: C5_5  and  C6_6 
REMARK    2  A    between atoms: C13_13  and  N1_14 
REMARK    3  A    between atoms: N1_14  and  C14_15 
ROOT
HETATM    1  N1  UNL     1      22.644   3.485  51.939  1.00  0.00    -0.188 N 
HETATM    2  H12 UNL     1      22.494   4.497  52.236  1.00  0.00     0.184 HD
ENDROOT
BRANCH   1   3
HETATM    3  C13 UNL     1      23.934   3.179  51.427  1.00  0.00     0.056 A 
HETATM    4  C2  UNL     1      24.345   3.596  50.171  1.00  0.00    -0.035 A 
HETATM    5  C1  UNL     1      23.362   4.397  49.368  1.00  0.00     0.050 C 
HETATM    6  C3  UNL     1      25.593   3.297  49.667  1.00  0.00     0.010 A 
HETATM    7  C4  UNL     1      26.506   2.562  50.392  1.00  0.00     0.013 A 
HETATM    8  C5  UNL     1      26.138   2.133  51.634  1.00  0.00    -0.024 A 
HETATM    9  C12 UNL     1      24.884   2.449  52.105  1.00  0.00     0.043 A 
BRANCH   8  10
HETATM   10  C6  UNL     1      27.098   1.353  52.410  1.00  0.00    -0.026 A 
HETATM   11  C7  UNL     1      26.948  -0.036  52.388  1.00  0.00     0.012 A 
HETATM   12  C8  UNL     1      27.814  -0.829  53.092  1.00  0.00     0.001 A 
HETATM   13  C9  UNL     1      28.829  -0.263  53.823  1.00  0.00     0.000 A 
HETATM   14  C10 UNL     1      28.984   1.086  53.852  1.00  0.00     0.001 A 
HETATM   15  C11 UNL     1      28.127   1.914  53.152  1.00  0.00     0.012 A 
ENDBRANCH   8  10
ENDBRANCH   1   3
BRANCH   1  16
HETATM   16  C14 UNL     1      21.572   2.564  52.073  1.00  0.00     0.719 C 
HETATM   17  N2  UNL     1      20.396   3.094  51.835  1.00  0.00    -0.104 NA
HETATM   18  C15 UNL     1      19.194   2.298  51.926  1.00  0.00     0.185 C 
HETATM   19  C16 UNL     1      19.380   0.867  51.552  1.00  0.00     0.102 A 
HETATM   20  C17 UNL     1      18.157   0.388  50.858  1.00  0.00     0.104 A 
HETATM   21  C20 UNL     1      19.422  -0.065  52.711  1.00  0.00    -0.039 A 
HETATM   22  F1  UNL     1      17.810   1.043  49.714  1.00  0.00    -0.210 F 
HETATM   23  C18 UNL     1      17.579  -0.624  51.469  1.00  0.00     0.039 A 
HETATM   24  C19 UNL     1      18.383  -0.911  52.646  1.00  0.00     0.011 A 
HETATM   25  O1  UNL     1      20.343  -0.139  53.753  1.00  0.00     0.000 OA
HETATM   26  C21 UNL     1      20.932  -1.321  54.182  1.00  0.00     0.132 A 
HETATM   27  C22 UNL     1      21.575   0.874  53.663  1.00  0.00     0.294 A 
HETATM   28  N3  UNL     1      21.877  -0.451  54.087  1.00  0.00    -0.268 NA
HETATM   29  N4  UNL     1      21.905   1.207  52.440  1.00  0.00    -0.073 NA
ENDBRANCH   1  16
TORSDOF 3
ENDMDL
MODEL 8
REMARK VINA RESULT:      -9.5      1.960      2.664
REMARK  3 active torsions:
REMARK  status: ('A' for Active; 'I' for Inactive)
REMARK    1  A    between atoms: C5_5  and  C6_6 
REMARK    2  A    between atoms: C13_13  and  N1_14 
REMARK    3  A    between atoms: N1_14  and  C14_15 
ROOT
HETATM    1  N1  UNL     1      24.596   3.066  49.759  1.00  0.00    -0.188 N 
HETATM    2  H12 UNL     1      24.050   2.569  48.990  1.00  0.00     0.184 HD
ENDROOT
BRANCH   1   3
HETATM    3  C13 UNL     1      25.036   4.381  49.447  1.00  0.00     0.056 A 
HETATM    4  C2  UNL     1      24.207   5.485  49.576  1.00  0.00    -0.035 A 
HETATM    5  C1  UNL     1      22.812   5.230  50.069  1.00  0.00     0.050 C 
HETATM    6  C3  UNL     1      24.627   6.761  49.270  1.00  0.00     0.010 A 
HETATM    7  C4  UNL     1      25.903   7.012  48.816  1.00  0.00     0.013 A 
HETATM    8  C5  UNL     1      26.750   5.950  48.676  1.00  0.00    -0.024 A 
HETATM    9  C12 UNL     1      26.297   4.689  48.990  1.00  0.00     0.043 A 
BRANCH   8  10
HETATM   10  C6  UNL     1      28.105   6.204  48.195  1.00  0.00    -0.026 A 
HETATM   11  C7  UNL     1      28.327   7.419  47.542  1.00  0.00     0.012 A 
HETATM   12  C8  UNL     1      29.573   7.723  47.067  1.00  0.00     0.001 A 
HETATM   13  C9  UNL     1      30.609   6.836  47.227  1.00  0.00     0.000 A 
HETATM   14  C10 UNL     1      30.405   5.651  47.860  1.00  0.00     0.001 A 
HETATM   15  C11 UNL     1      29.158   5.314  48.351  1.00  0.00     0.012 A 
ENDBRANCH   8  10
ENDBRANCH   1   3
BRANCH   1  16
HETATM   16  C14 UNL     1      24.832   2.388  50.984  1.00  0.00     0.719 C 
HETATM   17  N2  UNL     1      23.757   2.262  51.725  1.00  0.00    -0.104 NA
HETATM   18  C15 UNL     1      23.815   1.597  53.005  1.00  0.00     0.185 C 
HETATM   19  C16 UNL     1      24.820   0.498  53.078  1.00  0.00     0.102 A 
HETATM   20  C17 UNL     1      24.283  -0.591  53.933  1.00  0.00     0.104 A 
HETATM   21  C20 UNL     1      26.057   0.852  53.826  1.00  0.00    -0.039 A 
HETATM   22  F1  UNL     1      23.115  -1.164  53.527  1.00  0.00    -0.210 F 
HETATM   23  C18 UNL     1      25.038  -0.845  54.981  1.00  0.00     0.039 A 
HETATM   24  C19 UNL     1      26.164   0.072  54.912  1.00  0.00     0.011 A 
HETATM   25  O1  UNL     1      27.020   1.817  53.538  1.00  0.00     0.000 OA
HETATM   26  C21 UNL     1      28.387   1.576  53.563  1.00  0.00     0.132 A 
HETATM   27  C22 UNL     1      26.812   2.618  52.172  1.00  0.00     0.294 A 
HETATM   28  N3  UNL     1      28.145   2.226  52.477  1.00  0.00    -0.268 NA
HETATM   29  N4  UNL     1      26.179   1.941  51.246  1.00  0.00    -0.073 NA
ENDBRANCH   1  16
TORSDOF 3
ENDMDL
MODEL 9
REMARK VINA RESULT:      -9.5      3.414      7.422
REMARK  3 active torsions:
REMARK  status: ('A' for Active; 'I' for Inactive)
REMARK    1  A    between atoms: C5_5  and  C6_6 
REMARK    2  A    between atoms: C13_13  and  N1_14 
REMARK    3  A    between atoms: N1_14  and  C14_15 
ROOT
HETATM    1  N1  UNL     1      23.700   3.405  52.657  1.00  0.00    -0.188 N 
HETATM    2  H12 UNL     1      23.445   3.959  53.531  1.00  0.00     0.184 HD
ENDROOT
BRANCH   1   3
HETATM    3  C13 UNL     1      24.119   2.065  52.879  1.00  0.00     0.056 A 
HETATM    4  C2  UNL     1      23.214   1.022  53.003  1.00  0.00    -0.035 A 
HETATM    5  C1  UNL     1      21.759   1.371  52.886  1.00  0.00     0.050 C 
HETATM    6  C3  UNL     1      23.615  -0.278  53.224  1.00  0.00     0.010 A 
HETATM    7  C4  UNL     1      24.947  -0.614  53.335  1.00  0.00     0.013 A 
HETATM    8  C5  UNL     1      25.868   0.387  53.219  1.00  0.00    -0.024 A 
HETATM    9  C12 UNL     1      25.433   1.674  52.998  1.00  0.00     0.043 A 
BRANCH   8  10
HETATM   10  C6  UNL     1      27.282   0.042  53.335  1.00  0.00    -0.026 A 
HETATM   11  C7  UNL     1      27.632  -1.286  53.078  1.00  0.00     0.012 A 
HETATM   12  C8  UNL     1      28.940  -1.679  53.167  1.00  0.00     0.001 A 
HETATM   13  C9  UNL     1      29.912  -0.771  53.511  1.00  0.00     0.000 A 
HETATM   14  C10 UNL     1      29.583   0.523  53.762  1.00  0.00     0.001 A 
HETATM   15  C11 UNL     1      28.272   0.951  53.680  1.00  0.00     0.012 A 
ENDBRANCH   8  10
ENDBRANCH   1   3
BRANCH   1  16
HETATM   16  C14 UNL     1      23.606   4.039  51.390  1.00  0.00     0.719 C 
HETATM   17  N2  UNL     1      23.900   3.245  50.387  1.00  0.00    -0.104 NA
HETATM   18  C15 UNL     1      23.856   3.726  49.027  1.00  0.00     0.185 C 
HETATM   19  C16 UNL     1      22.822   4.773  48.782  1.00  0.00     0.102 A 
HETATM   20  C17 UNL     1      22.260   4.585  47.420  1.00  0.00     0.104 A 
HETATM   21  C20 UNL     1      23.368   6.153  48.667  1.00  0.00    -0.039 A 
HETATM   22  F1  UNL     1      21.661   3.387  47.168  1.00  0.00    -0.210 F 
HETATM   23  C18 UNL     1      22.428   5.633  46.642  1.00  0.00     0.039 A 
HETATM   24  C19 UNL     1      23.132   6.628  47.435  1.00  0.00     0.011 A 
HETATM   25  O1  UNL     1      24.032   6.923  49.619  1.00  0.00     0.000 OA
HETATM   26  C21 UNL     1      23.719   8.246  49.897  1.00  0.00     0.132 A 
HETATM   27  C22 UNL     1      24.173   6.266  51.068  1.00  0.00     0.294 A 
HETATM   28  N3  UNL     1      23.849   7.651  51.032  1.00  0.00    -0.268 NA
HETATM   29  N4  UNL     1      23.212   5.427  51.370  1.00  0.00    -0.073 NA
ENDBRANCH   1  16
TORSDOF 3
ENDMDL
