MODEL 1
REMARK VINA RESULT:      -8.5      0.000      0.000
REMARK  8 active torsions:
REMARK  status: ('A' for Active; 'I' for Inactive)
REMARK    1  A    between atoms: N1_6  and  C5_7 
REMARK    2  A    between atoms: C10_14  and  N4_15 
REMARK    3  A    between atoms: N4_15  and  C11_16 
REMARK    4  A    between atoms: C11_16  and  N5_18 
REMARK    5  A    between atoms: N5_18  and  C12_19 
REMARK    6  A    between atoms: C12_19  and  C13_20 
REMARK    7  A    between atoms: C13_20  and  C14_21 
REMARK    8  A    between atoms: C14_21  and  N6_22 
ROOT
HETATM    1  C5  UNL     1      25.255  -0.427  54.167  1.00  0.00     0.144 A 
HETATM    2  N2  UNL     1      24.861  -1.296  55.113  1.00  0.00    -0.223 NA
HETATM    3  C6  UNL     1      23.546  -1.509  55.351  1.00  0.00     0.236 A 
HETATM    4  N3  UNL     1      22.627  -0.845  54.634  1.00  0.00    -0.241 NA
HETATM    5  C7  UNL     1      22.944   0.037  53.674  1.00  0.00     0.072 A 
HETATM    6  C8  UNL     1      21.995   0.707  52.937  1.00  0.00     0.035 A 
HETATM    7  C9  UNL     1      22.504   1.563  51.990  1.00  0.00     0.032 A 
HETATM    8  C10 UNL     1      23.826   1.814  51.705  1.00  0.00     0.035 A 
HETATM    9  C19 UNL     1      24.699   1.098  52.494  1.00  0.00     0.047 A 
HETATM   10  C20 UNL     1      24.281   0.228  53.459  1.00  0.00     0.041 A 
ENDROOT
BRANCH   8  11
HETATM   11  N4  UNL     1      24.292   2.708  50.721  1.00  0.00    -0.333 N 
HETATM   12  H7  UNL     1      24.165   2.304  49.759  1.00  0.00     0.168 HD
BRANCH  11  13
HETATM   13  C11 UNL     1      24.882   3.986  50.584  1.00  0.00     0.172 C 
HETATM   14  S1  UNL     1      23.878   5.244  51.084  1.00  0.00    -0.041 SA
BRANCH  13  15
HETATM   15  N5  UNL     1      26.135   4.556  50.125  1.00  0.00    -0.367 N 
HETATM   16  H8  UNL     1      26.536   5.299  50.732  1.00  0.00     0.161 HD
BRANCH  15  17
HETATM   17  C12 UNL     1      27.046   4.402  49.024  1.00  0.00     0.123 C 
BRANCH  17  18
HETATM   18  C13 UNL     1      27.576   5.732  48.584  1.00  0.00     0.050 C 
BRANCH  18  19
HETATM   19  C14 UNL     1      29.051   5.627  48.322  1.00  0.00     0.274 C 
BRANCH  19  20
HETATM   20  N6  UNL     1      29.530   6.690  47.500  1.00  0.00     0.092 N 
HETATM   21  C15 UNL     1      28.706   7.845  47.412  1.00  0.00     0.298 C 
HETATM   22  C16 UNL     1      29.279   9.083  48.069  1.00  0.00     0.198 C 
HETATM   23  O1  UNL     1      29.978   8.787  49.233  1.00  0.00    -0.388 OA
HETATM   24  C17 UNL     1      31.051   7.963  48.974  1.00  0.00     0.198 C 
HETATM   25  C18 UNL     1      30.875   7.043  47.806  1.00  0.00     0.298 C 
ENDBRANCH  19  20
ENDBRANCH  18  19
ENDBRANCH  17  18
ENDBRANCH  15  17
ENDBRANCH  13  15
ENDBRANCH  11  13
ENDBRANCH   8  11
BRANCH   1  26
HETATM   26  N1  UNL     1      26.661  -0.304  54.086  1.00  0.00    -0.335 N 
HETATM   27  C4  UNL     1      27.179  -1.386  53.284  1.00  0.00     0.093 A 
HETATM   28  C3  UNL     1      28.484  -1.505  53.031  1.00  0.00     0.020 A 
HETATM   29  C2  UNL     1      29.462  -0.557  53.546  1.00  0.00     0.041 A 
HETATM   30  C1  UNL     1      28.919   0.405  54.270  1.00  0.00     0.112 A 
HETATM   31  F1  UNL     1      29.703   1.363  54.817  1.00  0.00    -0.209 F 
HETATM   32  C21 UNL     1      27.521   0.705  54.667  1.00  0.00     0.200 A 
ENDBRANCH   1  26
TORSDOF 8
ENDMDL
MODEL 2
REMARK VINA RESULT:      -8.4      1.780      2.982
REMARK  8 active torsions:
REMARK  status: ('A' for Active; 'I' for Inactive)
REMARK    1  A    between atoms: N1_6  and  C5_7 
REMARK    2  A    between atoms: C10_14  and  N4_15 
REMARK    3  A    between atoms: N4_15  and  C11_16 
REMARK    4  A    between atoms: C11_16  and  N5_18 
REMARK    5  A    between atoms: N5_18  and  C12_19 
REMARK    6  A    between atoms: C12_19  and  C13_20 
REMARK    7  A    between atoms: C13_20  and  C14_21 
REMARK    8  A    between atoms: C14_21  and  N6_22 
ROOT
HETATM    1  C5  UNL     1      25.711   1.114  52.525  1.00  0.00     0.144 A 
HETATM    2  N2  UNL     1      24.792   0.339  53.127  1.00  0.00    -0.223 NA
HETATM    3  C6  UNL     1      23.496   0.376  52.740  1.00  0.00     0.236 A 
HETATM    4  N3  UNL     1      23.126   1.194  51.744  1.00  0.00    -0.241 NA
HETATM    5  C7  UNL     1      23.985   1.995  51.096  1.00  0.00     0.072 A 
HETATM    6  C8  UNL     1      23.598   2.824  50.069  1.00  0.00     0.035 A 
HETATM    7  C9  UNL     1      24.614   3.565  49.515  1.00  0.00     0.032 A 
HETATM    8  C10 UNL     1      25.945   3.565  49.867  1.00  0.00     0.035 A 
HETATM    9  C19 UNL     1      26.233   2.704  50.904  1.00  0.00     0.047 A 
HETATM   10  C20 UNL     1      25.286   1.934  51.512  1.00  0.00     0.041 A 
ENDROOT
BRANCH   8  11
HETATM   11  N4  UNL     1      26.947   4.351  49.265  1.00  0.00    -0.333 N 
HETATM   12  H7  UNL     1      27.785   3.764  49.023  1.00  0.00     0.168 HD
BRANCH  11  13
HETATM   13  C11 UNL     1      27.214   5.681  48.868  1.00  0.00     0.172 C 
HETATM   14  S1  UNL     1      25.825   6.616  48.679  1.00  0.00    -0.041 SA
BRANCH  13  15
HETATM   15  N5  UNL     1      28.367   6.509  48.564  1.00  0.00    -0.367 N 
HETATM   16  H8  UNL     1      29.285   6.120  48.856  1.00  0.00     0.161 HD
BRANCH  15  17
HETATM   17  C12 UNL     1      28.646   7.778  47.948  1.00  0.00     0.123 C 
BRANCH  17  18
HETATM   18  C13 UNL     1      29.720   8.505  48.696  1.00  0.00     0.050 C 
BRANCH  18  19
HETATM   19  C14 UNL     1      30.951   8.606  47.843  1.00  0.00     0.274 C 
BRANCH  19  20
HETATM   20  N6  UNL     1      32.054   7.894  48.400  1.00  0.00     0.092 N 
HETATM   21  C15 UNL     1      31.881   7.384  49.716  1.00  0.00     0.298 C 
HETATM   22  C16 UNL     1      31.812   5.874  49.806  1.00  0.00     0.198 C 
HETATM   23  O1  UNL     1      31.147   5.311  48.724  1.00  0.00    -0.388 OA
HETATM   24  C17 UNL     1      31.792   5.592  47.540  1.00  0.00     0.198 C 
HETATM   25  C18 UNL     1      32.544   6.886  47.522  1.00  0.00     0.298 C 
ENDBRANCH  19  20
ENDBRANCH  18  19
ENDBRANCH  17  18
ENDBRANCH  15  17
ENDBRANCH  13  15
ENDBRANCH  11  13
ENDBRANCH   8  11
BRANCH   1  26
HETATM   26  N1  UNL     1      27.001   0.974  53.087  1.00  0.00    -0.335 N 
HETATM   27  C4  UNL     1      27.464  -0.374  52.860  1.00  0.00     0.093 A 
HETATM   28  C3  UNL     1      28.666  -0.778  53.276  1.00  0.00     0.020 A 
HETATM   29  C2  UNL     1      29.580   0.110  53.981  1.00  0.00     0.041 A 
HETATM   30  C1  UNL     1      29.092   1.325  54.154  1.00  0.00     0.112 A 
HETATM   31  F1  UNL     1      29.827   2.264  54.794  1.00  0.00    -0.209 F 
HETATM   32  C21 UNL     1      27.803   1.958  53.781  1.00  0.00     0.200 A 
ENDBRANCH   1  26
TORSDOF 8
ENDMDL
MODEL 3
REMARK VINA RESULT:      -8.3      1.239      1.629
REMARK  8 active torsions:
REMARK  status: ('A' for Active; 'I' for Inactive)
REMARK    1  A    between atoms: N1_6  and  C5_7 
REMARK    2  A    between atoms: C10_14  and  N4_15 
REMARK    3  A    between atoms: N4_15  and  C11_16 
REMARK    4  A    between atoms: C11_16  and  N5_18 
REMARK    5  A    between atoms: N5_18  and  C12_19 
REMARK    6  A    between atoms: C12_19  and  C13_20 
REMARK    7  A    between atoms: C13_20  and  C14_21 
REMARK    8  A    between atoms: C14_21  and  N6_22 
ROOT
HETATM    1  C5  UNL     1      25.656   0.012  53.698  1.00  0.00     0.144 A 
HETATM    2  N2  UNL     1      25.163  -0.857  54.597  1.00  0.00    -0.223 NA
HETATM    3  C6  UNL     1      23.835  -1.104  54.664  1.00  0.00     0.236 A 
HETATM    4  N3  UNL     1      23.001  -0.475  53.823  1.00  0.00    -0.241 NA
HETATM    5  C7  UNL     1      23.418   0.404  52.899  1.00  0.00     0.072 A 
HETATM    6  C8  UNL     1      22.557   1.038  52.033  1.00  0.00     0.035 A 
HETATM    7  C9  UNL     1      23.162   1.897  51.148  1.00  0.00     0.032 A 
HETATM    8  C10 UNL     1      24.504   2.182  51.035  1.00  0.00     0.035 A 
HETATM    9  C19 UNL     1      25.284   1.500  51.943  1.00  0.00     0.047 A 
HETATM   10  C20 UNL     1      24.766   0.631  52.858  1.00  0.00     0.041 A 
ENDROOT
BRANCH   8  11
HETATM   11  N4  UNL     1      25.071   3.078  50.107  1.00  0.00    -0.333 N 
HETATM   12  H7  UNL     1      25.071   2.663  49.141  1.00  0.00     0.168 HD
BRANCH  11  13
HETATM   13  C11 UNL     1      25.649   4.366  50.031  1.00  0.00     0.172 C 
HETATM   14  S1  UNL     1      24.596   5.601  50.483  1.00  0.00    -0.041 SA
BRANCH  13  15
HETATM   15  N5  UNL     1      26.922   4.962  49.666  1.00  0.00    -0.367 N 
HETATM   16  H8  UNL     1      27.326   5.613  50.367  1.00  0.00     0.161 HD
BRANCH  15  17
HETATM   17  C12 UNL     1      27.849   4.927  48.568  1.00  0.00     0.123 C 
BRANCH  17  18
HETATM   18  C13 UNL     1      28.289   6.310  48.202  1.00  0.00     0.050 C 
BRANCH  18  19
HETATM   19  C14 UNL     1      29.728   6.286  47.773  1.00  0.00     0.274 C 
BRANCH  19  20
HETATM   20  N6  UNL     1      30.622   6.418  48.876  1.00  0.00     0.092 N 
HETATM   21  C15 UNL     1      31.757   5.561  48.879  1.00  0.00     0.298 C 
HETATM   22  C16 UNL     1      33.082   6.263  48.673  1.00  0.00     0.198 C 
HETATM   23  O1  UNL     1      32.984   7.322  47.778  1.00  0.00    -0.388 OA
HETATM   24  C17 UNL     1      32.111   8.284  48.237  1.00  0.00     0.198 C 
HETATM   25  C18 UNL     1      31.003   7.770  49.103  1.00  0.00     0.298 C 
ENDBRANCH  19  20
ENDBRANCH  18  19
ENDBRANCH  17  18
ENDBRANCH  15  17
ENDBRANCH  13  15
ENDBRANCH  11  13
ENDBRANCH   8  11
BRANCH   1  26
HETATM   26  N1  UNL     1      27.056   0.174  53.800  1.00  0.00    -0.335 N 
HETATM   27  C4  UNL     1      27.702  -0.993  53.248  1.00  0.00     0.093 A 
HETATM   28  C3  UNL     1      29.032  -1.098  53.203  1.00  0.00     0.020 A 
HETATM   29  C2  UNL     1      29.910  -0.050  53.706  1.00  0.00     0.041 A 
HETATM   30  C1  UNL     1      29.252   0.985  54.197  1.00  0.00     0.112 A 
HETATM   31  F1  UNL     1      29.933   2.040  54.702  1.00  0.00    -0.209 F 
HETATM   32  C21 UNL     1      27.806   1.287  54.342  1.00  0.00     0.200 A 
ENDBRANCH   1  26
TORSDOF 8
ENDMDL
MODEL 4
REMARK VINA RESULT:      -8.3      3.046      4.142
REMARK  8 active torsions:
REMARK  status: ('A' for Active; 'I' for Inactive)
REMARK    1  A    between atoms: N1_6  and  C5_7 
REMARK    2  A    between atoms: C10_14  and  N4_15 
REMARK    3  A    between atoms: N4_15  and  C11_16 
REMARK    4  A    between atoms: C11_16  and  N5_18 
REMARK    5  A    between atoms: N5_18  and  C12_19 
REMARK    6  A    between atoms: C12_19  and  C13_20 
REMARK    7  A    between atoms: C13_20  and  C14_21 
REMARK    8  A    between atoms: C14_21  and  N6_22 
ROOT
HETATM    1  C5  UNL     1      24.524  -0.367  54.032  1.00  0.00     0.144 A 
HETATM    2  N2  UNL     1      23.999  -1.189  54.956  1.00  0.00    -0.223 NA
HETATM    3  C6  UNL     1      22.659  -1.271  55.127  1.00  0.00     0.236 A 
HETATM    4  N3  UNL     1      21.848  -0.524  54.364  1.00  0.00    -0.241 NA
HETATM    5  C7  UNL     1      22.298   0.318  53.422  1.00  0.00     0.072 A 
HETATM    6  C8  UNL     1      21.458   1.075  52.638  1.00  0.00     0.035 A 
HETATM    7  C9  UNL     1      22.096   1.873  51.719  1.00  0.00     0.032 A 
HETATM    8  C10 UNL     1      23.450   1.993  51.502  1.00  0.00     0.035 A 
HETATM    9  C19 UNL     1      24.206   1.198  52.334  1.00  0.00     0.047 A 
HETATM   10  C20 UNL     1      23.656   0.377  53.276  1.00  0.00     0.041 A 
ENDROOT
BRANCH   8  11
HETATM   11  N4  UNL     1      24.050   2.832  50.544  1.00  0.00    -0.333 N 
HETATM   12  H7  UNL     1      23.660   2.644  49.586  1.00  0.00     0.168 HD
BRANCH  11  13
HETATM   13  C11 UNL     1      25.015   3.860  50.430  1.00  0.00     0.172 C 
HETATM   14  S1  UNL     1      26.468   3.344  49.750  1.00  0.00    -0.041 SA
BRANCH  13  15
HETATM   15  N5  UNL     1      25.130   5.275  50.734  1.00  0.00    -0.367 N 
HETATM   16  H8  UNL     1      24.955   5.533  51.725  1.00  0.00     0.161 HD
BRANCH  15  17
HETATM   17  C12 UNL     1      25.429   6.501  50.046  1.00  0.00     0.123 C 
BRANCH  17  18
HETATM   18  C13 UNL     1      24.689   6.574  48.747  1.00  0.00     0.050 C 
BRANCH  18  19
HETATM   19  C14 UNL     1      23.703   7.706  48.789  1.00  0.00     0.274 C 
BRANCH  19  20
HETATM   20  N6  UNL     1      22.359   7.257  48.630  1.00  0.00     0.092 N 
HETATM   21  C15 UNL     1      22.183   5.894  48.265  1.00  0.00     0.298 C 
HETATM   22  C16 UNL     1      21.565   5.025  49.340  1.00  0.00     0.198 C 
HETATM   23  O1  UNL     1      21.994   5.378  50.614  1.00  0.00    -0.388 OA
HETATM   24  C17 UNL     1      21.635   6.672  50.920  1.00  0.00     0.198 C 
HETATM   25  C18 UNL     1      21.542   7.596  49.746  1.00  0.00     0.298 C 
ENDBRANCH  19  20
ENDBRANCH  18  19
ENDBRANCH  17  18
ENDBRANCH  15  17
ENDBRANCH  13  15
ENDBRANCH  11  13
ENDBRANCH   8  11
BRANCH   1  26
HETATM   26  N1  UNL     1      25.938  -0.382  54.023  1.00  0.00    -0.335 N 
HETATM   27  C4  UNL     1      26.388  -1.307  53.010  1.00  0.00     0.093 A 
HETATM   28  C3  UNL     1      27.687  -1.507  52.775  1.00  0.00     0.020 A 
HETATM   29  C2  UNL     1      28.725  -0.811  53.522  1.00  0.00     0.041 A 
HETATM   30  C1  UNL     1      28.242   0.017  54.432  1.00  0.00     0.112 A 
HETATM   31  F1  UNL     1      29.087   0.736  55.207  1.00  0.00    -0.209 F 
HETATM   32  C21 UNL     1      26.862   0.370  54.845  1.00  0.00     0.200 A 
ENDBRANCH   1  26
TORSDOF 8
ENDMDL
MODEL 5
REMARK VINA RESULT:      -8.3      1.639      2.132
REMARK  8 active torsions:
REMARK  status: ('A' for Active; 'I' for Inactive)
REMARK    1  A    between atoms: N1_6  and  C5_7 
REMARK    2  A    between atoms: C10_14  and  N4_15 
REMARK    3  A    between atoms: N4_15  and  C11_16 
REMARK    4  A    between atoms: C11_16  and  N5_18 
REMARK    5  A    between atoms: N5_18  and  C12_19 
REMARK    6  A    between atoms: C12_19  and  C13_20 
REMARK    7  A    between atoms: C13_20  and  C14_21 
REMARK    8  A    between atoms: C14_21  and  N6_22 
ROOT
HETATM    1  C5  UNL     1      25.447  -0.360  54.150  1.00  0.00     0.144 A 
HETATM    2  N2  UNL     1      25.086  -1.227  55.111  1.00  0.00    -0.223 NA
HETATM    3  C6  UNL     1      23.781  -1.501  55.342  1.00  0.00     0.236 A 
HETATM    4  N3  UNL     1      22.838  -0.900  54.601  1.00  0.00    -0.241 NA
HETATM    5  C7  UNL     1      23.121  -0.025  53.625  1.00  0.00     0.072 A 
HETATM    6  C8  UNL     1      22.147   0.581  52.864  1.00  0.00     0.035 A 
HETATM    7  C9  UNL     1      22.622   1.440  51.902  1.00  0.00     0.032 A 
HETATM    8  C10 UNL     1      23.933   1.752  51.624  1.00  0.00     0.035 A 
HETATM    9  C19 UNL     1      24.832   1.098  52.438  1.00  0.00     0.047 A 
HETATM   10  C20 UNL     1      24.448   0.230  53.418  1.00  0.00     0.041 A 
ENDROOT
BRANCH   8  11
HETATM   11  N4  UNL     1      24.364   2.647  50.625  1.00  0.00    -0.333 N 
HETATM   12  H7  UNL     1      24.058   2.319  49.674  1.00  0.00     0.168 HD
BRANCH  11  13
HETATM   13  C11 UNL     1      25.079   3.856  50.463  1.00  0.00     0.172 C 
HETATM   14  S1  UNL     1      26.514   3.676  49.599  1.00  0.00    -0.041 SA
BRANCH  13  15
HETATM   15  N5  UNL     1      24.940   5.253  50.832  1.00  0.00    -0.367 N 
HETATM   16  H8  UNL     1      25.823   5.734  51.095  1.00  0.00     0.161 HD
BRANCH  15  17
HETATM   17  C12 UNL     1      23.896   6.233  50.953  1.00  0.00     0.123 C 
BRANCH  17  18
HETATM   18  C13 UNL     1      24.402   7.595  50.591  1.00  0.00     0.050 C 
BRANCH  18  19
HETATM   19  C14 UNL     1      25.845   7.507  50.185  1.00  0.00     0.274 C 
BRANCH  19  20
HETATM   20  N6  UNL     1      26.325   8.729  49.629  1.00  0.00     0.092 N 
HETATM   21  C15 UNL     1      27.478   9.295  50.239  1.00  0.00     0.298 C 
HETATM   22  C16 UNL     1      28.725   9.273  49.381  1.00  0.00     0.198 C 
HETATM   23  O1  UNL     1      28.814   8.120  48.610  1.00  0.00    -0.388 OA
HETATM   24  C17 UNL     1      27.752   8.021  47.739  1.00  0.00     0.198 C 
HETATM   25  C18 UNL     1      26.481   8.653  48.216  1.00  0.00     0.298 C 
ENDBRANCH  19  20
ENDBRANCH  18  19
ENDBRANCH  17  18
ENDBRANCH  15  17
ENDBRANCH  13  15
ENDBRANCH  11  13
ENDBRANCH   8  11
BRANCH   1  26
HETATM   26  N1  UNL     1      26.845  -0.167  54.079  1.00  0.00    -0.335 N 
HETATM   27  C4  UNL     1      27.436  -1.287  53.386  1.00  0.00     0.093 A 
HETATM   28  C3  UNL     1      28.750  -1.356  53.164  1.00  0.00     0.020 A 
HETATM   29  C2  UNL     1      29.666  -0.314  53.607  1.00  0.00     0.041 A 
HETATM   30  C1  UNL     1      29.058   0.677  54.234  1.00  0.00     0.112 A 
HETATM   31  F1  UNL     1      29.779   1.722  54.704  1.00  0.00    -0.209 F 
HETATM   32  C21 UNL     1      27.639   0.934  54.580  1.00  0.00     0.200 A 
ENDBRANCH   1  26
TORSDOF 8
ENDMDL
MODEL 6
REMARK VINA RESULT:      -8.2      1.684      2.775
REMARK  8 active torsions:
REMARK  status: ('A' for Active; 'I' for Inactive)
REMARK    1  A    between atoms: N1_6  and  C5_7 
REMARK    2  A    between atoms: C10_14  and  N4_15 
REMARK    3  A    between atoms: N4_15  and  C11_16 
REMARK    4  A    between atoms: C11_16  and  N5_18 
REMARK    5  A    between atoms: N5_18  and  C12_19 
REMARK    6  A    between atoms: C12_19  and  C13_20 
REMARK    7  A    between atoms: C13_20  and  C14_21 
REMARK    8  A    between atoms: C14_21  and  N6_22 
ROOT
HETATM    1  C5  UNL     1      25.670   1.192  52.529  1.00  0.00     0.144 A 
HETATM    2  N2  UNL     1      24.716   0.519  53.193  1.00  0.00    -0.223 NA
HETATM    3  C6  UNL     1      23.418   0.610  52.819  1.00  0.00     0.236 A 
HETATM    4  N3  UNL     1      23.084   1.381  51.774  1.00  0.00    -0.241 NA
HETATM    5  C7  UNL     1      23.980   2.082  51.063  1.00  0.00     0.072 A 
HETATM    6  C8  UNL     1      23.629   2.863  49.987  1.00  0.00     0.035 A 
HETATM    7  C9  UNL     1      24.680   3.500  49.372  1.00  0.00     0.032 A 
HETATM    8  C10 UNL     1      26.014   3.440  49.708  1.00  0.00     0.035 A 
HETATM    9  C19 UNL     1      26.265   2.635  50.797  1.00  0.00     0.047 A 
HETATM   10  C20 UNL     1      25.281   1.967  51.467  1.00  0.00     0.041 A 
ENDROOT
BRANCH   8  11
HETATM   11  N4  UNL     1      27.053   4.119  49.043  1.00  0.00    -0.333 N 
HETATM   12  H7  UNL     1      27.705   3.438  48.577  1.00  0.00     0.168 HD
BRANCH  11  13
HETATM   13  C11 UNL     1      27.525   5.426  48.782  1.00  0.00     0.172 C 
HETATM   14  S1  UNL     1      26.292   6.550  48.547  1.00  0.00    -0.041 SA
BRANCH  13  15
HETATM   15  N5  UNL     1      28.798   6.111  48.652  1.00  0.00    -0.367 N 
HETATM   16  H8  UNL     1      28.768   7.139  48.799  1.00  0.00     0.161 HD
BRANCH  15  17
HETATM   17  C12 UNL     1      30.169   5.786  48.363  1.00  0.00     0.123 C 
BRANCH  17  18
HETATM   18  C13 UNL     1      30.702   6.660  47.271  1.00  0.00     0.050 C 
BRANCH  18  19
HETATM   19  C14 UNL     1      31.581   7.726  47.860  1.00  0.00     0.274 C 
BRANCH  19  20
HETATM   20  N6  UNL     1      31.113   9.039  47.557  1.00  0.00     0.092 N 
HETATM   21  C15 UNL     1      29.968   9.128  46.719  1.00  0.00     0.298 C 
HETATM   22  C16 UNL     1      28.720   9.641  47.404  1.00  0.00     0.198 C 
HETATM   23  O1  UNL     1      28.616   9.194  48.716  1.00  0.00    -0.388 OA
HETATM   24  C17 UNL     1      29.676   9.634  49.478  1.00  0.00     0.198 C 
HETATM   25  C18 UNL     1      30.954   9.837  48.725  1.00  0.00     0.298 C 
ENDBRANCH  19  20
ENDBRANCH  18  19
ENDBRANCH  17  18
ENDBRANCH  15  17
ENDBRANCH  13  15
ENDBRANCH  11  13
ENDBRANCH   8  11
BRANCH   1  26
HETATM   26  N1  UNL     1      26.958   1.010  53.084  1.00  0.00    -0.335 N 
HETATM   27  C4  UNL     1      27.371  -0.356  52.864  1.00  0.00     0.093 A 
HETATM   28  C3  UNL     1      28.560  -0.800  53.276  1.00  0.00     0.020 A 
HETATM   29  C2  UNL     1      29.510   0.060  53.969  1.00  0.00     0.041 A 
HETATM   30  C1  UNL     1      29.067   1.293  54.136  1.00  0.00     0.112 A 
HETATM   31  F1  UNL     1      29.840   2.209  54.765  1.00  0.00    -0.209 F 
HETATM   32  C21 UNL     1      27.799   1.969  53.766  1.00  0.00     0.200 A 
ENDBRANCH   1  26
TORSDOF 8
ENDMDL
MODEL 7
REMARK VINA RESULT:      -8.0      1.642      2.053
REMARK  8 active torsions:
REMARK  status: ('A' for Active; 'I' for Inactive)
REMARK    1  A    between atoms: N1_6  and  C5_7 
REMARK    2  A    between atoms: C10_14  and  N4_15 
REMARK    3  A    between atoms: N4_15  and  C11_16 
REMARK    4  A    between atoms: C11_16  and  N5_18 
REMARK    5  A    between atoms: N5_18  and  C12_19 
REMARK    6  A    between atoms: C12_19  and  C13_20 
REMARK    7  A    between atoms: C13_20  and  C14_21 
REMARK    8  A    between atoms: C14_21  and  N6_22 
ROOT
HETATM    1  C5  UNL     1      24.575  -0.344  53.785  1.00  0.00     0.144 A 
HETATM    2  N2  UNL     1      23.987  -1.124  54.707  1.00  0.00    -0.223 NA
HETATM    3  C6  UNL     1      22.649  -1.075  54.904  1.00  0.00     0.236 A 
HETATM    4  N3  UNL     1      21.903  -0.238  54.168  1.00  0.00    -0.241 NA
HETATM    5  C7  UNL     1      22.418   0.570  53.229  1.00  0.00     0.072 A 
HETATM    6  C8  UNL     1      21.643   1.419  52.472  1.00  0.00     0.035 A 
HETATM    7  C9  UNL     1      22.340   2.163  51.551  1.00  0.00     0.032 A 
HETATM    8  C10 UNL     1      23.695   2.150  51.309  1.00  0.00     0.035 A 
HETATM    9  C19 UNL     1      24.383   1.271  52.115  1.00  0.00     0.047 A 
HETATM   10  C20 UNL     1      23.772   0.495  53.056  1.00  0.00     0.041 A 
ENDROOT
BRANCH   8  11
HETATM   11  N4  UNL     1      24.360   2.941  50.351  1.00  0.00    -0.333 N 
HETATM   12  H7  UNL     1      24.578   2.378  49.490  1.00  0.00     0.168 HD
BRANCH  11  13
HETATM   13  C11 UNL     1      24.839   4.255  50.148  1.00  0.00     0.172 C 
HETATM   14  S1  UNL     1      23.950   5.427  50.971  1.00  0.00    -0.041 SA
BRANCH  13  15
HETATM   15  N5  UNL     1      25.904   4.919  49.418  1.00  0.00    -0.367 N 
HETATM   16  H8  UNL     1      25.710   5.902  49.142  1.00  0.00     0.161 HD
BRANCH  15  17
HETATM   17  C12 UNL     1      27.221   4.616  48.928  1.00  0.00     0.123 C 
BRANCH  17  18
HETATM   18  C13 UNL     1      27.867   5.839  48.353  1.00  0.00     0.050 C 
BRANCH  18  19
HETATM   19  C14 UNL     1      26.839   6.921  48.182  1.00  0.00     0.274 C 
BRANCH  19  20
HETATM   20  N6  UNL     1      27.432   8.206  48.007  1.00  0.00     0.092 N 
HETATM   21  C15 UNL     1      26.565   9.254  47.594  1.00  0.00     0.298 C 
HETATM   22  C16 UNL     1      26.324  10.325  48.637  1.00  0.00     0.198 C 
HETATM   23  O1  UNL     1      26.258   9.802  49.923  1.00  0.00    -0.388 OA
HETATM   24  C17 UNL     1      27.441   9.190  50.274  1.00  0.00     0.198 C 
HETATM   25  C18 UNL     1      28.209   8.599  49.133  1.00  0.00     0.298 C 
ENDBRANCH  19  20
ENDBRANCH  18  19
ENDBRANCH  17  18
ENDBRANCH  15  17
ENDBRANCH  13  15
ENDBRANCH  11  13
ENDBRANCH   8  11
BRANCH   1  26
HETATM   26  N1  UNL     1      25.979  -0.501  53.748  1.00  0.00    -0.335 N 
HETATM   27  C4  UNL     1      26.577   0.439  54.666  1.00  0.00     0.093 A 
HETATM   28  C3  UNL     1      27.899   0.497  54.842  1.00  0.00     0.020 A 
HETATM   29  C2  UNL     1      28.816  -0.377  54.123  1.00  0.00     0.041 A 
HETATM   30  C1  UNL     1      28.201  -1.208  53.301  1.00  0.00     0.112 A 
HETATM   31  F1  UNL     1      28.921  -2.084  52.562  1.00  0.00    -0.209 F 
HETATM   32  C21 UNL     1      26.772  -1.422  52.963  1.00  0.00     0.200 A 
ENDBRANCH   1  26
TORSDOF 8
ENDMDL
MODEL 8
REMARK VINA RESULT:      -7.9      1.875      2.281
REMARK  8 active torsions:
REMARK  status: ('A' for Active; 'I' for Inactive)
REMARK    1  A    between atoms: N1_6  and  C5_7 
REMARK    2  A    between atoms: C10_14  and  N4_15 
REMARK    3  A    between atoms: N4_15  and  C11_16 
REMARK    4  A    between atoms: C11_16  and  N5_18 
REMARK    5  A    between atoms: N5_18  and  C12_19 
REMARK    6  A    between atoms: C12_19  and  C13_20 
REMARK    7  A    between atoms: C13_20  and  C14_21 
REMARK    8  A    between atoms: C14_21  and  N6_22 
ROOT
HETATM    1  C5  UNL     1      24.405  -0.311  54.088  1.00  0.00     0.144 A 
HETATM    2  N2  UNL     1      24.319  -1.077  55.188  1.00  0.00    -0.223 NA
HETATM    3  C6  UNL     1      23.130  -1.587  55.585  1.00  0.00     0.236 A 
HETATM    4  N3  UNL     1      22.026  -1.323  54.869  1.00  0.00    -0.241 NA
HETATM    5  C7  UNL     1      22.034  -0.568  53.761  1.00  0.00     0.072 A 
HETATM    6  C8  UNL     1      20.898  -0.311  53.028  1.00  0.00     0.035 A 
HETATM    7  C9  UNL     1      21.097   0.473  51.917  1.00  0.00     0.032 A 
HETATM    8  C10 UNL     1      22.281   1.013  51.468  1.00  0.00     0.035 A 
HETATM    9  C19 UNL     1      23.359   0.700  52.267  1.00  0.00     0.047 A 
HETATM   10  C20 UNL     1      23.251  -0.070  53.388  1.00  0.00     0.041 A 
ENDROOT
BRANCH   8  11
HETATM   11  N4  UNL     1      22.428   1.815  50.320  1.00  0.00    -0.333 N 
HETATM   12  H7  UNL     1      21.830   1.454  49.534  1.00  0.00     0.168 HD
BRANCH  11  13
HETATM   13  C11 UNL     1      23.115   2.960  49.856  1.00  0.00     0.172 C 
HETATM   14  S1  UNL     1      22.230   4.385  50.021  1.00  0.00    -0.041 SA
BRANCH  13  15
HETATM   15  N5  UNL     1      24.397   3.286  49.260  1.00  0.00    -0.367 N 
HETATM   16  H8  UNL     1      24.382   3.457  48.235  1.00  0.00     0.161 HD
BRANCH  15  17
HETATM   17  C12 UNL     1      25.764   3.452  49.675  1.00  0.00     0.123 C 
BRANCH  17  18
HETATM   18  C13 UNL     1      26.329   4.731  49.138  1.00  0.00     0.050 C 
BRANCH  18  19
HETATM   19  C14 UNL     1      25.739   5.896  49.879  1.00  0.00     0.274 C 
BRANCH  19  20
HETATM   20  N6  UNL     1      25.556   7.034  49.040  1.00  0.00     0.092 N 
HETATM   21  C15 UNL     1      25.035   8.202  49.659  1.00  0.00     0.298 C 
HETATM   22  C16 UNL     1      26.010   9.356  49.760  1.00  0.00     0.198 C 
HETATM   23  O1  UNL     1      27.308   8.927  50.012  1.00  0.00    -0.388 OA
HETATM   24  C17 UNL     1      27.774   8.123  48.996  1.00  0.00     0.198 C 
HETATM   25  C18 UNL     1      26.721   7.335  48.280  1.00  0.00     0.298 C 
ENDBRANCH  19  20
ENDBRANCH  18  19
ENDBRANCH  17  18
ENDBRANCH  15  17
ENDBRANCH  13  15
ENDBRANCH  11  13
ENDBRANCH   8  11
BRANCH   1  26
HETATM   26  N1  UNL     1      25.716   0.165  53.851  1.00  0.00    -0.335 N 
HETATM   27  C4  UNL     1      26.516  -0.916  53.327  1.00  0.00     0.093 A 
HETATM   28  C3  UNL     1      27.798  -0.739  52.999  1.00  0.00     0.020 A 
HETATM   29  C2  UNL     1      28.466   0.546  53.150  1.00  0.00     0.041 A 
HETATM   30  C1  UNL     1      27.675   1.487  53.635  1.00  0.00     0.112 A 
HETATM   31  F1  UNL     1      28.155   2.737  53.832  1.00  0.00    -0.209 F 
HETATM   32  C21 UNL     1      26.254   1.491  54.060  1.00  0.00     0.200 A 
ENDBRANCH   1  26
TORSDOF 8
ENDMDL
MODEL 9
REMARK VINA RESULT:      -7.6      3.474      9.665
REMARK  8 active torsions:
REMARK  status: ('A' for Active; 'I' for Inactive)
REMARK    1  A    between atoms: N1_6  and  C5_7 
REMARK    2  A    between atoms: C10_14  and  N4_15 
REMARK    3  A    between atoms: N4_15  and  C11_16 
REMARK    4  A    between atoms: C11_16  and  N5_18 
REMARK    5  A    between atoms: N5_18  and  C12_19 
REMARK    6  A    between atoms: C12_19  and  C13_20 
REMARK    7  A    between atoms: C13_20  and  C14_21 
REMARK    8  A    between atoms: C14_21  and  N6_22 
ROOT
HETATM    1  C5  UNL     1      31.941   6.257  46.917  1.00  0.00     0.144 A 
HETATM    2  N2  UNL     1      32.728   7.153  46.298  1.00  0.00    -0.223 NA
HETATM    3  C6  UNL     1      32.263   8.384  45.984  1.00  0.00     0.236 A 
HETATM    4  N3  UNL     1      31.000   8.713  46.296  1.00  0.00    -0.241 NA
HETATM    5  C7  UNL     1      30.156   7.873  46.914  1.00  0.00     0.072 A 
HETATM    6  C8  UNL     1      28.865   8.222  47.238  1.00  0.00     0.035 A 
HETATM    7  C9  UNL     1      28.148   7.240  47.878  1.00  0.00     0.032 A 
HETATM    8  C10 UNL     1      28.573   5.976  48.222  1.00  0.00     0.035 A 
HETATM    9  C19 UNL     1      29.876   5.722  47.856  1.00  0.00     0.047 A 
HETATM   10  C20 UNL     1      30.658   6.638  47.216  1.00  0.00     0.041 A 
ENDROOT
BRANCH   8  11
HETATM   11  N4  UNL     1      27.791   5.004  48.877  1.00  0.00    -0.333 N 
HETATM   12  H7  UNL     1      28.288   4.078  48.896  1.00  0.00     0.168 HD
BRANCH  11  13
HETATM   13  C11 UNL     1      26.546   4.848  49.529  1.00  0.00     0.172 C 
HETATM   14  S1  UNL     1      25.347   5.875  48.939  1.00  0.00    -0.041 SA
BRANCH  13  15
HETATM   15  N5  UNL     1      25.975   4.040  50.591  1.00  0.00    -0.367 N 
HETATM   16  H8  UNL     1      25.907   4.505  51.518  1.00  0.00     0.161 HD
BRANCH  15  17
HETATM   17  C12 UNL     1      25.442   2.716  50.766  1.00  0.00     0.123 C 
BRANCH  17  18
HETATM   18  C13 UNL     1      25.672   2.233  52.164  1.00  0.00     0.050 C 
BRANCH  18  19
HETATM   19  C14 UNL     1      27.141   2.030  52.395  1.00  0.00     0.274 C 
BRANCH  19  20
HETATM   20  N6  UNL     1      27.464   0.666  52.655  1.00  0.00     0.092 N 
HETATM   21  C15 UNL     1      28.786   0.401  53.107  1.00  0.00     0.298 C 
HETATM   22  C16 UNL     1      28.882  -0.072  54.542  1.00  0.00     0.198 C 
HETATM   23  O1  UNL     1      27.952   0.551  55.366  1.00  0.00    -0.388 OA
HETATM   24  C17 UNL     1      26.665   0.277  54.961  1.00  0.00     0.198 C 
HETATM   25  C18 UNL     1      26.502   0.035  53.492  1.00  0.00     0.298 C 
ENDBRANCH  19  20
ENDBRANCH  18  19
ENDBRANCH  17  18
ENDBRANCH  15  17
ENDBRANCH  13  15
ENDBRANCH  11  13
ENDBRANCH   8  11
BRANCH   1  26
HETATM   26  N1  UNL     1      32.581   5.015  47.128  1.00  0.00    -0.335 N 
HETATM   27  C4  UNL     1      33.834   5.246  47.807  1.00  0.00     0.093 A 
HETATM   28  C3  UNL     1      34.641   4.237  48.145  1.00  0.00     0.020 A 
HETATM   29  C2  UNL     1      34.310   2.849  47.851  1.00  0.00     0.041 A 
HETATM   30  C1  UNL     1      33.153   2.713  47.229  1.00  0.00     0.112 A 
HETATM   31  F1  UNL     1      32.709   1.480  46.890  1.00  0.00    -0.209 F 
HETATM   32  C21 UNL     1      32.133   3.687  46.768  1.00  0.00     0.200 A 
ENDBRANCH   1  26
TORSDOF 8
ENDMDL
