MODEL 1
REMARK VINA RESULT:      -8.4      0.000      0.000
REMARK  8 active torsions:
REMARK  status: ('A' for Active; 'I' for Inactive)
REMARK    1  A    between atoms: O1_2  and  C2_3 
REMARK    2  A    between atoms: C2_3  and  C3_4 
REMARK    3  A    between atoms: C3_4  and  N1_5 
REMARK    4  A    between atoms: N1_5  and  C4_6 
REMARK    5  A    between atoms: N2_14  and  C12_15 
REMARK    6  A    between atoms: C12_15  and  N3_16 
REMARK    7  A    between atoms: N3_16  and  C13_17 
REMARK    8  A    between atoms: C16_20  and  N4_21 
ROOT
HETATM    1  C2  UNL     1      27.887   0.197  53.669  1.00  0.00     0.176 A 
HETATM    2  C10 UNL     1      27.546  -0.798  52.634  1.00  0.00     0.040 A 
HETATM    3  C11 UNL     1      26.317  -1.280  52.762  1.00  0.00     0.095 A 
HETATM    4  N2  UNL     1      25.670  -0.675  53.897  1.00  0.00    -0.309 N 
HETATM    5  C25 UNL     1      26.613   0.228  54.462  1.00  0.00     0.265 A 
HETATM    6  O2  UNL     1      26.356   0.915  55.468  1.00  0.00    -0.269 OA
ENDROOT
BRANCH   4   7
HETATM    7  C12 UNL     1      24.322  -0.937  54.366  1.00  0.00     0.254 C 
BRANCH   7   8
HETATM    8  N3  UNL     1      23.483   0.191  54.058  1.00  0.00    -0.373 N 
HETATM    9  H16 UNL     1      23.842   1.162  54.062  1.00  0.00     0.161 HD
BRANCH   8  10
HETATM   10  C13 UNL     1      22.119  -0.040  53.737  1.00  0.00     0.029 A 
HETATM   11  C14 UNL     1      21.459  -1.157  54.208  1.00  0.00     0.031 A 
HETATM   12  C15 UNL     1      20.137  -1.348  53.875  1.00  0.00     0.031 A 
HETATM   13  C16 UNL     1      19.400  -0.491  53.087  1.00  0.00     0.030 A 
HETATM   14  C23 UNL     1      20.080   0.614  52.630  1.00  0.00     0.031 A 
HETATM   15  C24 UNL     1      21.403   0.837  52.943  1.00  0.00     0.031 A 
BRANCH  13  16
HETATM   16  N4  UNL     1      18.040  -0.673  52.726  1.00  0.00    -0.379 N 
HETATM   17  C17 UNL     1      17.307   0.287  51.931  1.00  0.00     0.125 C 
HETATM   18  C18 UNL     1      16.960  -0.396  50.600  1.00  0.00     0.050 C 
HETATM   19  C19 UNL     1      15.556  -0.924  50.719  1.00  0.00     0.273 C 
HETATM   20  N5  UNL     1      15.303  -1.157  52.150  1.00  0.00     0.085 N 
HETATM   21  C20 UNL     1      13.898  -1.412  52.307  1.00  0.00     0.309 C 
HETATM   22  C21 UNL     1      16.132  -2.245  52.561  1.00  0.00     0.291 C 
HETATM   23  C22 UNL     1      17.429  -1.876  53.196  1.00  0.00     0.153 C 
ENDBRANCH  13  16
ENDBRANCH   8  10
ENDBRANCH   7   8
ENDBRANCH   4   7
BRANCH   1  24
HETATM   24  O1  UNL     1      28.986  -0.164  54.393  1.00  0.00    -0.369 OA
HETATM   25  C1  UNL     1      29.981  -0.748  53.656  1.00  0.00     0.204 C 
ENDBRANCH   1  24
BRANCH   1  26
HETATM   26  C3  UNL     1      28.008   1.547  53.005  1.00  0.00     0.172 C 
BRANCH  26  27
HETATM   27  N1  UNL     1      26.843   2.370  53.128  1.00  0.00    -0.386 N 
HETATM   28  H6  UNL     1      26.479   2.793  54.008  1.00  0.00     0.159 HD
BRANCH  27  29
HETATM   29  C4  UNL     1      26.119   2.627  51.915  1.00  0.00     0.028 A 
HETATM   30  C5  UNL     1      26.812   3.037  50.779  1.00  0.00     0.029 A 
HETATM   31  C6  UNL     1      26.127   3.289  49.601  1.00  0.00     0.002 A 
HETATM   32  C7  UNL     1      24.759   3.147  49.504  1.00  0.00     0.000 A 
HETATM   33  C8  UNL     1      24.104   2.742  50.642  1.00  0.00     0.002 A 
HETATM   34  C9  UNL     1      24.751   2.478  51.844  1.00  0.00     0.029 A 
ENDBRANCH  27  29
ENDBRANCH  26  27
ENDBRANCH   1  26
TORSDOF 8
ENDMDL
MODEL 2
REMARK VINA RESULT:      -8.4      1.625      2.288
REMARK  8 active torsions:
REMARK  status: ('A' for Active; 'I' for Inactive)
REMARK    1  A    between atoms: O1_2  and  C2_3 
REMARK    2  A    between atoms: C2_3  and  C3_4 
REMARK    3  A    between atoms: C3_4  and  N1_5 
REMARK    4  A    between atoms: N1_5  and  C4_6 
REMARK    5  A    between atoms: N2_14  and  C12_15 
REMARK    6  A    between atoms: C12_15  and  N3_16 
REMARK    7  A    between atoms: N3_16  and  C13_17 
REMARK    8  A    between atoms: C16_20  and  N4_21 
ROOT
HETATM    1  C2  UNL     1      27.497   1.625  52.604  1.00  0.00     0.176 A 
HETATM    2  C10 UNL     1      27.959   0.224  52.561  1.00  0.00     0.040 A 
HETATM    3  C11 UNL     1      27.417  -0.532  53.506  1.00  0.00     0.095 A 
HETATM    4  N2  UNL     1      26.520   0.258  54.309  1.00  0.00    -0.309 N 
HETATM    5  C25 UNL     1      26.557   1.576  53.774  1.00  0.00     0.265 A 
HETATM    6  O2  UNL     1      25.883   2.506  54.252  1.00  0.00    -0.269 OA
ENDROOT
BRANCH   4   7
HETATM    7  C12 UNL     1      25.736  -0.205  55.439  1.00  0.00     0.254 C 
BRANCH   7   8
HETATM    8  N3  UNL     1      24.882  -1.283  55.016  1.00  0.00    -0.373 N 
HETATM    9  H16 UNL     1      25.174  -2.274  55.080  1.00  0.00     0.161 HD
BRANCH   8  10
HETATM   10  C13 UNL     1      23.599  -0.973  54.493  1.00  0.00     0.029 A 
HETATM   11  C14 UNL     1      22.451  -1.313  55.180  1.00  0.00     0.031 A 
HETATM   12  C15 UNL     1      21.225  -0.996  54.641  1.00  0.00     0.031 A 
HETATM   13  C16 UNL     1      21.045  -0.350  53.437  1.00  0.00     0.030 A 
HETATM   14  C23 UNL     1      22.204  -0.023  52.771  1.00  0.00     0.031 A 
HETATM   15  C24 UNL     1      23.448  -0.323  53.280  1.00  0.00     0.031 A 
BRANCH  13  16
HETATM   16  N4  UNL     1      19.792  -0.022  52.860  1.00  0.00    -0.379 N 
HETATM   17  C17 UNL     1      19.594   1.147  52.031  1.00  0.00     0.125 C 
HETATM   18  C18 UNL     1      19.256   0.650  50.619  1.00  0.00     0.050 C 
HETATM   19  C19 UNL     1      17.757   0.667  50.484  1.00  0.00     0.273 C 
HETATM   20  N5  UNL     1      17.201   0.527  51.839  1.00  0.00     0.085 N 
HETATM   21  C20 UNL     1      15.793   0.798  51.762  1.00  0.00     0.309 C 
HETATM   22  C21 UNL     1      17.506  -0.791  52.295  1.00  0.00     0.291 C 
HETATM   23  C22 UNL     1      18.723  -0.925  53.145  1.00  0.00     0.153 C 
ENDBRANCH  13  16
ENDBRANCH   8  10
ENDBRANCH   7   8
ENDBRANCH   4   7
BRANCH   1  24
HETATM   24  O1  UNL     1      28.528   2.506  52.754  1.00  0.00    -0.369 OA
HETATM   25  C1  UNL     1      29.203   2.390  53.939  1.00  0.00     0.204 C 
ENDBRANCH   1  24
BRANCH   1  26
HETATM   26  C3  UNL     1      26.646   1.880  51.385  1.00  0.00     0.172 C 
BRANCH  26  27
HETATM   27  N1  UNL     1      26.195   3.233  51.253  1.00  0.00    -0.386 N 
HETATM   28  H6  UNL     1      26.719   4.085  51.545  1.00  0.00     0.159 HD
BRANCH  27  29
HETATM   29  C4  UNL     1      24.900   3.414  50.661  1.00  0.00     0.028 A 
HETATM   30  C5  UNL     1      23.768   2.979  51.345  1.00  0.00     0.029 A 
HETATM   31  C6  UNL     1      22.512   3.147  50.787  1.00  0.00     0.002 A 
HETATM   32  C7  UNL     1      22.331   3.739  49.555  1.00  0.00     0.000 A 
HETATM   33  C8  UNL     1      23.467   4.157  48.904  1.00  0.00     0.002 A 
HETATM   34  C9  UNL     1      24.746   4.008  49.428  1.00  0.00     0.029 A 
ENDBRANCH  27  29
ENDBRANCH  26  27
ENDBRANCH   1  26
TORSDOF 8
ENDMDL
MODEL 3
REMARK VINA RESULT:      -8.4      2.141      4.573
REMARK  8 active torsions:
REMARK  status: ('A' for Active; 'I' for Inactive)
REMARK    1  A    between atoms: O1_2  and  C2_3 
REMARK    2  A    between atoms: C2_3  and  C3_4 
REMARK    3  A    between atoms: C3_4  and  N1_5 
REMARK    4  A    between atoms: N1_5  and  C4_6 
REMARK    5  A    between atoms: N2_14  and  C12_15 
REMARK    6  A    between atoms: C12_15  and  N3_16 
REMARK    7  A    between atoms: N3_16  and  C13_17 
REMARK    8  A    between atoms: C16_20  and  N4_21 
ROOT
HETATM    1  C2  UNL     1      26.623   0.018  54.041  1.00  0.00     0.176 A 
HETATM    2  C10 UNL     1      26.414   1.366  54.605  1.00  0.00     0.040 A 
HETATM    3  C11 UNL     1      26.324   2.310  53.678  1.00  0.00     0.095 A 
HETATM    4  N2  UNL     1      26.461   1.723  52.369  1.00  0.00    -0.309 N 
HETATM    5  C25 UNL     1      26.644   0.327  52.572  1.00  0.00     0.265 A 
HETATM    6  O2  UNL     1      26.793  -0.468  51.627  1.00  0.00    -0.269 OA
ENDROOT
BRANCH   4   7
HETATM    7  C12 UNL     1      26.417   2.424  51.099  1.00  0.00     0.254 C 
BRANCH   7   8
HETATM    8  N3  UNL     1      25.558   3.572  51.218  1.00  0.00    -0.373 N 
HETATM    9  H16 UNL     1      25.930   4.523  51.386  1.00  0.00     0.161 HD
BRANCH   8  10
HETATM   10  C13 UNL     1      24.155   3.390  51.101  1.00  0.00     0.029 A 
HETATM   11  C14 UNL     1      23.277   4.113  51.884  1.00  0.00     0.031 A 
HETATM   12  C15 UNL     1      21.923   3.908  51.743  1.00  0.00     0.031 A 
HETATM   13  C16 UNL     1      21.358   3.014  50.860  1.00  0.00     0.030 A 
HETATM   14  C23 UNL     1      22.252   2.305  50.092  1.00  0.00     0.031 A 
HETATM   15  C24 UNL     1      23.614   2.484  50.206  1.00  0.00     0.031 A 
BRANCH  13  16
HETATM   16  N4  UNL     1      19.967   2.781  50.705  1.00  0.00    -0.379 N 
HETATM   17  C17 UNL     1      19.438   1.756  49.833  1.00  0.00     0.125 C 
HETATM   18  C18 UNL     1      18.737   0.720  50.724  1.00  0.00     0.050 C 
HETATM   19  C19 UNL     1      17.271   1.054  50.732  1.00  0.00     0.273 C 
HETATM   20  N5  UNL     1      17.154   2.494  50.456  1.00  0.00     0.085 N 
HETATM   21  C20 UNL     1      15.769   2.779  50.205  1.00  0.00     0.309 C 
HETATM   22  C21 UNL     1      17.687   3.192  51.583  1.00  0.00     0.291 C 
HETATM   23  C22 UNL     1      19.108   3.627  51.471  1.00  0.00     0.153 C 
ENDBRANCH  13  16
ENDBRANCH   8  10
ENDBRANCH   7   8
ENDBRANCH   4   7
BRANCH   1  24
HETATM   24  O1  UNL     1      27.765  -0.566  54.504  1.00  0.00    -0.369 OA
HETATM   25  C1  UNL     1      28.841   0.277  54.578  1.00  0.00     0.204 C 
ENDBRANCH   1  24
BRANCH   1  26
HETATM   26  C3  UNL     1      25.376  -0.795  54.287  1.00  0.00     0.172 C 
BRANCH  26  27
HETATM   27  N1  UNL     1      24.473  -0.840  53.176  1.00  0.00    -0.386 N 
HETATM   28  H6  UNL     1      24.731  -1.023  52.183  1.00  0.00     0.159 HD
BRANCH  27  29
HETATM   29  C4  UNL     1      23.089  -0.610  53.476  1.00  0.00     0.028 A 
HETATM   30  C5  UNL     1      22.298  -1.669  53.913  1.00  0.00     0.029 A 
HETATM   31  C6  UNL     1      20.960  -1.462  54.207  1.00  0.00     0.002 A 
HETATM   32  C7  UNL     1      20.365  -0.224  54.082  1.00  0.00     0.000 A 
HETATM   33  C8  UNL     1      21.172   0.800  53.648  1.00  0.00     0.002 A 
HETATM   34  C9  UNL     1      22.518   0.637  53.342  1.00  0.00     0.029 A 
ENDBRANCH  27  29
ENDBRANCH  26  27
ENDBRANCH   1  26
TORSDOF 8
ENDMDL
MODEL 4
REMARK VINA RESULT:      -8.2      2.062      2.736
REMARK  8 active torsions:
REMARK  status: ('A' for Active; 'I' for Inactive)
REMARK    1  A    between atoms: O1_2  and  C2_3 
REMARK    2  A    between atoms: C2_3  and  C3_4 
REMARK    3  A    between atoms: C3_4  and  N1_5 
REMARK    4  A    between atoms: N1_5  and  C4_6 
REMARK    5  A    between atoms: N2_14  and  C12_15 
REMARK    6  A    between atoms: C12_15  and  N3_16 
REMARK    7  A    between atoms: N3_16  and  C13_17 
REMARK    8  A    between atoms: C16_20  and  N4_21 
ROOT
HETATM    1  C2  UNL     1      27.745   0.167  53.748  1.00  0.00     0.176 A 
HETATM    2  C10 UNL     1      27.254  -0.626  52.604  1.00  0.00     0.040 A 
HETATM    3  C11 UNL     1      26.006  -1.047  52.761  1.00  0.00     0.095 A 
HETATM    4  N2  UNL     1      25.493  -0.594  54.028  1.00  0.00    -0.309 N 
HETATM    5  C25 UNL     1      26.540   0.147  54.643  1.00  0.00     0.265 A 
HETATM    6  O2  UNL     1      26.411   0.677  55.762  1.00  0.00    -0.269 OA
ENDROOT
BRANCH   4   7
HETATM    7  C12 UNL     1      24.168  -0.846  54.565  1.00  0.00     0.254 C 
BRANCH   7   8
HETATM    8  N3  UNL     1      23.297  -1.268  53.500  1.00  0.00    -0.373 N 
HETATM    9  H16 UNL     1      23.412  -2.179  53.023  1.00  0.00     0.161 HD
BRANCH   8  10
HETATM   10  C13 UNL     1      22.245  -0.404  53.096  1.00  0.00     0.029 A 
HETATM   11  C14 UNL     1      21.503   0.295  54.027  1.00  0.00     0.031 A 
HETATM   12  C15 UNL     1      20.491   1.123  53.597  1.00  0.00     0.031 A 
HETATM   13  C16 UNL     1      20.148   1.315  52.277  1.00  0.00     0.030 A 
HETATM   14  C23 UNL     1      20.901   0.608  51.369  1.00  0.00     0.031 A 
HETATM   15  C24 UNL     1      21.922  -0.229  51.762  1.00  0.00     0.031 A 
BRANCH  13  16
HETATM   16  N4  UNL     1      19.104   2.157  51.813  1.00  0.00    -0.379 N 
HETATM   17  C17 UNL     1      19.242   3.592  51.716  1.00  0.00     0.125 C 
HETATM   18  C18 UNL     1      19.165   3.956  50.226  1.00  0.00     0.050 C 
HETATM   19  C19 UNL     1      17.748   4.370  49.938  1.00  0.00     0.273 C 
HETATM   20  N5  UNL     1      16.893   3.700  50.930  1.00  0.00     0.085 N 
HETATM   21  C20 UNL     1      15.581   4.279  50.835  1.00  0.00     0.309 C 
HETATM   22  C21 UNL     1      16.923   2.301  50.649  1.00  0.00     0.291 C 
HETATM   23  C22 UNL     1      17.895   1.495  51.440  1.00  0.00     0.153 C 
ENDBRANCH  13  16
ENDBRANCH   8  10
ENDBRANCH   7   8
ENDBRANCH   4   7
BRANCH   1  24
HETATM   24  O1  UNL     1      28.866  -0.372  54.309  1.00  0.00    -0.369 OA
HETATM   25  C1  UNL     1      29.592  -1.170  53.466  1.00  0.00     0.204 C 
ENDBRANCH   1  24
BRANCH   1  26
HETATM   26  C3  UNL     1      27.914   1.596  53.295  1.00  0.00     0.172 C 
BRANCH  26  27
HETATM   27  N1  UNL     1      26.836   2.463  53.663  1.00  0.00    -0.386 N 
HETATM   28  H6  UNL     1      26.729   2.955  54.576  1.00  0.00     0.159 HD
BRANCH  27  29
HETATM   29  C4  UNL     1      25.817   2.662  52.672  1.00  0.00     0.028 A 
HETATM   30  C5  UNL     1      24.498   2.853  53.076  1.00  0.00     0.029 A 
HETATM   31  C6  UNL     1      23.504   3.047  52.131  1.00  0.00     0.002 A 
HETATM   32  C7  UNL     1      23.771   3.058  50.778  1.00  0.00     0.000 A 
HETATM   33  C8  UNL     1      25.081   2.866  50.412  1.00  0.00     0.002 A 
HETATM   34  C9  UNL     1      26.110   2.669  51.326  1.00  0.00     0.029 A 
ENDBRANCH  27  29
ENDBRANCH  26  27
ENDBRANCH   1  26
TORSDOF 8
ENDMDL
MODEL 5
REMARK VINA RESULT:      -8.2      3.736      8.333
REMARK  8 active torsions:
REMARK  status: ('A' for Active; 'I' for Inactive)
REMARK    1  A    between atoms: O1_2  and  C2_3 
REMARK    2  A    between atoms: C2_3  and  C3_4 
REMARK    3  A    between atoms: C3_4  and  N1_5 
REMARK    4  A    between atoms: N1_5  and  C4_6 
REMARK    5  A    between atoms: N2_14  and  C12_15 
REMARK    6  A    between atoms: C12_15  and  N3_16 
REMARK    7  A    between atoms: N3_16  and  C13_17 
REMARK    8  A    between atoms: C16_20  and  N4_21 
ROOT
HETATM    1  C2  UNL     1      21.047   4.096  48.061  1.00  0.00     0.176 A 
HETATM    2  C10 UNL     1      19.982   4.872  48.726  1.00  0.00     0.040 A 
HETATM    3  C11 UNL     1      19.495   4.270  49.803  1.00  0.00     0.095 A 
HETATM    4  N2  UNL     1      20.166   3.012  50.004  1.00  0.00    -0.309 N 
HETATM    5  C25 UNL     1      21.115   2.889  48.952  1.00  0.00     0.265 A 
HETATM    6  O2  UNL     1      21.862   1.901  48.843  1.00  0.00    -0.269 OA
ENDROOT
BRANCH   4   7
HETATM    7  C12 UNL     1      19.919   2.062  51.073  1.00  0.00     0.254 C 
BRANCH   7   8
HETATM    8  N3  UNL     1      20.593   2.502  52.266  1.00  0.00    -0.373 N 
HETATM    9  H16 UNL     1      20.131   3.106  52.968  1.00  0.00     0.161 HD
BRANCH   8  10
HETATM   10  C13 UNL     1      21.934   2.091  52.483  1.00  0.00     0.029 A 
HETATM   11  C14 UNL     1      22.243   0.764  52.708  1.00  0.00     0.031 A 
HETATM   12  C15 UNL     1      23.555   0.404  52.915  1.00  0.00     0.031 A 
HETATM   13  C16 UNL     1      24.615   1.284  52.916  1.00  0.00     0.030 A 
HETATM   14  C23 UNL     1      24.282   2.600  52.690  1.00  0.00     0.031 A 
HETATM   15  C24 UNL     1      22.980   2.997  52.478  1.00  0.00     0.031 A 
BRANCH  13  16
HETATM   16  N4  UNL     1      25.973   0.935  53.134  1.00  0.00    -0.379 N 
HETATM   17  C17 UNL     1      27.057   1.489  52.356  1.00  0.00     0.125 C 
HETATM   18  C18 UNL     1      27.915   2.335  53.308  1.00  0.00     0.050 C 
HETATM   19  C19 UNL     1      29.067   1.478  53.755  1.00  0.00     0.273 C 
HETATM   20  N5  UNL     1      28.627   0.078  53.656  1.00  0.00     0.085 N 
HETATM   21  C20 UNL     1      29.784  -0.755  53.830  1.00  0.00     0.309 C 
HETATM   22  C21 UNL     1      27.620  -0.127  54.648  1.00  0.00     0.291 C 
HETATM   23  C22 UNL     1      26.209  -0.004  54.184  1.00  0.00     0.153 C 
ENDBRANCH  13  16
ENDBRANCH   8  10
ENDBRANCH   7   8
ENDBRANCH   4   7
BRANCH   1  24
HETATM   24  O1  UNL     1      20.747   3.814  46.761  1.00  0.00    -0.369 OA
HETATM   25  C1  UNL     1      21.830   3.790  45.924  1.00  0.00     0.204 C 
ENDBRANCH   1  24
BRANCH   1  26
HETATM   26  C3  UNL     1      22.352   4.832  48.243  1.00  0.00     0.172 C 
BRANCH  26  27
HETATM   27  N1  UNL     1      23.148   4.360  49.335  1.00  0.00    -0.386 N 
HETATM   28  H6  UNL     1      22.791   3.914  50.208  1.00  0.00     0.159 HD
BRANCH  27  29
HETATM   29  C4  UNL     1      24.567   4.522  49.201  1.00  0.00     0.028 A 
HETATM   30  C5  UNL     1      25.077   5.736  48.748  1.00  0.00     0.029 A 
HETATM   31  C6  UNL     1      26.445   5.908  48.614  1.00  0.00     0.002 A 
HETATM   32  C7  UNL     1      27.343   4.905  48.915  1.00  0.00     0.000 A 
HETATM   33  C8  UNL     1      26.809   3.719  49.358  1.00  0.00     0.002 A 
HETATM   34  C9  UNL     1      25.443   3.504  49.508  1.00  0.00     0.029 A 
ENDBRANCH  27  29
ENDBRANCH  26  27
ENDBRANCH   1  26
TORSDOF 8
ENDMDL
MODEL 6
REMARK VINA RESULT:      -8.2      4.404     10.822
REMARK  8 active torsions:
REMARK  status: ('A' for Active; 'I' for Inactive)
REMARK    1  A    between atoms: O1_2  and  C2_3 
REMARK    2  A    between atoms: C2_3  and  C3_4 
REMARK    3  A    between atoms: C3_4  and  N1_5 
REMARK    4  A    between atoms: N1_5  and  C4_6 
REMARK    5  A    between atoms: N2_14  and  C12_15 
REMARK    6  A    between atoms: C12_15  and  N3_16 
REMARK    7  A    between atoms: N3_16  and  C13_17 
REMARK    8  A    between atoms: C16_20  and  N4_21 
ROOT
HETATM    1  C2  UNL     1      23.362   1.565  52.382  1.00  0.00     0.176 A 
HETATM    2  C10 UNL     1      22.961   1.511  50.962  1.00  0.00     0.040 A 
HETATM    3  C11 UNL     1      23.203   2.641  50.310  1.00  0.00     0.095 A 
HETATM    4  N2  UNL     1      23.797   3.602  51.204  1.00  0.00    -0.309 N 
HETATM    5  C25 UNL     1      23.901   2.963  52.470  1.00  0.00     0.265 A 
HETATM    6  O2  UNL     1      24.379   3.536  53.466  1.00  0.00    -0.269 OA
ENDROOT
BRANCH   4   7
HETATM    7  C12 UNL     1      24.207   4.954  50.870  1.00  0.00     0.254 C 
BRANCH   7   8
HETATM    8  N3  UNL     1      24.480   5.033  49.459  1.00  0.00    -0.373 N 
HETATM    9  H16 UNL     1      23.760   4.823  48.746  1.00  0.00     0.161 HD
BRANCH   8  10
HETATM   10  C13 UNL     1      25.781   5.414  49.036  1.00  0.00     0.029 A 
HETATM   11  C14 UNL     1      26.051   6.711  48.649  1.00  0.00     0.031 A 
HETATM   12  C15 UNL     1      27.324   7.043  48.245  1.00  0.00     0.031 A 
HETATM   13  C16 UNL     1      28.380   6.160  48.193  1.00  0.00     0.030 A 
HETATM   14  C23 UNL     1      28.087   4.874  48.583  1.00  0.00     0.031 A 
HETATM   15  C24 UNL     1      26.824   4.506  48.994  1.00  0.00     0.031 A 
BRANCH  13  16
HETATM   16  N4  UNL     1      29.697   6.478  47.772  1.00  0.00    -0.379 N 
HETATM   17  C17 UNL     1      30.057   7.775  47.243  1.00  0.00     0.125 C 
HETATM   18  C18 UNL     1      31.037   8.415  48.236  1.00  0.00     0.050 C 
HETATM   19  C19 UNL     1      32.428   8.150  47.727  1.00  0.00     0.273 C 
HETATM   20  N5  UNL     1      32.364   6.928  46.911  1.00  0.00     0.085 N 
HETATM   21  C20 UNL     1      33.613   6.805  46.212  1.00  0.00     0.309 C 
HETATM   22  C21 UNL     1      32.090   5.837  47.791  1.00  0.00     0.291 C 
HETATM   23  C22 UNL     1      30.660   5.432  47.906  1.00  0.00     0.153 C 
ENDBRANCH  13  16
ENDBRANCH   8  10
ENDBRANCH   7   8
ENDBRANCH   4   7
BRANCH   1  24
HETATM   24  O1  UNL     1      22.319   1.314  53.224  1.00  0.00    -0.369 OA
HETATM   25  C1  UNL     1      22.291   0.041  53.727  1.00  0.00     0.204 C 
ENDBRANCH   1  24
BRANCH   1  26
HETATM   26  C3  UNL     1      24.540   0.642  52.575  1.00  0.00     0.172 C 
BRANCH  26  27
HETATM   27  N1  UNL     1      25.743   1.081  51.934  1.00  0.00    -0.386 N 
HETATM   28  H6  UNL     1      25.802   1.666  51.074  1.00  0.00     0.159 HD
BRANCH  27  29
HETATM   29  C4  UNL     1      26.973   0.666  52.546  1.00  0.00     0.028 A 
HETATM   30  C5  UNL     1      27.275  -0.691  52.624  1.00  0.00     0.029 A 
HETATM   31  C6  UNL     1      28.459  -1.106  53.212  1.00  0.00     0.002 A 
HETATM   32  C7  UNL     1      29.371  -0.213  53.735  1.00  0.00     0.000 A 
HETATM   33  C8  UNL     1      29.043   1.118  53.643  1.00  0.00     0.002 A 
HETATM   34  C9  UNL     1      27.867   1.579  53.062  1.00  0.00     0.029 A 
ENDBRANCH  27  29
ENDBRANCH  26  27
ENDBRANCH   1  26
TORSDOF 8
ENDMDL
MODEL 7
REMARK VINA RESULT:      -8.2      4.184     10.420
REMARK  8 active torsions:
REMARK  status: ('A' for Active; 'I' for Inactive)
REMARK    1  A    between atoms: O1_2  and  C2_3 
REMARK    2  A    between atoms: C2_3  and  C3_4 
REMARK    3  A    between atoms: C3_4  and  N1_5 
REMARK    4  A    between atoms: N1_5  and  C4_6 
REMARK    5  A    between atoms: N2_14  and  C12_15 
REMARK    6  A    between atoms: C12_15  and  N3_16 
REMARK    7  A    between atoms: N3_16  and  C13_17 
REMARK    8  A    between atoms: C16_20  and  N4_21 
ROOT
HETATM    1  C2  UNL     1      26.210   1.901  53.556  1.00  0.00     0.176 A 
HETATM    2  C10 UNL     1      25.093   2.783  53.950  1.00  0.00     0.040 A 
HETATM    3  C11 UNL     1      24.401   3.238  52.915  1.00  0.00     0.095 A 
HETATM    4  N2  UNL     1      24.959   2.725  51.690  1.00  0.00    -0.309 N 
HETATM    5  C25 UNL     1      26.062   1.908  52.062  1.00  0.00     0.265 A 
HETATM    6  O2  UNL     1      26.761   1.313  51.223  1.00  0.00    -0.269 OA
ENDROOT
BRANCH   4   7
HETATM    7  C12 UNL     1      24.483   2.991  50.345  1.00  0.00     0.254 C 
BRANCH   7   8
HETATM    8  N3  UNL     1      24.518   4.409  50.100  1.00  0.00    -0.373 N 
HETATM    9  H16 UNL     1      23.733   5.032  50.356  1.00  0.00     0.161 HD
BRANCH   8  10
HETATM   10  C13 UNL     1      25.671   4.966  49.487  1.00  0.00     0.029 A 
HETATM   11  C14 UNL     1      25.710   6.298  49.126  1.00  0.00     0.031 A 
HETATM   12  C15 UNL     1      26.845   6.803  48.533  1.00  0.00     0.031 A 
HETATM   13  C16 UNL     1      27.977   6.065  48.262  1.00  0.00     0.030 A 
HETATM   14  C23 UNL     1      27.914   4.741  48.630  1.00  0.00     0.031 A 
HETATM   15  C24 UNL     1      26.795   4.202  49.226  1.00  0.00     0.031 A 
BRANCH  13  16
HETATM   16  N4  UNL     1      29.154   6.563  47.645  1.00  0.00    -0.379 N 
HETATM   17  C17 UNL     1      29.139   7.660  46.704  1.00  0.00     0.125 C 
HETATM   18  C18 UNL     1      29.900   8.826  47.352  1.00  0.00     0.050 C 
HETATM   19  C19 UNL     1      31.310   8.785  46.829  1.00  0.00     0.273 C 
HETATM   20  N5  UNL     1      31.590   7.392  46.450  1.00  0.00     0.085 N 
HETATM   21  C20 UNL     1      32.826   7.380  45.716  1.00  0.00     0.309 C 
HETATM   22  C21 UNL     1      31.630   6.619  47.650  1.00  0.00     0.291 C 
HETATM   23  C22 UNL     1      30.370   5.912  48.015  1.00  0.00     0.153 C 
ENDBRANCH  13  16
ENDBRANCH   8  10
ENDBRANCH   7   8
ENDBRANCH   4   7
BRANCH   1  24
HETATM   24  O1  UNL     1      27.415   2.361  54.000  1.00  0.00    -0.369 OA
HETATM   25  C1  UNL     1      28.404   1.415  54.030  1.00  0.00     0.204 C 
ENDBRANCH   1  24
BRANCH   1  26
HETATM   26  C3  UNL     1      25.886   0.498  54.009  1.00  0.00     0.172 C 
BRANCH  26  27
HETATM   27  N1  UNL     1      25.080  -0.247  53.089  1.00  0.00    -0.386 N 
HETATM   28  H6  UNL     1      25.399  -0.651  52.182  1.00  0.00     0.159 HD
BRANCH  27  29
HETATM   29  C4  UNL     1      23.710  -0.446  53.465  1.00  0.00     0.028 A 
HETATM   30  C5  UNL     1      22.697  -0.027  52.606  1.00  0.00     0.029 A 
HETATM   31  C6  UNL     1      21.369  -0.213  52.955  1.00  0.00     0.002 A 
HETATM   32  C7  UNL     1      21.000  -0.807  54.143  1.00  0.00     0.000 A 
HETATM   33  C8  UNL     1      22.022  -1.208  54.969  1.00  0.00     0.002 A 
HETATM   34  C9  UNL     1      23.367  -1.042  54.659  1.00  0.00     0.029 A 
ENDBRANCH  27  29
ENDBRANCH  26  27
ENDBRANCH   1  26
TORSDOF 8
ENDMDL
MODEL 8
REMARK VINA RESULT:      -8.1      3.437      8.958
REMARK  8 active torsions:
REMARK  status: ('A' for Active; 'I' for Inactive)
REMARK    1  A    between atoms: O1_2  and  C2_3 
REMARK    2  A    between atoms: C2_3  and  C3_4 
REMARK    3  A    between atoms: C3_4  and  N1_5 
REMARK    4  A    between atoms: N1_5  and  C4_6 
REMARK    5  A    between atoms: N2_14  and  C12_15 
REMARK    6  A    between atoms: C12_15  and  N3_16 
REMARK    7  A    between atoms: N3_16  and  C13_17 
REMARK    8  A    between atoms: C16_20  and  N4_21 
ROOT
HETATM    1  C2  UNL     1      19.994   2.514  50.214  1.00  0.00     0.176 A 
HETATM    2  C10 UNL     1      20.658   1.574  49.289  1.00  0.00     0.040 A 
HETATM    3  C11 UNL     1      21.663   2.125  48.621  1.00  0.00     0.095 A 
HETATM    4  N2  UNL     1      21.807   3.506  49.006  1.00  0.00    -0.309 N 
HETATM    5  C25 UNL     1      20.798   3.759  49.977  1.00  0.00     0.265 A 
HETATM    6  O2  UNL     1      20.656   4.873  50.512  1.00  0.00    -0.269 OA
ENDROOT
BRANCH   4   7
HETATM    7  C12 UNL     1      22.790   4.446  48.502  1.00  0.00     0.254 C 
BRANCH   7   8
HETATM    8  N3  UNL     1      23.593   4.927  49.595  1.00  0.00    -0.373 N 
HETATM    9  H16 UNL     1      23.569   5.915  49.903  1.00  0.00     0.161 HD
BRANCH   8  10
HETATM   10  C13 UNL     1      24.445   4.013  50.269  1.00  0.00     0.029 A 
HETATM   11  C14 UNL     1      24.166   3.600  51.557  1.00  0.00     0.031 A 
HETATM   12  C15 UNL     1      25.016   2.714  52.178  1.00  0.00     0.031 A 
HETATM   13  C16 UNL     1      26.154   2.191  51.604  1.00  0.00     0.030 A 
HETATM   14  C23 UNL     1      26.411   2.617  50.322  1.00  0.00     0.031 A 
HETATM   15  C24 UNL     1      25.582   3.503  49.668  1.00  0.00     0.031 A 
BRANCH  13  16
HETATM   16  N4  UNL     1      27.047   1.283  52.230  1.00  0.00    -0.379 N 
HETATM   17  C17 UNL     1      28.174   1.716  53.025  1.00  0.00     0.125 C 
HETATM   18  C18 UNL     1      27.911   1.267  54.469  1.00  0.00     0.050 C 
HETATM   19  C19 UNL     1      28.643  -0.031  54.675  1.00  0.00     0.273 C 
HETATM   20  N5  UNL     1      28.776  -0.666  53.355  1.00  0.00     0.085 N 
HETATM   21  C20 UNL     1      29.688  -1.767  53.491  1.00  0.00     0.309 C 
HETATM   22  C21 UNL     1      27.469  -1.055  52.932  1.00  0.00     0.291 C 
HETATM   23  C22 UNL     1      26.762  -0.103  52.029  1.00  0.00     0.153 C 
ENDBRANCH  13  16
ENDBRANCH   8  10
ENDBRANCH   7   8
ENDBRANCH   4   7
BRANCH   1  24
HETATM   24  O1  UNL     1      18.663   2.649  49.948  1.00  0.00    -0.369 OA
HETATM   25  C1  UNL     1      17.905   3.014  51.028  1.00  0.00     0.204 C 
ENDBRANCH   1  24
BRANCH   1  26
HETATM   26  C3  UNL     1      20.295   2.077  51.627  1.00  0.00     0.172 C 
BRANCH  26  27
HETATM   27  N1  UNL     1      20.126   0.674  51.859  1.00  0.00    -0.386 N 
HETATM   28  H6  UNL     1      19.403   0.063  51.424  1.00  0.00     0.159 HD
BRANCH  27  29
HETATM   29  C4  UNL     1      21.048   0.070  52.779  1.00  0.00     0.028 A 
HETATM   30  C5  UNL     1      22.414   0.285  52.619  1.00  0.00     0.029 A 
HETATM   31  C6  UNL     1      23.315  -0.291  53.499  1.00  0.00     0.002 A 
HETATM   32  C7  UNL     1      22.908  -1.087  54.549  1.00  0.00     0.000 A 
HETATM   33  C8  UNL     1      21.554  -1.281  54.679  1.00  0.00     0.002 A 
HETATM   34  C9  UNL     1      20.615  -0.722  53.820  1.00  0.00     0.029 A 
ENDBRANCH  27  29
ENDBRANCH  26  27
ENDBRANCH   1  26
TORSDOF 8
ENDMDL
MODEL 9
REMARK VINA RESULT:      -8.0      4.187      9.989
REMARK  8 active torsions:
REMARK  status: ('A' for Active; 'I' for Inactive)
REMARK    1  A    between atoms: O1_2  and  C2_3 
REMARK    2  A    between atoms: C2_3  and  C3_4 
REMARK    3  A    between atoms: C3_4  and  N1_5 
REMARK    4  A    between atoms: N1_5  and  C4_6 
REMARK    5  A    between atoms: N2_14  and  C12_15 
REMARK    6  A    between atoms: C12_15  and  N3_16 
REMARK    7  A    between atoms: N3_16  and  C13_17 
REMARK    8  A    between atoms: C16_20  and  N4_21 
ROOT
HETATM    1  C2  UNL     1      20.912   0.735  52.077  1.00  0.00     0.176 A 
HETATM    2  C10 UNL     1      21.508   0.301  50.798  1.00  0.00     0.040 A 
HETATM    3  C11 UNL     1      21.824   1.313  50.002  1.00  0.00     0.095 A 
HETATM    4  N2  UNL     1      21.483   2.560  50.639  1.00  0.00    -0.309 N 
HETATM    5  C25 UNL     1      20.926   2.226  51.904  1.00  0.00     0.265 A 
HETATM    6  O2  UNL     1      20.528   3.092  52.704  1.00  0.00    -0.269 OA
ENDROOT
BRANCH   4   7
HETATM    7  C12 UNL     1      21.675   3.890  50.091  1.00  0.00     0.254 C 
BRANCH   7   8
HETATM    8  N3  UNL     1      22.530   3.811  48.937  1.00  0.00    -0.373 N 
HETATM    9  H16 UNL     1      22.305   3.210  48.125  1.00  0.00     0.161 HD
BRANCH   8  10
HETATM   10  C13 UNL     1      23.720   4.586  48.914  1.00  0.00     0.029 A 
HETATM   11  C14 UNL     1      24.916   4.063  49.364  1.00  0.00     0.031 A 
HETATM   12  C15 UNL     1      26.048   4.845  49.328  1.00  0.00     0.031 A 
HETATM   13  C16 UNL     1      26.086   6.142  48.867  1.00  0.00     0.030 A 
HETATM   14  C23 UNL     1      24.883   6.641  48.425  1.00  0.00     0.031 A 
HETATM   15  C24 UNL     1      23.729   5.888  48.446  1.00  0.00     0.031 A 
BRANCH  13  16
HETATM   16  N4  UNL     1      27.240   6.967  48.828  1.00  0.00    -0.379 N 
HETATM   17  C17 UNL     1      28.441   6.598  48.112  1.00  0.00     0.125 C 
HETATM   18  C18 UNL     1      28.615   7.606  46.967  1.00  0.00     0.050 C 
HETATM   19  C19 UNL     1      29.576   8.662  47.441  1.00  0.00     0.273 C 
HETATM   20  N5  UNL     1      29.484   8.702  48.909  1.00  0.00     0.085 N 
HETATM   21  C20 UNL     1      30.568   9.511  49.391  1.00  0.00     0.309 C 
HETATM   22  C21 UNL     1      28.194   9.215  49.245  1.00  0.00     0.291 C 
HETATM   23  C22 UNL     1      27.144   8.200  49.542  1.00  0.00     0.153 C 
ENDBRANCH  13  16
ENDBRANCH   8  10
ENDBRANCH   7   8
ENDBRANCH   4   7
BRANCH   1  24
HETATM   24  O1  UNL     1      19.670   0.208  52.276  1.00  0.00    -0.369 OA
HETATM   25  C1  UNL     1      19.542  -0.522  53.427  1.00  0.00     0.204 C 
ENDBRANCH   1  24
BRANCH   1  26
HETATM   26  C3  UNL     1      21.891   0.426  53.183  1.00  0.00     0.172 C 
BRANCH  26  27
HETATM   27  N1  UNL     1      22.989   1.341  53.271  1.00  0.00    -0.386 N 
HETATM   28  H6  UNL     1      22.934   2.340  53.565  1.00  0.00     0.159 HD
BRANCH  27  29
HETATM   29  C4  UNL     1      24.278   0.819  52.916  1.00  0.00     0.028 A 
HETATM   30  C5  UNL     1      24.687  -0.405  53.437  1.00  0.00     0.029 A 
HETATM   31  C6  UNL     1      25.928  -0.922  53.104  1.00  0.00     0.002 A 
HETATM   32  C7  UNL     1      26.795  -0.260  52.260  1.00  0.00     0.000 A 
HETATM   33  C8  UNL     1      26.363   0.946  51.763  1.00  0.00     0.002 A 
HETATM   34  C9  UNL     1      25.126   1.501  52.071  1.00  0.00     0.029 A 
ENDBRANCH  27  29
ENDBRANCH  26  27
ENDBRANCH   1  26
TORSDOF 8
ENDMDL
