MODEL 1
REMARK VINA RESULT:      -7.6      0.000      0.000
REMARK  7 active torsions:
REMARK  status: ('A' for Active; 'I' for Inactive)
REMARK    1  A    between atoms: C1_2  and  C2_3 
REMARK    2  A    between atoms: C2_3  and  C3_4 
REMARK    3  A    between atoms: C4_6  and  C5_7 
REMARK    4  A    between atoms: C5_7  and  N1_8 
REMARK    5  A    between atoms: N1_8  and  C6_9 
REMARK    6  A    between atoms: C11_14  and  O1_15 
REMARK    7  A    between atoms: O1_15  and  C12_16 
ROOT
HETATM    1  C6  UNL     1      21.585   0.981  52.970  1.00  0.00     0.025 A 
HETATM    2  C7  UNL     1      20.906   0.245  53.932  1.00  0.00     0.026 A 
HETATM    3  C8  UNL     1      21.866  -0.571  54.665  1.00  0.00     0.002 A 
HETATM    4  C9  UNL     1      22.742  -1.256  55.266  1.00  0.00     0.003 A 
HETATM    5  C10 UNL     1      24.026  -0.938  54.588  1.00  0.00     0.038 A 
HETATM    6  C11 UNL     1      25.238  -0.750  54.086  1.00  0.00     0.086 A 
HETATM    7  C17 UNL     1      25.082   0.209  52.951  1.00  0.00     0.147 A 
HETATM    8  N3  UNL     1      24.236   0.958  52.295  1.00  0.00    -0.293 NA
HETATM    9  C18 UNL     1      22.965   0.987  52.683  1.00  0.00     0.205 A 
ENDROOT
BRANCH   1  10
HETATM   10  N1  UNL     1      21.048   1.932  52.015  1.00  0.00    -0.390 N 
HETATM   11  H8  UNL     1      21.208   1.402  51.111  1.00  0.00     0.159 HD
BRANCH  10  12
HETATM   12  C5  UNL     1      20.431   3.279  52.171  1.00  0.00     0.140 C 
BRANCH  12  13
HETATM   13  C4  UNL     1      21.521   4.315  51.986  1.00  0.00     0.109 A 
HETATM   14  C3  UNL     1      21.991   4.214  50.785  1.00  0.00     0.063 A 
HETATM   15 CL1  UNL     1      22.780   5.628  51.580  1.00  0.00    -0.201 Cl
BRANCH  14  16
HETATM   16  C2  UNL     1      22.775   4.441  49.597  1.00  0.00     0.059 C 
BRANCH  16  17
HETATM   17  C1  UNL     1      23.663   3.251  49.244  1.00  0.00     0.224 C 
HETATM   18  F1  UNL     1      22.954   2.130  49.609  1.00  0.00    -0.255 F 
ENDBRANCH  16  17
ENDBRANCH  14  16
ENDBRANCH  12  13
ENDBRANCH  10  12
ENDBRANCH   1  10
BRANCH   6  19
HETATM   19  O1  UNL     1      26.659  -0.919  53.981  1.00  0.00    -0.343 OA
BRANCH  19  20
HETATM   20  C12 UNL     1      27.403   0.133  54.592  1.00  0.00     0.154 A 
HETATM   21  C13 UNL     1      28.146   0.984  54.142  1.00  0.00     0.068 A 
HETATM   22  C14 UNL     1      28.670   1.551  53.832  1.00  0.00    -0.086 C 
HETATM   23  C15 UNL     1      29.667   0.722  53.541  1.00  0.00     0.115 A 
HETATM   24  C16 UNL     1      29.089  -0.518  54.205  1.00  0.00     0.071 A 
HETATM   25  N2  UNL     1      29.324   2.224  53.458  1.00  0.00    -0.262 NA
HETATM   26  H14 UNL     1      30.191   2.658  53.035  1.00  0.00     0.136 HD
ENDBRANCH  19  20
ENDBRANCH   6  19
TORSDOF 7
ENDMDL
MODEL 2
REMARK VINA RESULT:      -7.6      2.265      2.501
REMARK  7 active torsions:
REMARK  status: ('A' for Active; 'I' for Inactive)
REMARK    1  A    between atoms: C1_2  and  C2_3 
REMARK    2  A    between atoms: C2_3  and  C3_4 
REMARK    3  A    between atoms: C4_6  and  C5_7 
REMARK    4  A    between atoms: C5_7  and  N1_8 
REMARK    5  A    between atoms: N1_8  and  C6_9 
REMARK    6  A    between atoms: C11_14  and  O1_15 
REMARK    7  A    between atoms: O1_15  and  C12_16 
ROOT
HETATM    1  C6  UNL     1      21.024   0.653  52.874  1.00  0.00     0.025 A 
HETATM    2  C7  UNL     1      20.553  -0.214  53.851  1.00  0.00     0.026 A 
HETATM    3  C8  UNL     1      21.689  -0.785  54.562  1.00  0.00     0.002 A 
HETATM    4  C9  UNL     1      22.713  -1.249  55.143  1.00  0.00     0.003 A 
HETATM    5  C10 UNL     1      23.874  -0.648  54.436  1.00  0.00     0.038 A 
HETATM    6  C11 UNL     1      25.000  -0.190  53.907  1.00  0.00     0.086 A 
HETATM    7  C17 UNL     1      24.603   0.702  52.776  1.00  0.00     0.147 A 
HETATM    8  N3  UNL     1      23.594   1.234  52.139  1.00  0.00    -0.293 NA
HETATM    9  C18 UNL     1      22.360   0.973  52.556  1.00  0.00     0.205 A 
ENDROOT
BRANCH   1  10
HETATM   10  N1  UNL     1      20.262   1.452  51.931  1.00  0.00    -0.390 N 
HETATM   11  H8  UNL     1      20.399   2.416  52.349  1.00  0.00     0.159 HD
BRANCH  10  12
HETATM   12  C5  UNL     1      19.488   1.102  50.708  1.00  0.00     0.140 C 
BRANCH  12  13
HETATM   13  C4  UNL     1      20.434   1.158  49.526  1.00  0.00     0.109 A 
HETATM   14  C3  UNL     1      20.913   2.357  49.435  1.00  0.00     0.063 A 
HETATM   15 CL1  UNL     1      21.722   1.332  48.189  1.00  0.00    -0.201 Cl
BRANCH  14  16
HETATM   16  C2  UNL     1      21.659   3.503  48.979  1.00  0.00     0.059 C 
BRANCH  16  17
HETATM   17  C1  UNL     1      22.972   3.686  49.736  1.00  0.00     0.224 C 
HETATM   18  F1  UNL     1      23.971   3.478  48.814  1.00  0.00    -0.255 F 
ENDBRANCH  16  17
ENDBRANCH  14  16
ENDBRANCH  12  13
ENDBRANCH  10  12
ENDBRANCH   1  10
BRANCH   6  19
HETATM   19  O1  UNL     1      26.419  -0.030  53.770  1.00  0.00    -0.343 OA
BRANCH  19  20
HETATM   20  C12 UNL     1      26.992  -0.877  52.775  1.00  0.00     0.154 A 
HETATM   21  C13 UNL     1      27.607  -1.923  52.841  1.00  0.00     0.068 A 
HETATM   22  C14 UNL     1      28.046  -2.629  52.891  1.00  0.00    -0.086 C 
HETATM   23  C15 UNL     1      29.158  -2.102  53.395  1.00  0.00     0.115 A 
HETATM   24  C16 UNL     1      28.760  -0.642  53.258  1.00  0.00     0.071 A 
HETATM   25  N2  UNL     1      28.598  -3.472  52.956  1.00  0.00    -0.262 NA
HETATM   26  H14 UNL     1      29.397  -4.141  53.138  1.00  0.00     0.136 HD
ENDBRANCH  19  20
ENDBRANCH   6  19
TORSDOF 7
ENDMDL
MODEL 3
REMARK VINA RESULT:      -7.5      3.457      6.544
REMARK  7 active torsions:
REMARK  status: ('A' for Active; 'I' for Inactive)
REMARK    1  A    between atoms: C1_2  and  C2_3 
REMARK    2  A    between atoms: C2_3  and  C3_4 
REMARK    3  A    between atoms: C4_6  and  C5_7 
REMARK    4  A    between atoms: C5_7  and  N1_8 
REMARK    5  A    between atoms: N1_8  and  C6_9 
REMARK    6  A    between atoms: C11_14  and  O1_15 
REMARK    7  A    between atoms: O1_15  and  C12_16 
ROOT
HETATM    1  C6  UNL     1      24.777  -0.454  53.579  1.00  0.00     0.025 A 
HETATM    2  C7  UNL     1      23.609  -0.780  54.258  1.00  0.00     0.026 A 
HETATM    3  C8  UNL     1      22.528   0.066  53.768  1.00  0.00     0.002 A 
HETATM    4  C9  UNL     1      21.630   0.826  53.305  1.00  0.00     0.003 A 
HETATM    5  C10 UNL     1      22.318   1.693  52.314  1.00  0.00     0.038 A 
HETATM    6  C11 UNL     1      22.792   2.530  51.402  1.00  0.00     0.086 A 
HETATM    7  C17 UNL     1      24.256   2.256  51.297  1.00  0.00     0.147 A 
HETATM    8  N3  UNL     1      25.233   1.495  51.714  1.00  0.00    -0.293 NA
HETATM    9  C18 UNL     1      24.967   0.523  52.580  1.00  0.00     0.205 A 
ENDROOT
BRANCH   1  10
HETATM   10  N1  UNL     1      26.099  -1.035  53.725  1.00  0.00    -0.390 N 
HETATM   11  H8  UNL     1      26.268  -0.859  54.756  1.00  0.00     0.159 HD
BRANCH  10  12
HETATM   12  C5  UNL     1      27.018  -1.704  52.763  1.00  0.00     0.140 C 
BRANCH  12  13
HETATM   13  C4  UNL     1      28.440  -1.436  53.212  1.00  0.00     0.109 A 
HETATM   14  C3  UNL     1      28.534  -0.196  53.573  1.00  0.00     0.063 A 
HETATM   15 CL1  UNL     1      30.110  -1.005  53.919  1.00  0.00    -0.201 Cl
BRANCH  14  16
HETATM   16  C2  UNL     1      29.068   1.053  54.052  1.00  0.00     0.059 C 
BRANCH  16  17
HETATM   17  C1  UNL     1      28.401   2.263  53.402  1.00  0.00     0.224 C 
HETATM   18  F1  UNL     1      27.215   2.447  54.074  1.00  0.00    -0.255 F 
ENDBRANCH  16  17
ENDBRANCH  14  16
ENDBRANCH  12  13
ENDBRANCH  10  12
ENDBRANCH   1  10
BRANCH   6  19
HETATM   19  O1  UNL     1      22.736   3.575  50.420  1.00  0.00    -0.343 OA
BRANCH  19  20
HETATM   20  C12 UNL     1      23.844   4.471  50.480  1.00  0.00     0.154 A 
HETATM   21  C13 UNL     1      24.017   5.527  51.055  1.00  0.00     0.068 A 
HETATM   22  C14 UNL     1      24.123   6.262  51.433  1.00  0.00    -0.086 C 
HETATM   23  C15 UNL     1      23.312   6.973  50.657  1.00  0.00     0.115 A 
HETATM   24  C16 UNL     1      23.041   5.895  49.620  1.00  0.00     0.071 A 
HETATM   25  N2  UNL     1      24.242   7.163  51.874  1.00  0.00    -0.262 NA
HETATM   26  H14 UNL     1      24.158   8.193  52.097  1.00  0.00     0.136 HD
ENDBRANCH  19  20
ENDBRANCH   6  19
TORSDOF 7
ENDMDL
MODEL 4
REMARK VINA RESULT:      -7.1      3.560      4.391
REMARK  7 active torsions:
REMARK  status: ('A' for Active; 'I' for Inactive)
REMARK    1  A    between atoms: C1_2  and  C2_3 
REMARK    2  A    between atoms: C2_3  and  C3_4 
REMARK    3  A    between atoms: C4_6  and  C5_7 
REMARK    4  A    between atoms: C5_7  and  N1_8 
REMARK    5  A    between atoms: N1_8  and  C6_9 
REMARK    6  A    between atoms: C11_14  and  O1_15 
REMARK    7  A    between atoms: O1_15  and  C12_16 
ROOT
HETATM    1  C6  UNL     1      20.761   0.380  52.535  1.00  0.00     0.025 A 
HETATM    2  C7  UNL     1      20.277  -0.448  53.539  1.00  0.00     0.026 A 
HETATM    3  C8  UNL     1      21.399  -0.924  54.339  1.00  0.00     0.002 A 
HETATM    4  C9  UNL     1      22.409  -1.304  54.996  1.00  0.00     0.003 A 
HETATM    5  C10 UNL     1      23.579  -0.695  54.312  1.00  0.00     0.038 A 
HETATM    6  C11 UNL     1      24.710  -0.219  53.811  1.00  0.00     0.086 A 
HETATM    7  C17 UNL     1      24.335   0.585  52.609  1.00  0.00     0.147 A 
HETATM    8  N3  UNL     1      23.339   1.032  51.892  1.00  0.00    -0.293 NA
HETATM    9  C18 UNL     1      22.096   0.741  52.263  1.00  0.00     0.205 A 
ENDROOT
BRANCH   1  10
HETATM   10  N1  UNL     1      20.016   1.085  51.508  1.00  0.00    -0.390 N 
HETATM   11  H8  UNL     1      20.611   0.865  50.659  1.00  0.00     0.159 HD
BRANCH  10  12
HETATM   12  C5  UNL     1      18.770   1.901  51.547  1.00  0.00     0.140 C 
BRANCH  12  13
HETATM   13  C4  UNL     1      17.756   1.247  50.631  1.00  0.00     0.109 A 
HETATM   14  C3  UNL     1      17.206   0.258  51.260  1.00  0.00     0.063 A 
HETATM   15 CL1  UNL     1      16.384   0.436  49.663  1.00  0.00    -0.201 Cl
BRANCH  14  16
HETATM   16  C2  UNL     1      16.373  -0.877  51.564  1.00  0.00     0.059 C 
BRANCH  16  17
HETATM   17  C1  UNL     1      15.391  -0.596  52.699  1.00  0.00     0.224 C 
HETATM   18  F1  UNL     1      15.289   0.773  52.779  1.00  0.00    -0.255 F 
ENDBRANCH  16  17
ENDBRANCH  14  16
ENDBRANCH  12  13
ENDBRANCH  10  12
ENDBRANCH   1  10
BRANCH   6  19
HETATM   19  O1  UNL     1      26.127  -0.003  53.734  1.00  0.00    -0.343 OA
BRANCH  19  20
HETATM   20  C12 UNL     1      26.767  -0.791  52.732  1.00  0.00     0.154 A 
HETATM   21  C13 UNL     1      27.430  -1.808  52.785  1.00  0.00     0.068 A 
HETATM   22  C14 UNL     1      27.901  -2.493  52.828  1.00  0.00    -0.086 C 
HETATM   23  C15 UNL     1      28.972  -1.929  53.377  1.00  0.00     0.115 A 
HETATM   24  C16 UNL     1      28.508  -0.486  53.272  1.00  0.00     0.071 A 
HETATM   25  N2  UNL     1      28.492  -3.311  52.884  1.00  0.00    -0.262 NA
HETATM   26  H14 UNL     1      29.318  -3.946  53.069  1.00  0.00     0.136 HD
ENDBRANCH  19  20
ENDBRANCH   6  19
TORSDOF 7
ENDMDL
MODEL 5
REMARK VINA RESULT:      -7.1      1.748      2.086
REMARK  7 active torsions:
REMARK  status: ('A' for Active; 'I' for Inactive)
REMARK    1  A    between atoms: C1_2  and  C2_3 
REMARK    2  A    between atoms: C2_3  and  C3_4 
REMARK    3  A    between atoms: C4_6  and  C5_7 
REMARK    4  A    between atoms: C5_7  and  N1_8 
REMARK    5  A    between atoms: N1_8  and  C6_9 
REMARK    6  A    between atoms: C11_14  and  O1_15 
REMARK    7  A    between atoms: O1_15  and  C12_16 
ROOT
HETATM    1  C6  UNL     1      21.207   1.647  51.805  1.00  0.00     0.025 A 
HETATM    2  C7  UNL     1      20.256   1.012  52.594  1.00  0.00     0.026 A 
HETATM    3  C8  UNL     1      20.939   0.161  53.561  1.00  0.00     0.002 A 
HETATM    4  C9  UNL     1      21.584  -0.559  54.376  1.00  0.00     0.003 A 
HETATM    5  C10 UNL     1      23.015  -0.372  54.022  1.00  0.00     0.038 A 
HETATM    6  C11 UNL     1      24.324  -0.301  53.825  1.00  0.00     0.086 A 
HETATM    7  C17 UNL     1      24.527   0.611  52.659  1.00  0.00     0.147 A 
HETATM    8  N3  UNL     1      23.931   1.390  51.796  1.00  0.00    -0.293 NA
HETATM    9  C18 UNL     1      22.611   1.534  51.863  1.00  0.00     0.205 A 
ENDROOT
BRANCH   1  10
HETATM   10  N1  UNL     1      20.998   2.589  50.721  1.00  0.00    -0.390 N 
HETATM   11  H8  UNL     1      21.149   1.953  49.887  1.00  0.00     0.159 HD
BRANCH  10  12
HETATM   12  C5  UNL     1      20.664   4.041  50.697  1.00  0.00     0.140 C 
BRANCH  12  13
HETATM   13  C4  UNL     1      21.891   4.809  51.143  1.00  0.00     0.109 A 
HETATM   14  C3  UNL     1      22.739   4.840  50.165  1.00  0.00     0.063 A 
HETATM   15 CL1  UNL     1      23.396   5.846  51.512  1.00  0.00    -0.201 Cl
BRANCH  14  16
HETATM   16  C2  UNL     1      23.920   5.109  49.386  1.00  0.00     0.059 C 
BRANCH  16  17
HETATM   17  C1  UNL     1      24.753   3.855  49.132  1.00  0.00     0.224 C 
HETATM   18  F1  UNL     1      23.852   2.825  48.996  1.00  0.00    -0.255 F 
ENDBRANCH  16  17
ENDBRANCH  14  16
ENDBRANCH  12  13
ENDBRANCH  10  12
ENDBRANCH   1  10
BRANCH   6  19
HETATM   19  O1  UNL     1      25.709  -0.583  54.073  1.00  0.00    -0.343 OA
BRANCH  19  20
HETATM   20  C12 UNL     1      26.372  -1.187  52.965  1.00  0.00     0.154 A 
HETATM   21  C13 UNL     1      27.247  -2.028  52.890  1.00  0.00     0.068 A 
HETATM   22  C14 UNL     1      27.860  -2.589  52.843  1.00  0.00    -0.086 C 
HETATM   23  C15 UNL     1      28.841  -1.806  53.282  1.00  0.00     0.115 A 
HETATM   24  C16 UNL     1      28.057  -0.504  53.301  1.00  0.00     0.071 A 
HETATM   25  N2  UNL     1      28.621  -3.252  52.789  1.00  0.00    -0.262 NA
HETATM   26  H14 UNL     1      29.584  -3.686  52.842  1.00  0.00     0.136 HD
ENDBRANCH  19  20
ENDBRANCH   6  19
TORSDOF 7
ENDMDL
MODEL 6
REMARK VINA RESULT:      -7.1      4.404      5.423
REMARK  7 active torsions:
REMARK  status: ('A' for Active; 'I' for Inactive)
REMARK    1  A    between atoms: C1_2  and  C2_3 
REMARK    2  A    between atoms: C2_3  and  C3_4 
REMARK    3  A    between atoms: C4_6  and  C5_7 
REMARK    4  A    between atoms: C5_7  and  N1_8 
REMARK    5  A    between atoms: N1_8  and  C6_9 
REMARK    6  A    between atoms: C11_14  and  O1_15 
REMARK    7  A    between atoms: O1_15  and  C12_16 
ROOT
HETATM    1  C6  UNL     1      25.102   4.557  50.210  1.00  0.00     0.025 A 
HETATM    2  C7  UNL     1      23.924   4.881  50.872  1.00  0.00     0.026 A 
HETATM    3  C8  UNL     1      23.813   4.056  52.067  1.00  0.00     0.002 A 
HETATM    4  C9  UNL     1      23.768   3.313  53.090  1.00  0.00     0.003 A 
HETATM    5  C10 UNL     1      24.982   2.458  53.010  1.00  0.00     0.038 A 
HETATM    6  C11 UNL     1      26.017   1.633  53.074  1.00  0.00     0.086 A 
HETATM    7  C17 UNL     1      26.842   1.896  51.857  1.00  0.00     0.147 A 
HETATM    8  N3  UNL     1      26.965   2.639  50.789  1.00  0.00    -0.293 NA
HETATM    9  C18 UNL     1      26.072   3.598  50.566  1.00  0.00     0.205 A 
ENDROOT
BRANCH   1  10
HETATM   10  N1  UNL     1      25.635   5.122  48.984  1.00  0.00    -0.390 N 
HETATM   11  H8  UNL     1      25.082   4.571  48.268  1.00  0.00     0.159 HD
BRANCH  10  12
HETATM   12  C5  UNL     1      26.657   6.173  48.720  1.00  0.00     0.140 C 
BRANCH  12  13
HETATM   13  C4  UNL     1      26.181   7.459  49.366  1.00  0.00     0.109 A 
HETATM   14  C3  UNL     1      27.189   8.265  49.476  1.00  0.00     0.063 A 
HETATM   15 CL1  UNL     1      25.707   9.137  50.024  1.00  0.00    -0.201 Cl
BRANCH  14  16
HETATM   16  C2  UNL     1      27.987   9.424  49.782  1.00  0.00     0.059 C 
BRANCH  16  17
HETATM   17  C1  UNL     1      29.301   9.452  49.007  1.00  0.00     0.224 C 
HETATM   18  F1  UNL     1      30.263   9.840  49.910  1.00  0.00    -0.255 F 
ENDBRANCH  16  17
ENDBRANCH  14  16
ENDBRANCH  12  13
ENDBRANCH  10  12
ENDBRANCH   1  10
BRANCH   6  19
HETATM   19  O1  UNL     1      26.850   0.608  53.635  1.00  0.00    -0.343 OA
BRANCH  19  20
HETATM   20  C12 UNL     1      27.296  -0.349  52.676  1.00  0.00     0.154 A 
HETATM   21  C13 UNL     1      27.684  -1.496  52.779  1.00  0.00     0.068 A 
HETATM   22  C14 UNL     1      27.970  -2.274  52.856  1.00  0.00    -0.086 C 
HETATM   23  C15 UNL     1      29.135  -1.973  53.420  1.00  0.00     0.115 A 
HETATM   24  C16 UNL     1      29.046  -0.464  53.258  1.00  0.00     0.071 A 
HETATM   25  N2  UNL     1      28.338  -3.210  52.954  1.00  0.00    -0.262 NA
HETATM   26  H14 UNL     1      28.976  -4.022  53.182  1.00  0.00     0.136 HD
ENDBRANCH  19  20
ENDBRANCH   6  19
TORSDOF 7
ENDMDL
MODEL 7
REMARK VINA RESULT:      -7.0      4.012      6.461
REMARK  7 active torsions:
REMARK  status: ('A' for Active; 'I' for Inactive)
REMARK    1  A    between atoms: C1_2  and  C2_3 
REMARK    2  A    between atoms: C2_3  and  C3_4 
REMARK    3  A    between atoms: C4_6  and  C5_7 
REMARK    4  A    between atoms: C5_7  and  N1_8 
REMARK    5  A    between atoms: N1_8  and  C6_9 
REMARK    6  A    between atoms: C11_14  and  O1_15 
REMARK    7  A    between atoms: O1_15  and  C12_16 
ROOT
HETATM    1  C6  UNL     1      23.570   0.820  52.389  1.00  0.00     0.025 A 
HETATM    2  C7  UNL     1      22.217   1.043  52.162  1.00  0.00     0.026 A 
HETATM    3  C8  UNL     1      22.063   2.297  51.434  1.00  0.00     0.002 A 
HETATM    4  C9  UNL     1      21.989   3.391  50.804  1.00  0.00     0.003 A 
HETATM    5  C10 UNL     1      23.390   3.873  50.684  1.00  0.00     0.038 A 
HETATM    6  C11 UNL     1      24.580   4.424  50.497  1.00  0.00     0.086 A 
HETATM    7  C17 UNL     1      25.572   3.518  51.152  1.00  0.00     0.147 A 
HETATM    8  N3  UNL     1      25.729   2.390  51.791  1.00  0.00    -0.293 NA
HETATM    9  C18 UNL     1      24.665   1.626  52.017  1.00  0.00     0.205 A 
ENDROOT
BRANCH   1  10
HETATM   10  N1  UNL     1      24.199  -0.299  53.065  1.00  0.00    -0.390 N 
HETATM   11  H8  UNL     1      23.724  -1.108  52.572  1.00  0.00     0.159 HD
BRANCH  10  12
HETATM   12  C5  UNL     1      25.224  -0.378  54.143  1.00  0.00     0.140 C 
BRANCH  12  13
HETATM   13  C4  UNL     1      26.493  -0.945  53.540  1.00  0.00     0.109 A 
HETATM   14  C3  UNL     1      27.464  -0.119  53.767  1.00  0.00     0.063 A 
HETATM   15 CL1  UNL     1      28.147  -1.586  52.967  1.00  0.00    -0.201 Cl
BRANCH  14  16
HETATM   16  C2  UNL     1      28.774   0.479  53.790  1.00  0.00     0.059 C 
BRANCH  16  17
HETATM   17  C1  UNL     1      28.723   2.004  53.720  1.00  0.00     0.224 C 
HETATM   18  F1  UNL     1      29.618   2.455  54.662  1.00  0.00    -0.255 F 
ENDBRANCH  16  17
ENDBRANCH  14  16
ENDBRANCH  12  13
ENDBRANCH  10  12
ENDBRANCH   1  10
BRANCH   6  19
HETATM   19  O1  UNL     1      25.518   5.401  50.022  1.00  0.00    -0.343 OA
BRANCH  19  20
HETATM   20  C12 UNL     1      26.296   4.950  48.915  1.00  0.00     0.154 A 
HETATM   21  C13 UNL     1      27.481   5.028  48.657  1.00  0.00     0.068 A 
HETATM   22  C14 UNL     1      28.290   5.102  48.474  1.00  0.00    -0.086 C 
HETATM   23  C15 UNL     1      28.289   6.407  48.222  1.00  0.00     0.115 A 
HETATM   24  C16 UNL     1      26.785   6.616  48.280  1.00  0.00     0.071 A 
HETATM   25  N2  UNL     1      29.267   5.213  48.243  1.00  0.00    -0.262 NA
HETATM   26  H14 UNL     1      30.192   5.639  47.958  1.00  0.00     0.136 HD
ENDBRANCH  19  20
ENDBRANCH   6  19
TORSDOF 7
ENDMDL
MODEL 8
REMARK VINA RESULT:      -6.9      3.124      3.789
REMARK  7 active torsions:
REMARK  status: ('A' for Active; 'I' for Inactive)
REMARK    1  A    between atoms: C1_2  and  C2_3 
REMARK    2  A    between atoms: C2_3  and  C3_4 
REMARK    3  A    between atoms: C4_6  and  C5_7 
REMARK    4  A    between atoms: C5_7  and  N1_8 
REMARK    5  A    between atoms: N1_8  and  C6_9 
REMARK    6  A    between atoms: C11_14  and  O1_15 
REMARK    7  A    between atoms: O1_15  and  C12_16 
ROOT
HETATM    1  C6  UNL     1      23.635   3.649  51.402  1.00  0.00     0.025 A 
HETATM    2  C7  UNL     1      22.408   3.229  51.900  1.00  0.00     0.026 A 
HETATM    3  C8  UNL     1      22.580   1.930  52.538  1.00  0.00     0.002 A 
HETATM    4  C9  UNL     1      22.787   0.804  53.076  1.00  0.00     0.003 A 
HETATM    5  C10 UNL     1      24.226   0.515  52.846  1.00  0.00     0.038 A 
HETATM    6  C11 UNL     1      25.487   0.125  52.720  1.00  0.00     0.086 A 
HETATM    7  C17 UNL     1      26.184   1.193  51.942  1.00  0.00     0.147 A 
HETATM    8  N3  UNL     1      26.050   2.364  51.379  1.00  0.00    -0.293 NA
HETATM    9  C18 UNL     1      24.877   2.985  51.455  1.00  0.00     0.205 A 
ENDROOT
BRANCH   1  10
HETATM   10  N1  UNL     1      23.951   4.879  50.699  1.00  0.00    -0.390 N 
HETATM   11  H8  UNL     1      24.055   5.542  51.518  1.00  0.00     0.159 HD
BRANCH  10  12
HETATM   12  C5  UNL     1      24.108   5.203  49.253  1.00  0.00     0.140 C 
BRANCH  12  13
HETATM   13  C4  UNL     1      25.587   5.175  48.926  1.00  0.00     0.109 A 
HETATM   14  C3  UNL     1      25.970   6.377  48.637  1.00  0.00     0.063 A 
HETATM   15 CL1  UNL     1      27.423   5.307  48.636  1.00  0.00    -0.201 Cl
BRANCH  14  16
HETATM   16  C2  UNL     1      26.793   7.498  48.262  1.00  0.00     0.059 C 
BRANCH  16  17
HETATM   17  C1  UNL     1      27.010   8.477  49.412  1.00  0.00     0.224 C 
HETATM   18  F1  UNL     1      28.372   8.548  49.596  1.00  0.00    -0.255 F 
ENDBRANCH  16  17
ENDBRANCH  14  16
ENDBRANCH  12  13
ENDBRANCH  10  12
ENDBRANCH   1  10
BRANCH   6  19
HETATM   19  O1  UNL     1      26.621  -0.736  52.895  1.00  0.00    -0.343 OA
BRANCH  19  20
HETATM   20  C12 UNL     1      27.384  -0.441  54.064  1.00  0.00     0.154 A 
HETATM   21  C13 UNL     1      28.228   0.399  54.303  1.00  0.00     0.068 A 
HETATM   22  C14 UNL     1      28.822   0.963  54.457  1.00  0.00    -0.086 C 
HETATM   23  C15 UNL     1      29.774   0.416  53.709  1.00  0.00     0.115 A 
HETATM   24  C16 UNL     1      29.043  -0.874  53.375  1.00  0.00     0.071 A 
HETATM   25  N2  UNL     1      29.558   1.632  54.634  1.00  0.00    -0.262 NA
HETATM   26  H14 UNL     1      30.491   2.129  54.620  1.00  0.00     0.136 HD
ENDBRANCH  19  20
ENDBRANCH   6  19
TORSDOF 7
ENDMDL
MODEL 9
REMARK VINA RESULT:      -6.9      3.298      7.482
REMARK  7 active torsions:
REMARK  status: ('A' for Active; 'I' for Inactive)
REMARK    1  A    between atoms: C1_2  and  C2_3 
REMARK    2  A    between atoms: C2_3  and  C3_4 
REMARK    3  A    between atoms: C4_6  and  C5_7 
REMARK    4  A    between atoms: C5_7  and  N1_8 
REMARK    5  A    between atoms: N1_8  and  C6_9 
REMARK    6  A    between atoms: C11_14  and  O1_15 
REMARK    7  A    between atoms: O1_15  and  C12_16 
ROOT
HETATM    1  C6  UNL     1      25.270   2.719  51.322  1.00  0.00     0.025 A 
HETATM    2  C7  UNL     1      25.291   3.434  50.131  1.00  0.00     0.026 A 
HETATM    3  C8  UNL     1      24.068   3.151  49.391  1.00  0.00     0.002 A 
HETATM    4  C9  UNL     1      22.990   2.868  48.793  1.00  0.00     0.003 A 
HETATM    5  C10 UNL     1      22.298   1.886  49.669  1.00  0.00     0.038 A 
HETATM    6  C11 UNL     1      21.567   1.012  50.344  1.00  0.00     0.086 A 
HETATM    7  C17 UNL     1      22.344   0.671  51.574  1.00  0.00     0.147 A 
HETATM    8  N3  UNL     1      23.428   0.926  52.257  1.00  0.00    -0.293 NA
HETATM    9  C18 UNL     1      24.275   1.842  51.801  1.00  0.00     0.205 A 
ENDROOT
BRANCH   1  10
HETATM   10  N1  UNL     1      26.266   2.693  52.378  1.00  0.00    -0.390 N 
HETATM   11  H8  UNL     1      25.657   2.919  53.215  1.00  0.00     0.159 HD
BRANCH  10  12
HETATM   12  C5  UNL     1      27.732   2.431  52.374  1.00  0.00     0.140 C 
BRANCH  12  13
HETATM   13  C4  UNL     1      28.048   1.536  53.555  1.00  0.00     0.109 A 
HETATM   14  C3  UNL     1      27.122   0.636  53.653  1.00  0.00     0.063 A 
HETATM   15 CL1  UNL     1      28.388   0.279  54.889  1.00  0.00    -0.201 Cl
BRANCH  14  16
HETATM   16  C2  UNL     1      26.350  -0.489  54.115  1.00  0.00     0.059 C 
BRANCH  16  17
HETATM   17  C1  UNL     1      26.008  -1.465  52.993  1.00  0.00     0.224 C 
HETATM   18  F1  UNL     1      26.694  -1.023  51.886  1.00  0.00    -0.255 F 
ENDBRANCH  16  17
ENDBRANCH  14  16
ENDBRANCH  12  13
ENDBRANCH  10  12
ENDBRANCH   1  10
BRANCH   6  19
HETATM   19  O1  UNL     1      20.434   0.171  50.611  1.00  0.00    -0.343 OA
BRANCH  19  20
HETATM   20  C12 UNL     1      19.820   0.430  51.872  1.00  0.00     0.154 A 
HETATM   21  C13 UNL     1      19.230  -0.282  52.661  1.00  0.00     0.068 A 
HETATM   22  C14 UNL     1      18.808  -0.769  53.188  1.00  0.00    -0.086 C 
HETATM   23  C15 UNL     1      17.718  -0.923  52.443  1.00  0.00     0.115 A 
HETATM   24  C16 UNL     1      18.079   0.080  51.360  1.00  0.00     0.071 A 
HETATM   25  N2  UNL     1      18.277  -1.356  53.815  1.00  0.00    -0.262 NA
HETATM   26  H14 UNL     1      17.503  -1.947  54.228  1.00  0.00     0.136 HD
ENDBRANCH  19  20
ENDBRANCH   6  19
TORSDOF 7
ENDMDL
