MODEL 1
REMARK VINA RESULT:      -9.0      0.000      0.000
REMARK  4 active torsions:
REMARK  status: ('A' for Active; 'I' for Inactive)
REMARK    1  A    between atoms: O1_1  and  C1_2 
REMARK    2  A    between atoms: C8_9  and  O2_10 
REMARK    3  A    between atoms: C13_15  and  N1_16 
REMARK    4  A    between atoms: C18_21  and  O3_22 
ROOT
HETATM    1  C1  UNL     1      19.521   1.853  49.849  1.00  0.00     0.063 C 
HETATM    2  C2  UNL     1      20.153   0.835  50.470  1.00  0.00     0.033 C 
HETATM    3  C3  UNL     1      21.165   0.232  51.371  1.00  0.00    -0.001 C 
HETATM    4  C4  UNL     1      22.132   0.714  52.146  1.00  0.00    -0.022 C 
HETATM    5  C5  UNL     1      23.053   1.643  52.845  1.00  0.00     0.066 C 
HETATM    6  C6  UNL     1      24.450   1.377  52.507  1.00  0.00    -0.046 A 
HETATM    7  C7  UNL     1      24.834   0.168  53.083  1.00  0.00     0.044 A 
HETATM    8  C8  UNL     1      26.078  -0.425  52.999  1.00  0.00     0.066 A 
HETATM    9  C9  UNL     1      27.058   0.227  52.278  1.00  0.00     0.037 A 
HETATM   10  C10 UNL     1      26.679   1.442  51.698  1.00  0.00     0.010 A 
HETATM   11  C11 UNL     1      25.413   2.045  51.782  1.00  0.00    -0.049 A 
HETATM   12  C12 UNL     1      25.545   3.301  51.015  1.00  0.00     0.080 C 
HETATM   13  C13 UNL     1      24.315   4.071  50.747  1.00  0.00     0.270 C 
HETATM   14  C19 UNL     1      23.274   3.304  50.023  1.00  0.00     0.119 C 
HETATM   15  N2  UNL     1      22.040   3.099  49.867  1.00  0.00    -0.302 NA
HETATM   16  C20 UNL     1      20.950   3.714  50.520  1.00  0.00     0.175 C 
HETATM   17  C21 UNL     1      19.635   3.349  49.798  1.00  0.00     0.158 C 
HETATM   18 CL1  UNL     1      19.794   3.957  48.138  1.00  0.00    -0.116 Cl
ENDROOT
BRANCH  13  19
HETATM   19  N1  UNL     1      24.690   5.272  50.023  1.00  0.00     0.130 N 
HETATM   20  C14 UNL     1      26.111   5.268  49.707  1.00  0.00     0.304 C 
HETATM   21  C15 UNL     1      26.277   6.231  48.568  1.00  0.00    -0.001 C 
HETATM   22  C16 UNL     1      25.729   7.389  48.921  1.00  0.00    -0.025 C 
HETATM   23  C17 UNL     1      25.062   7.708  50.211  1.00  0.00     0.091 C 
HETATM   24  C18 UNL     1      24.294   6.501  50.669  1.00  0.00     0.361 C 
BRANCH  24  25
HETATM   25  O3  UNL     1      24.390   6.414  52.060  1.00  0.00    -0.367 OA
HETATM   26  H21 UNL     1      24.167   7.263  52.500  1.00  0.00     0.212 HD
ENDBRANCH  24  25
ENDBRANCH  13  19
BRANCH   8  27
HETATM   27  O2  UNL     1      26.418  -1.643  53.595  1.00  0.00    -0.361 OA
HETATM   28  H8  UNL     1      26.637  -2.477  53.095  1.00  0.00     0.217 HD
ENDBRANCH   8  27
BRANCH   1  29
HETATM   29  O1  UNL     1      18.436   1.742  48.957  1.00  0.00    -0.363 OA
HETATM   30  H1  UNL     1      18.261   2.414  48.228  1.00  0.00     0.217 HD
ENDBRANCH   1  29
TORSDOF 4
ENDMDL
MODEL 2
REMARK VINA RESULT:      -9.0      2.843      5.469
REMARK  4 active torsions:
REMARK  status: ('A' for Active; 'I' for Inactive)
REMARK    1  A    between atoms: O1_1  and  C1_2 
REMARK    2  A    between atoms: C8_9  and  O2_10 
REMARK    3  A    between atoms: C13_15  and  N1_16 
REMARK    4  A    between atoms: C18_21  and  O3_22 
ROOT
HETATM    1  C1  UNL     1      23.627   4.739  49.371  1.00  0.00     0.063 C 
HETATM    2  C2  UNL     1      22.461   4.156  49.721  1.00  0.00     0.033 C 
HETATM    3  C3  UNL     1      21.550   3.409  50.622  1.00  0.00    -0.001 C 
HETATM    4  C4  UNL     1      21.658   2.894  51.843  1.00  0.00    -0.022 C 
HETATM    5  C5  UNL     1      22.195   2.492  53.165  1.00  0.00     0.066 C 
HETATM    6  C6  UNL     1      22.166   1.042  53.343  1.00  0.00    -0.046 A 
HETATM    7  C7  UNL     1      20.842   0.627  53.478  1.00  0.00     0.044 A 
HETATM    8  C8  UNL     1      20.400  -0.666  53.669  1.00  0.00     0.066 A 
HETATM    9  C9  UNL     1      21.345  -1.670  53.739  1.00  0.00     0.037 A 
HETATM   10  C10 UNL     1      22.676  -1.260  53.605  1.00  0.00     0.010 A 
HETATM   11  C11 UNL     1      23.126   0.056  53.409  1.00  0.00    -0.049 A 
HETATM   12  C12 UNL     1      24.598  -0.058  53.345  1.00  0.00     0.080 C 
HETATM   13  C13 UNL     1      25.360   1.140  52.943  1.00  0.00     0.270 C 
HETATM   14  C19 UNL     1      24.972   1.679  51.618  1.00  0.00     0.119 C 
HETATM   15  N2  UNL     1      24.817   2.710  50.908  1.00  0.00    -0.302 NA
HETATM   16  C20 UNL     1      25.023   4.063  51.255  1.00  0.00     0.175 C 
HETATM   17  C21 UNL     1      24.982   4.939  49.985  1.00  0.00     0.158 C 
HETATM   18 CL1  UNL     1      26.290   4.355  48.935  1.00  0.00    -0.116 Cl
ENDROOT
BRANCH  13  19
HETATM   19  N1  UNL     1      26.772   0.808  52.989  1.00  0.00     0.130 N 
HETATM   20  C14 UNL     1      27.019  -0.288  53.916  1.00  0.00     0.304 C 
HETATM   21  C15 UNL     1      28.342  -0.871  53.512  1.00  0.00    -0.001 C 
HETATM   22  C16 UNL     1      29.234   0.114  53.472  1.00  0.00    -0.025 C 
HETATM   23  C17 UNL     1      28.995   1.551  53.772  1.00  0.00     0.091 C 
HETATM   24  C18 UNL     1      27.637   1.932  53.256  1.00  0.00     0.361 C 
BRANCH  24  25
HETATM   25  O3  UNL     1      27.059   2.835  54.152  1.00  0.00    -0.367 OA
HETATM   26  H21 UNL     1      27.208   2.575  55.087  1.00  0.00     0.212 HD
ENDBRANCH  24  25
ENDBRANCH  13  19
BRANCH   8  27
HETATM   27  O2  UNL     1      19.058  -1.035  53.800  1.00  0.00    -0.361 OA
HETATM   28  H8  UNL     1      18.709  -1.673  54.480  1.00  0.00     0.217 HD
ENDBRANCH   8  27
BRANCH   1  29
HETATM   29  O1  UNL     1      23.897   5.402  48.157  1.00  0.00    -0.363 OA
HETATM   30  H1  UNL     1      24.813   5.416  47.739  1.00  0.00     0.217 HD
ENDBRANCH   1  29
TORSDOF 4
ENDMDL
MODEL 3
REMARK VINA RESULT:      -8.8      3.079      5.806
REMARK  4 active torsions:
REMARK  status: ('A' for Active; 'I' for Inactive)
REMARK    1  A    between atoms: O1_1  and  C1_2 
REMARK    2  A    between atoms: C8_9  and  O2_10 
REMARK    3  A    between atoms: C13_15  and  N1_16 
REMARK    4  A    between atoms: C18_21  and  O3_22 
ROOT
HETATM    1  C1  UNL     1      27.763   0.421  54.574  1.00  0.00     0.063 C 
HETATM    2  C2  UNL     1      26.580  -0.133  54.912  1.00  0.00     0.033 C 
HETATM    3  C3  UNL     1      25.180  -0.560  54.672  1.00  0.00    -0.001 C 
HETATM    4  C4  UNL     1      24.349  -0.504  53.635  1.00  0.00    -0.022 C 
HETATM    5  C5  UNL     1      23.784  -0.244  52.290  1.00  0.00     0.066 C 
HETATM    6  C6  UNL     1      22.604   0.615  52.354  1.00  0.00    -0.046 A 
HETATM    7  C7  UNL     1      21.553  -0.098  52.930  1.00  0.00     0.044 A 
HETATM    8  C8  UNL     1      20.273   0.364  53.158  1.00  0.00     0.066 A 
HETATM    9  C9  UNL     1      19.976   1.660  52.787  1.00  0.00     0.037 A 
HETATM   10  C10 UNL     1      21.026   2.381  52.209  1.00  0.00     0.010 A 
HETATM   11  C11 UNL     1      22.330   1.912  51.977  1.00  0.00    -0.049 A 
HETATM   12  C12 UNL     1      23.030   3.048  51.343  1.00  0.00     0.080 C 
HETATM   13  C13 UNL     1      24.489   2.936  51.158  1.00  0.00     0.270 C 
HETATM   14  C19 UNL     1      25.235   2.696  52.415  1.00  0.00     0.119 C 
HETATM   15  N2  UNL     1      26.221   2.128  52.959  1.00  0.00    -0.302 NA
HETATM   16  C20 UNL     1      27.205   1.306  52.368  1.00  0.00     0.175 C 
HETATM   17  C21 UNL     1      28.363   1.079  53.365  1.00  0.00     0.158 C 
HETATM   18 CL1  UNL     1      29.025   2.685  53.731  1.00  0.00    -0.116 Cl
ENDROOT
BRANCH  13  19
HETATM   19  N1  UNL     1      24.947   4.139  50.488  1.00  0.00     0.130 N 
HETATM   20  C14 UNL     1      23.988   4.575  49.484  1.00  0.00     0.304 C 
HETATM   21  C15 UNL     1      24.283   6.027  49.244  1.00  0.00    -0.001 C 
HETATM   22  C16 UNL     1      25.573   6.146  48.953  1.00  0.00    -0.025 C 
HETATM   23  C17 UNL     1      26.577   5.051  48.870  1.00  0.00     0.091 C 
HETATM   24  C18 UNL     1      26.280   4.041  49.941  1.00  0.00     0.361 C 
BRANCH  24  25
HETATM   25  O3  UNL     1      26.544   2.766  49.436  1.00  0.00    -0.367 OA
HETATM   26  H21 UNL     1      27.440   2.448  49.683  1.00  0.00     0.212 HD
ENDBRANCH  24  25
ENDBRANCH  13  19
BRANCH   8  27
HETATM   27  O2  UNL     1      19.250  -0.391  53.740  1.00  0.00    -0.361 OA
HETATM   28  H8  UNL     1      18.403  -0.645  53.282  1.00  0.00     0.217 HD
ENDBRANCH   8  27
BRANCH   1  29
HETATM   29  O1  UNL     1      28.897   0.537  55.402  1.00  0.00    -0.363 OA
HETATM   30  H1  UNL     1      29.016   1.293  56.057  1.00  0.00     0.217 HD
ENDBRANCH   1  29
TORSDOF 4
ENDMDL
MODEL 4
REMARK VINA RESULT:      -8.7      1.670      2.342
REMARK  4 active torsions:
REMARK  status: ('A' for Active; 'I' for Inactive)
REMARK    1  A    between atoms: O1_1  and  C1_2 
REMARK    2  A    between atoms: C8_9  and  O2_10 
REMARK    3  A    between atoms: C13_15  and  N1_16 
REMARK    4  A    between atoms: C18_21  and  O3_22 
ROOT
HETATM    1  C1  UNL     1      18.569   2.391  48.857  1.00  0.00     0.063 C 
HETATM    2  C2  UNL     1      18.538   1.475  49.848  1.00  0.00     0.033 C 
HETATM    3  C3  UNL     1      18.951   0.885  51.144  1.00  0.00    -0.001 C 
HETATM    4  C4  UNL     1      19.817   1.227  52.094  1.00  0.00    -0.022 C 
HETATM    5  C5  UNL     1      20.849   1.955  52.870  1.00  0.00     0.066 C 
HETATM    6  C6  UNL     1      22.036   1.132  53.097  1.00  0.00    -0.046 A 
HETATM    7  C7  UNL     1      21.720   0.117  53.998  1.00  0.00     0.044 A 
HETATM    8  C8  UNL     1      22.573  -0.859  54.469  1.00  0.00     0.066 A 
HETATM    9  C9  UNL     1      23.878  -0.852  54.019  1.00  0.00     0.037 A 
HETATM   10  C10 UNL     1      24.202   0.165  53.115  1.00  0.00     0.010 A 
HETATM   11  C11 UNL     1      23.333   1.158  52.633  1.00  0.00    -0.049 A 
HETATM   12  C12 UNL     1      24.166   1.976  51.727  1.00  0.00     0.080 C 
HETATM   13  C13 UNL     1      23.485   2.992  50.903  1.00  0.00     0.270 C 
HETATM   14  C19 UNL     1      22.421   2.440  50.030  1.00  0.00     0.119 C 
HETATM   15  N2  UNL     1      21.294   2.632  49.500  1.00  0.00    -0.302 NA
HETATM   16  C20 UNL     1      20.449   3.759  49.599  1.00  0.00     0.175 C 
HETATM   17  C21 UNL     1      19.317   3.657  48.554  1.00  0.00     0.158 C 
HETATM   18 CL1  UNL     1      20.110   3.606  46.966  1.00  0.00    -0.116 Cl
ENDROOT
BRANCH  13  19
HETATM   19  N1  UNL     1      24.496   3.691  50.131  1.00  0.00     0.130 N 
HETATM   20  C14 UNL     1      25.834   3.318  50.565  1.00  0.00     0.304 C 
HETATM   21  C15 UNL     1      26.743   3.664  49.422  1.00  0.00    -0.001 C 
HETATM   22  C16 UNL     1      26.535   4.935  49.097  1.00  0.00    -0.025 C 
HETATM   23  C17 UNL     1      25.577   5.877  49.734  1.00  0.00     0.091 C 
HETATM   24  C18 UNL     1      24.329   5.125  50.098  1.00  0.00     0.361 C 
BRANCH  24  25
HETATM   25  O3  UNL     1      23.848   5.622  51.311  1.00  0.00    -0.367 OA
HETATM   26  H21 UNL     1      23.363   4.940  51.825  1.00  0.00     0.212 HD
ENDBRANCH  24  25
ENDBRANCH  13  19
BRANCH   8  27
HETATM   27  O2  UNL     1      22.209  -1.860  55.376  1.00  0.00    -0.361 OA
HETATM   28  H8  UNL     1      21.310  -2.288  55.416  1.00  0.00     0.217 HD
ENDBRANCH   8  27
BRANCH   1  29
HETATM   29  O1  UNL     1      17.786   2.380  47.685  1.00  0.00    -0.363 OA
HETATM   30  H1  UNL     1      17.620   3.206  47.135  1.00  0.00     0.217 HD
ENDBRANCH   1  29
TORSDOF 4
ENDMDL
MODEL 5
REMARK VINA RESULT:      -8.7      2.515      6.227
REMARK  4 active torsions:
REMARK  status: ('A' for Active; 'I' for Inactive)
REMARK    1  A    between atoms: O1_1  and  C1_2 
REMARK    2  A    between atoms: C8_9  and  O2_10 
REMARK    3  A    between atoms: C13_15  and  N1_16 
REMARK    4  A    between atoms: C18_21  and  O3_22 
ROOT
HETATM    1  C1  UNL     1      22.882   5.419  51.441  1.00  0.00     0.063 C 
HETATM    2  C2  UNL     1      23.711   4.714  52.240  1.00  0.00     0.033 C 
HETATM    3  C3  UNL     1      24.297   3.476  52.808  1.00  0.00    -0.001 C 
HETATM    4  C4  UNL     1      24.102   2.175  52.616  1.00  0.00    -0.022 C 
HETATM    5  C5  UNL     1      23.580   0.884  52.106  1.00  0.00     0.066 C 
HETATM    6  C6  UNL     1      22.999   0.075  53.176  1.00  0.00    -0.046 A 
HETATM    7  C7  UNL     1      24.022  -0.382  54.006  1.00  0.00     0.044 A 
HETATM    8  C8  UNL     1      23.879  -1.181  55.122  1.00  0.00     0.066 A 
HETATM    9  C9  UNL     1      22.607  -1.583  55.474  1.00  0.00     0.037 A 
HETATM   10  C10 UNL     1      21.576  -1.127  54.644  1.00  0.00     0.010 A 
HETATM   11  C11 UNL     1      21.720  -0.314  53.508  1.00  0.00    -0.049 A 
HETATM   12  C12 UNL     1      20.345  -0.139  52.997  1.00  0.00     0.080 C 
HETATM   13  C13 UNL     1      20.138   0.841  51.913  1.00  0.00     0.270 C 
HETATM   14  C19 UNL     1      20.584   2.213  52.253  1.00  0.00     0.119 C 
HETATM   15  N2  UNL     1      21.096   3.285  51.831  1.00  0.00    -0.302 NA
HETATM   16  C20 UNL     1      21.529   3.606  50.526  1.00  0.00     0.175 C 
HETATM   17  C21 UNL     1      21.815   5.120  50.429  1.00  0.00     0.158 C 
HETATM   18 CL1  UNL     1      20.285   5.940  50.800  1.00  0.00    -0.116 Cl
ENDROOT
BRANCH  13  19
HETATM   19  N1  UNL     1      18.733   0.813  51.549  1.00  0.00     0.130 N 
HETATM   20  C14 UNL     1      18.168  -0.514  51.749  1.00  0.00     0.304 C 
HETATM   21  C15 UNL     1      16.684  -0.313  51.849  1.00  0.00    -0.001 C 
HETATM   22  C16 UNL     1      16.286   0.369  50.781  1.00  0.00    -0.025 C 
HETATM   23  C17 UNL     1      17.136   0.862  49.664  1.00  0.00     0.091 C 
HETATM   24  C18 UNL     1      18.454   1.314  50.224  1.00  0.00     0.361 C 
BRANCH  24  25
HETATM   25  O3  UNL     1      19.461   0.976  49.317  1.00  0.00    -0.367 OA
HETATM   26  H21 UNL     1      19.113   0.472  48.548  1.00  0.00     0.212 HD
ENDBRANCH  24  25
ENDBRANCH  13  19
BRANCH   8  27
HETATM   27  O2  UNL     1      24.937  -1.615  55.926  1.00  0.00    -0.361 OA
HETATM   28  H8  UNL     1      25.813  -1.945  55.582  1.00  0.00     0.217 HD
ENDBRANCH   8  27
BRANCH   1  29
HETATM   29  O1  UNL     1      22.803   6.823  51.353  1.00  0.00    -0.363 OA
HETATM   30  H1  UNL     1      23.332   7.356  50.682  1.00  0.00     0.217 HD
ENDBRANCH   1  29
TORSDOF 4
ENDMDL
MODEL 6
REMARK VINA RESULT:      -8.4      2.534      5.642
REMARK  4 active torsions:
REMARK  status: ('A' for Active; 'I' for Inactive)
REMARK    1  A    between atoms: O1_1  and  C1_2 
REMARK    2  A    between atoms: C8_9  and  O2_10 
REMARK    3  A    between atoms: C13_15  and  N1_16 
REMARK    4  A    between atoms: C18_21  and  O3_22 
ROOT
HETATM    1  C1  UNL     1      24.764  -0.517  54.076  1.00  0.00     0.063 C 
HETATM    2  C2  UNL     1      23.446  -0.798  54.000  1.00  0.00     0.033 C 
HETATM    3  C3  UNL     1      22.093  -0.738  53.395  1.00  0.00    -0.001 C 
HETATM    4  C4  UNL     1      21.577  -0.163  52.312  1.00  0.00    -0.022 C 
HETATM    5  C5  UNL     1      21.431   0.615  51.059  1.00  0.00     0.066 C 
HETATM    6  C6  UNL     1      20.474   1.709  51.208  1.00  0.00    -0.046 A 
HETATM    7  C7  UNL     1      19.191   1.178  51.320  1.00  0.00     0.044 A 
HETATM    8  C8  UNL     1      18.017   1.888  51.470  1.00  0.00     0.066 A 
HETATM    9  C9  UNL     1      18.094   3.266  51.514  1.00  0.00     0.037 A 
HETATM   10  C10 UNL     1      19.380   3.805  51.402  1.00  0.00     0.010 A 
HETATM   11  C11 UNL     1      20.576   3.083  51.251  1.00  0.00    -0.049 A 
HETATM   12  C12 UNL     1      21.629   4.116  51.169  1.00  0.00     0.080 C 
HETATM   13  C13 UNL     1      23.033   3.665  51.208  1.00  0.00     0.270 C 
HETATM   14  C19 UNL     1      23.377   2.881  52.418  1.00  0.00     0.119 C 
HETATM   15  N2  UNL     1      24.057   1.934  52.897  1.00  0.00    -0.302 NA
HETATM   16  C20 UNL     1      24.967   1.077  52.240  1.00  0.00     0.175 C 
HETATM   17  C21 UNL     1      25.768   0.267  53.283  1.00  0.00     0.158 C 
HETATM   18 CL1  UNL     1      26.633   1.456  54.278  1.00  0.00    -0.116 Cl
ENDROOT
BRANCH  13  19
HETATM   19  N1  UNL     1      23.881   4.835  51.074  1.00  0.00     0.130 N 
HETATM   20  C14 UNL     1      23.130   5.966  50.548  1.00  0.00     0.304 C 
HETATM   21  C15 UNL     1      23.914   7.187  50.930  1.00  0.00    -0.001 C 
HETATM   22  C16 UNL     1      25.163   7.028  50.506  1.00  0.00    -0.025 C 
HETATM   23  C17 UNL     1      25.719   5.857  49.777  1.00  0.00     0.091 C 
HETATM   24  C18 UNL     1      25.092   4.606  50.323  1.00  0.00     0.361 C 
BRANCH  24  25
HETATM   25  O3  UNL     1      24.890   3.713  49.267  1.00  0.00    -0.367 OA
HETATM   26  H21 UNL     1      24.517   4.156  48.474  1.00  0.00     0.212 HD
ENDBRANCH  24  25
ENDBRANCH  13  19
BRANCH   8  27
HETATM   27  O2  UNL     1      16.749   1.310  51.578  1.00  0.00    -0.361 OA
HETATM   28  H8  UNL     1      16.357   0.675  50.918  1.00  0.00     0.217 HD
ENDBRANCH   8  27
BRANCH   1  29
HETATM   29  O1  UNL     1      25.654  -0.959  55.076  1.00  0.00    -0.363 OA
HETATM   30  H1  UNL     1      26.646  -1.037  54.923  1.00  0.00     0.217 HD
ENDBRANCH   1  29
TORSDOF 4
ENDMDL
MODEL 7
REMARK VINA RESULT:      -8.4      2.194      5.630
REMARK  4 active torsions:
REMARK  status: ('A' for Active; 'I' for Inactive)
REMARK    1  A    between atoms: O1_1  and  C1_2 
REMARK    2  A    between atoms: C8_9  and  O2_10 
REMARK    3  A    between atoms: C13_15  and  N1_16 
REMARK    4  A    between atoms: C18_21  and  O3_22 
ROOT
HETATM    1  C1  UNL     1      24.037   5.002  49.055  1.00  0.00     0.063 C 
HETATM    2  C2  UNL     1      25.295   4.825  49.509  1.00  0.00     0.033 C 
HETATM    3  C3  UNL     1      26.418   4.043  50.083  1.00  0.00    -0.001 C 
HETATM    4  C4  UNL     1      26.580   2.780  50.466  1.00  0.00    -0.022 C 
HETATM    5  C5  UNL     1      26.328   1.349  50.757  1.00  0.00     0.066 C 
HETATM    6  C6  UNL     1      26.523   1.042  52.172  1.00  0.00    -0.046 A 
HETATM    7  C7  UNL     1      27.882   1.119  52.471  1.00  0.00     0.044 A 
HETATM    8  C8  UNL     1      28.468   0.892  53.700  1.00  0.00     0.066 A 
HETATM    9  C9  UNL     1      27.648   0.550  54.756  1.00  0.00     0.037 A 
HETATM   10  C10 UNL     1      26.282   0.470  54.462  1.00  0.00     0.010 A 
HETATM   11  C11 UNL     1      25.685   0.703  53.212  1.00  0.00    -0.049 A 
HETATM   12  C12 UNL     1      24.242   0.477  53.439  1.00  0.00     0.080 C 
HETATM   13  C13 UNL     1      23.314   0.841  52.352  1.00  0.00     0.270 C 
HETATM   14  C19 UNL     1      23.405   2.261  51.937  1.00  0.00     0.119 C 
HETATM   15  N2  UNL     1      23.335   3.082  50.983  1.00  0.00    -0.302 NA
HETATM   16  C20 UNL     1      23.070   2.833  49.618  1.00  0.00     0.175 C 
HETATM   17  C21 UNL     1      22.801   4.167  48.887  1.00  0.00     0.158 C 
HETATM   18 CL1  UNL     1      21.386   4.890  49.678  1.00  0.00    -0.116 Cl
ENDROOT
BRANCH  13  19
HETATM   19  N1  UNL     1      21.970   0.498  52.780  1.00  0.00     0.130 N 
HETATM   20  C14 UNL     1      21.940  -0.820  53.398  1.00  0.00     0.304 C 
HETATM   21  C15 UNL     1      20.692  -0.849  54.232  1.00  0.00    -0.001 C 
HETATM   22  C16 UNL     1      19.668  -0.510  53.458  1.00  0.00    -0.025 C 
HETATM   23  C17 UNL     1      19.714  -0.159  52.013  1.00  0.00     0.091 C 
HETATM   24  C18 UNL     1      20.969   0.622  51.747  1.00  0.00     0.361 C 
BRANCH  24  25
HETATM   25  O3  UNL     1      21.465   0.252  50.494  1.00  0.00    -0.367 OA
HETATM   26  H21 UNL     1      22.120   0.899  50.149  1.00  0.00     0.212 HD
ENDBRANCH  24  25
ENDBRANCH  13  19
BRANCH   8  27
HETATM   27  O2  UNL     1      29.840   0.983  53.952  1.00  0.00    -0.361 OA
HETATM   28  H8  UNL     1      30.249   1.009  54.861  1.00  0.00     0.217 HD
ENDBRANCH   8  27
BRANCH   1  29
HETATM   29  O1  UNL     1      23.493   6.201  48.553  1.00  0.00    -0.363 OA
HETATM   30  H1  UNL     1      22.579   6.248  48.132  1.00  0.00     0.217 HD
ENDBRANCH   1  29
TORSDOF 4
ENDMDL
MODEL 8
REMARK VINA RESULT:      -8.2      2.559      6.095
REMARK  4 active torsions:
REMARK  status: ('A' for Active; 'I' for Inactive)
REMARK    1  A    between atoms: O1_1  and  C1_2 
REMARK    2  A    between atoms: C8_9  and  O2_10 
REMARK    3  A    between atoms: C13_15  and  N1_16 
REMARK    4  A    between atoms: C18_21  and  O3_22 
ROOT
HETATM    1  C1  UNL     1      23.780   5.562  51.811  1.00  0.00     0.063 C 
HETATM    2  C2  UNL     1      24.058   4.540  52.647  1.00  0.00     0.033 C 
HETATM    3  C3  UNL     1      24.039   3.124  53.090  1.00  0.00    -0.001 C 
HETATM    4  C4  UNL     1      23.550   1.994  52.589  1.00  0.00    -0.022 C 
HETATM    5  C5  UNL     1      22.876   1.016  51.702  1.00  0.00     0.066 C 
HETATM    6  C6  UNL     1      21.767   0.346  52.378  1.00  0.00    -0.046 A 
HETATM    7  C7  UNL     1      22.279  -0.514  53.348  1.00  0.00     0.044 A 
HETATM    8  C8  UNL     1      21.552  -1.327  54.193  1.00  0.00     0.066 A 
HETATM    9  C9  UNL     1      20.176  -1.307  54.086  1.00  0.00     0.037 A 
HETATM   10  C10 UNL     1      19.655  -0.447  53.114  1.00  0.00     0.010 A 
HETATM   11  C11 UNL     1      20.395   0.382  52.254  1.00  0.00    -0.049 A 
HETATM   12  C12 UNL     1      19.379   1.065  51.427  1.00  0.00     0.080 C 
HETATM   13  C13 UNL     1      19.834   2.163  50.553  1.00  0.00     0.270 C 
HETATM   14  C19 UNL     1      20.519   3.260  51.276  1.00  0.00     0.119 C 
HETATM   15  N2  UNL     1      21.429   4.132  51.242  1.00  0.00    -0.302 NA
HETATM   16  C20 UNL     1      22.341   4.420  50.204  1.00  0.00     0.175 C 
HETATM   17  C21 UNL     1      23.069   5.749  50.502  1.00  0.00     0.158 C 
HETATM   18 CL1  UNL     1      21.809   6.996  50.592  1.00  0.00    -0.116 Cl
ENDROOT
BRANCH  13  19
HETATM   19  N1  UNL     1      18.683   2.651  49.814  1.00  0.00     0.130 N 
HETATM   20  C14 UNL     1      17.595   1.685  49.846  1.00  0.00     0.304 C 
HETATM   21  C15 UNL     1      16.351   2.463  49.532  1.00  0.00    -0.001 C 
HETATM   22  C16 UNL     1      16.552   3.125  48.397  1.00  0.00    -0.025 C 
HETATM   23  C17 UNL     1      17.781   3.116  47.561  1.00  0.00     0.091 C 
HETATM   24  C18 UNL     1      18.980   3.071  48.465  1.00  0.00     0.361 C 
BRANCH  24  25
HETATM   25  O3  UNL     1      19.955   2.266  47.871  1.00  0.00    -0.367 OA
HETATM   26  H21 UNL     1      19.631   1.840  47.047  1.00  0.00     0.212 HD
ENDBRANCH  24  25
ENDBRANCH  13  19
BRANCH   8  27
HETATM   27  O2  UNL     1      22.112  -2.175  55.154  1.00  0.00    -0.361 OA
HETATM   28  H8  UNL     1      23.089  -2.280  55.316  1.00  0.00     0.217 HD
ENDBRANCH   8  27
BRANCH   1  29
HETATM   29  O1  UNL     1      24.145   6.911  51.992  1.00  0.00    -0.363 OA
HETATM   30  H1  UNL     1      25.078   7.192  52.244  1.00  0.00     0.217 HD
ENDBRANCH   1  29
TORSDOF 4
ENDMDL
MODEL 9
REMARK VINA RESULT:      -7.8      2.079      5.579
REMARK  4 active torsions:
REMARK  status: ('A' for Active; 'I' for Inactive)
REMARK    1  A    between atoms: O1_1  and  C1_2 
REMARK    2  A    between atoms: C8_9  and  O2_10 
REMARK    3  A    between atoms: C13_15  and  N1_16 
REMARK    4  A    between atoms: C18_21  and  O3_22 
ROOT
HETATM    1  C1  UNL     1      22.242   7.122  49.052  1.00  0.00     0.063 C 
HETATM    2  C2  UNL     1      23.512   6.912  49.457  1.00  0.00     0.033 C 
HETATM    3  C3  UNL     1      24.697   6.083  49.786  1.00  0.00    -0.001 C 
HETATM    4  C4  UNL     1      24.961   4.779  49.767  1.00  0.00    -0.022 C 
HETATM    5  C5  UNL     1      24.827   3.313  49.601  1.00  0.00     0.066 C 
HETATM    6  C6  UNL     1      25.051   2.602  50.858  1.00  0.00    -0.046 A 
HETATM    7  C7  UNL     1      26.401   2.690  51.195  1.00  0.00     0.044 A 
HETATM    8  C8  UNL     1      27.008   2.143  52.307  1.00  0.00     0.066 A 
HETATM    9  C9  UNL     1      26.223   1.431  53.190  1.00  0.00     0.037 A 
HETATM   10  C10 UNL     1      24.867   1.338  52.857  1.00  0.00     0.010 A 
HETATM   11  C11 UNL     1      24.247   1.896  51.726  1.00  0.00    -0.049 A 
HETATM   12  C12 UNL     1      22.829   1.500  51.843  1.00  0.00     0.080 C 
HETATM   13  C13 UNL     1      21.870   2.106  50.901  1.00  0.00     0.270 C 
HETATM   14  C19 UNL     1      21.845   3.588  50.942  1.00  0.00     0.119 C 
HETATM   15  N2  UNL     1      21.705   4.654  50.284  1.00  0.00    -0.302 NA
HETATM   16  C20 UNL     1      21.455   4.816  48.904  1.00  0.00     0.175 C 
HETATM   17  C21 UNL     1      21.077   6.284  48.611  1.00  0.00     0.158 C 
HETATM   18 CL1  UNL     1      19.611   6.618  49.556  1.00  0.00    -0.116 Cl
ENDROOT
BRANCH  13  19
HETATM   19  N1  UNL     1      20.559   1.545  51.175  1.00  0.00     0.130 N 
HETATM   20  C14 UNL     1      20.673   0.216  51.758  1.00  0.00     0.304 C 
HETATM   21  C15 UNL     1      19.367  -0.036  52.454  1.00  0.00    -0.001 C 
HETATM   22  C16 UNL     1      18.387   0.170  51.580  1.00  0.00    -0.025 C 
HETATM   23  C17 UNL     1      18.526   0.578  50.157  1.00  0.00     0.091 C 
HETATM   24  C18 UNL     1      19.663   1.552  50.043  1.00  0.00     0.361 C 
BRANCH  24  25
HETATM   25  O3  UNL     1      20.337   1.310  48.843  1.00  0.00    -0.367 OA
HETATM   26  H21 UNL     1      20.761   2.121  48.486  1.00  0.00     0.212 HD
ENDBRANCH  24  25
ENDBRANCH  13  19
BRANCH   8  27
HETATM   27  O2  UNL     1      28.370   2.258  52.603  1.00  0.00    -0.361 OA
HETATM   28  H8  UNL     1      29.048   1.546  52.440  1.00  0.00     0.217 HD
ENDBRANCH   8  27
BRANCH   1  29
HETATM   29  O1  UNL     1      21.601   8.371  48.930  1.00  0.00    -0.363 OA
HETATM   30  H1  UNL     1      20.599   8.466  48.894  1.00  0.00     0.217 HD
ENDBRANCH   1  29
TORSDOF 4
ENDMDL
