MODEL 1
REMARK VINA RESULT:      -7.7      0.000      0.000
REMARK  6 active torsions:
REMARK  status: ('A' for Active; 'I' for Inactive)
REMARK    1  A    between atoms: N1_2  and  C2_3 
REMARK    2  A    between atoms: N1_2  and  C5_7 
REMARK    3  A    between atoms: C2_3  and  C3_4 
REMARK    4  A    between atoms: C3_4  and  C4_5 
REMARK    5  A    between atoms: C5_7  and  C6_8 
REMARK    6  A    between atoms: C7_9  and  O2_10 
ROOT
HETATM    1  C6  UNL     1      25.655   0.900  52.768  1.00  0.00    -0.025 C 
HETATM    2  C7  UNL     1      24.994   1.885  52.133  1.00  0.00     0.052 C 
HETATM    3  C8  UNL     1      23.764   2.637  51.907  1.00  0.00     0.103 C 
HETATM    4  C9  UNL     1      23.056   2.223  50.669  1.00  0.00    -0.044 A 
HETATM    5  C10 UNL     1      23.285   2.762  49.437  1.00  0.00     0.008 A 
HETATM    6  C11 UNL     1      22.584   2.300  48.342  1.00  0.00     0.001 A 
HETATM    7  C12 UNL     1      21.639   1.281  48.523  1.00  0.00     0.001 A 
HETATM    8  C13 UNL     1      21.480   0.801  49.804  1.00  0.00     0.010 A 
HETATM    9  C14 UNL     1      22.148   1.207  50.970  1.00  0.00    -0.025 A 
HETATM   10  C15 UNL     1      21.624   0.405  52.086  1.00  0.00     0.249 C 
HETATM   11  O3  UNL     1      22.112   0.632  53.330  1.00  0.00    -0.236 OA
HETATM   12  O4  UNL     1      23.392   0.366  53.436  1.00  0.00     0.000 OA
HETATM   13  C16 UNL     1      23.951  -0.667  54.158  1.00  0.00    -0.020 A 
HETATM   14  C17 UNL     1      24.926  -0.047  53.572  1.00  0.00     0.053 A 
ENDROOT
BRANCH   1  15
HETATM   15  C5  UNL     1      27.096   0.567  52.595  1.00  0.00     0.153 C 
BRANCH  15  16
HETATM   16  N1  UNL     1      27.960   0.928  53.632  1.00  0.00    -0.412 N 
HETATM   17  C1  UNL     1      28.653   2.144  53.661  1.00  0.00     0.143 C 
BRANCH  16  18
HETATM   18  C2  UNL     1      28.666  -0.137  54.255  1.00  0.00     0.123 C 
BRANCH  18  19
HETATM   19  C3  UNL     1      29.637  -0.862  53.350  1.00  0.00     0.088 C 
BRANCH  19  20
HETATM   20  C4  UNL     1      29.305  -2.328  53.346  1.00  0.00     0.232 C 
HETATM   21  O1  UNL     1      28.191  -2.778  52.995  1.00  0.00    -0.307 OA
ENDBRANCH  19  20
ENDBRANCH  18  19
ENDBRANCH  16  18
ENDBRANCH  15  16
ENDBRANCH   1  15
BRANCH   2  22
HETATM   22  O2  UNL     1      25.976   2.475  51.298  1.00  0.00    -0.364 OA
HETATM   23  H11 UNL     1      26.586   3.209  51.637  1.00  0.00     0.217 HD
ENDBRANCH   2  22
TORSDOF 6
ENDMDL
MODEL 2
REMARK VINA RESULT:      -6.8      2.470      6.230
REMARK  6 active torsions:
REMARK  status: ('A' for Active; 'I' for Inactive)
REMARK    1  A    between atoms: N1_2  and  C2_3 
REMARK    2  A    between atoms: N1_2  and  C5_7 
REMARK    3  A    between atoms: C2_3  and  C3_4 
REMARK    4  A    between atoms: C3_4  and  C4_5 
REMARK    5  A    between atoms: C5_7  and  C6_8 
REMARK    6  A    between atoms: C7_9  and  O2_10 
ROOT
HETATM    1  C6  UNL     1      24.117   2.750  52.162  1.00  0.00    -0.025 C 
HETATM    2  C7  UNL     1      25.320   2.232  51.852  1.00  0.00     0.052 C 
HETATM    3  C8  UNL     1      26.192   1.073  51.697  1.00  0.00     0.103 C 
HETATM    4  C9  UNL     1      27.111   0.887  52.848  1.00  0.00    -0.044 A 
HETATM    5  C10 UNL     1      28.348   1.457  52.943  1.00  0.00     0.008 A 
HETATM    6  C11 UNL     1      29.125   1.234  54.062  1.00  0.00     0.001 A 
HETATM    7  C12 UNL     1      28.623   0.416  55.083  1.00  0.00     0.001 A 
HETATM    8  C13 UNL     1      27.365  -0.113  54.896  1.00  0.00     0.010 A 
HETATM    9  C14 UNL     1      26.508   0.061  53.797  1.00  0.00    -0.025 A 
HETATM   10  C15 UNL     1      25.285  -0.712  54.060  1.00  0.00     0.249 C 
HETATM   11  O3  UNL     1      24.306  -0.711  53.123  1.00  0.00    -0.236 OA
HETATM   12  O4  UNL     1      23.788   0.478  52.923  1.00  0.00     0.000 OA
HETATM   13  C16 UNL     1      22.512   0.876  53.258  1.00  0.00    -0.020 A 
HETATM   14  C17 UNL     1      23.109   1.910  52.756  1.00  0.00     0.053 A 
ENDROOT
BRANCH   1  15
HETATM   15  C5  UNL     1      23.751   4.192  52.106  1.00  0.00     0.153 C 
BRANCH  15  16
HETATM   16  N1  UNL     1      22.861   4.583  51.103  1.00  0.00    -0.412 N 
HETATM   17  C1  UNL     1      21.512   4.866  51.344  1.00  0.00     0.143 C 
BRANCH  16  18
HETATM   18  C2  UNL     1      23.098   4.038  49.811  1.00  0.00     0.123 C 
BRANCH  18  19
HETATM   19  C3  UNL     1      23.396   5.064  48.741  1.00  0.00     0.088 C 
BRANCH  19  20
HETATM   20  C4  UNL     1      24.809   5.552  48.907  1.00  0.00     0.232 C 
HETATM   21  O1  UNL     1      25.784   4.786  49.074  1.00  0.00    -0.307 OA
ENDBRANCH  19  20
ENDBRANCH  18  19
ENDBRANCH  16  18
ENDBRANCH  15  16
ENDBRANCH   1  15
BRANCH   2  22
HETATM   22  O2  UNL     1      26.098   3.361  51.494  1.00  0.00    -0.364 OA
HETATM   23  H11 UNL     1      26.272   4.114  52.150  1.00  0.00     0.217 HD
ENDBRANCH   2  22
TORSDOF 6
ENDMDL
MODEL 3
REMARK VINA RESULT:      -6.7      1.587      1.996
REMARK  6 active torsions:
REMARK  status: ('A' for Active; 'I' for Inactive)
REMARK    1  A    between atoms: N1_2  and  C2_3 
REMARK    2  A    between atoms: N1_2  and  C5_7 
REMARK    3  A    between atoms: C2_3  and  C3_4 
REMARK    4  A    between atoms: C3_4  and  C4_5 
REMARK    5  A    between atoms: C5_7  and  C6_8 
REMARK    6  A    between atoms: C7_9  and  O2_10 
ROOT
HETATM    1  C6  UNL     1      24.128   0.315  53.050  1.00  0.00    -0.025 C 
HETATM    2  C7  UNL     1      23.316   1.283  52.588  1.00  0.00     0.052 C 
HETATM    3  C8  UNL     1      22.078   2.048  52.693  1.00  0.00     0.103 C 
HETATM    4  C9  UNL     1      21.037   1.592  51.738  1.00  0.00    -0.044 A 
HETATM    5  C10 UNL     1      20.899   2.069  50.466  1.00  0.00     0.008 A 
HETATM    6  C11 UNL     1      19.906   1.571  49.648  1.00  0.00     0.001 A 
HETATM    7  C12 UNL     1      19.049   0.580  50.148  1.00  0.00     0.001 A 
HETATM    8  C13 UNL     1      19.269   0.163  51.442  1.00  0.00     0.010 A 
HETATM    9  C14 UNL     1      20.251   0.609  52.341  1.00  0.00    -0.025 A 
HETATM   10  C15 UNL     1      20.071  -0.130  53.599  1.00  0.00     0.249 C 
HETATM   11  O3  UNL     1      20.903   0.144  54.634  1.00  0.00    -0.236 OA
HETATM   12  O4  UNL     1      22.156  -0.143  54.375  1.00  0.00     0.000 OA
HETATM   13  C16 UNL     1      22.896  -1.152  54.954  1.00  0.00    -0.020 A 
HETATM   14  C17 UNL     1      23.660  -0.579  54.078  1.00  0.00     0.053 A 
ENDROOT
BRANCH   1  15
HETATM   15  C5  UNL     1      25.453  -0.054  52.482  1.00  0.00     0.153 C 
BRANCH  15  16
HETATM   16  N1  UNL     1      26.582   0.498  53.092  1.00  0.00    -0.412 N 
HETATM   17  C1  UNL     1      27.325   1.541  52.526  1.00  0.00     0.143 C 
BRANCH  16  18
HETATM   18  C2  UNL     1      27.370  -0.394  53.870  1.00  0.00     0.123 C 
BRANCH  18  19
HETATM   19  C3  UNL     1      28.852  -0.350  53.570  1.00  0.00     0.088 C 
BRANCH  19  20
HETATM   20  C4  UNL     1      29.346  -1.750  53.328  1.00  0.00     0.232 C 
HETATM   21  O1  UNL     1      28.594  -2.749  53.309  1.00  0.00    -0.307 OA
ENDBRANCH  19  20
ENDBRANCH  18  19
ENDBRANCH  16  18
ENDBRANCH  15  16
ENDBRANCH   1  15
BRANCH   2  22
HETATM   22  O2  UNL     1      24.014   1.814  51.474  1.00  0.00    -0.364 OA
HETATM   23  H11 UNL     1      23.722   2.677  51.029  1.00  0.00     0.217 HD
ENDBRANCH   2  22
TORSDOF 6
ENDMDL
MODEL 4
REMARK VINA RESULT:      -6.6      2.870      6.984
REMARK  6 active torsions:
REMARK  status: ('A' for Active; 'I' for Inactive)
REMARK    1  A    between atoms: N1_2  and  C2_3 
REMARK    2  A    between atoms: N1_2  and  C5_7 
REMARK    3  A    between atoms: C2_3  and  C3_4 
REMARK    4  A    between atoms: C3_4  and  C4_5 
REMARK    5  A    between atoms: C5_7  and  C6_8 
REMARK    6  A    between atoms: C7_9  and  O2_10 
ROOT
HETATM    1  C6  UNL     1      22.304   1.638  50.193  1.00  0.00    -0.025 C 
HETATM    2  C7  UNL     1      22.719   1.331  51.436  1.00  0.00     0.052 C 
HETATM    3  C8  UNL     1      23.549   1.628  52.598  1.00  0.00     0.103 C 
HETATM    4  C9  UNL     1      24.771   0.787  52.663  1.00  0.00    -0.044 A 
HETATM    5  C10 UNL     1      24.833  -0.431  53.276  1.00  0.00     0.008 A 
HETATM    6  C11 UNL     1      26.014  -1.145  53.271  1.00  0.00     0.001 A 
HETATM    7  C12 UNL     1      27.135  -0.596  52.634  1.00  0.00     0.001 A 
HETATM    8  C13 UNL     1      26.973   0.637  52.043  1.00  0.00     0.010 A 
HETATM    9  C14 UNL     1      25.815   1.430  51.997  1.00  0.00    -0.025 A 
HETATM   10  C15 UNL     1      26.147   2.661  51.264  1.00  0.00     0.249 C 
HETATM   11  O3  UNL     1      25.181   3.598  51.103  1.00  0.00    -0.236 OA
HETATM   12  O4  UNL     1      24.165   3.171  50.390  1.00  0.00     0.000 OA
HETATM   13  C16 UNL     1      23.822   3.600  49.126  1.00  0.00    -0.020 A 
HETATM   14  C17 UNL     1      22.982   2.668  49.448  1.00  0.00     0.053 A 
ENDROOT
BRANCH   1  15
HETATM   15  C5  UNL     1      21.284   0.892  49.407  1.00  0.00     0.153 C 
BRANCH  15  16
HETATM   16  N1  UNL     1      20.065   1.534  49.176  1.00  0.00    -0.412 N 
HETATM   17  C1  UNL     1      19.913   2.579  48.258  1.00  0.00     0.143 C 
BRANCH  16  18
HETATM   18  C2  UNL     1      19.192   1.636  50.294  1.00  0.00     0.123 C 
BRANCH  18  19
HETATM   19  C3  UNL     1      18.103   0.588  50.340  1.00  0.00     0.088 C 
BRANCH  19  20
HETATM   20  C4  UNL     1      18.310  -0.284  51.548  1.00  0.00     0.232 C 
HETATM   21  O1  UNL     1      19.187  -0.062  52.411  1.00  0.00    -0.307 OA
ENDBRANCH  19  20
ENDBRANCH  18  19
ENDBRANCH  16  18
ENDBRANCH  15  16
ENDBRANCH   1  15
BRANCH   2  22
HETATM   22  O2  UNL     1      21.978   0.169  51.768  1.00  0.00    -0.364 OA
HETATM   23  H11 UNL     1      22.141  -0.714  51.298  1.00  0.00     0.217 HD
ENDBRANCH   2  22
TORSDOF 6
ENDMDL
MODEL 5
REMARK VINA RESULT:      -6.5      7.183      9.003
REMARK  6 active torsions:
REMARK  status: ('A' for Active; 'I' for Inactive)
REMARK    1  A    between atoms: N1_2  and  C2_3 
REMARK    2  A    between atoms: N1_2  and  C5_7 
REMARK    3  A    between atoms: C2_3  and  C3_4 
REMARK    4  A    between atoms: C3_4  and  C4_5 
REMARK    5  A    between atoms: C5_7  and  C6_8 
REMARK    6  A    between atoms: C7_9  and  O2_10 
ROOT
HETATM    1  C6  UNL     1      30.908   6.699  48.762  1.00  0.00    -0.025 C 
HETATM    2  C7  UNL     1      29.728   6.388  48.195  1.00  0.00     0.052 C 
HETATM    3  C8  UNL     1      28.459   6.808  47.611  1.00  0.00     0.103 C 
HETATM    4  C9  UNL     1      27.321   6.680  48.556  1.00  0.00    -0.044 A 
HETATM    5  C10 UNL     1      26.565   5.552  48.698  1.00  0.00     0.008 A 
HETATM    6  C11 UNL     1      25.534   5.526  49.615  1.00  0.00     0.001 A 
HETATM    7  C12 UNL     1      25.282   6.670  50.385  1.00  0.00     0.001 A 
HETATM    8  C13 UNL     1      26.099   7.757  50.170  1.00  0.00     0.010 A 
HETATM    9  C14 UNL     1      27.167   7.872  49.265  1.00  0.00    -0.025 A 
HETATM   10  C15 UNL     1      27.721   9.227  49.400  1.00  0.00     0.249 C 
HETATM   11  O3  UNL     1      28.762   9.582  48.607  1.00  0.00    -0.236 OA
HETATM   12  O4  UNL     1      29.841   8.869  48.828  1.00  0.00     0.000 OA
HETATM   13  C16 UNL     1      31.015   9.323  49.391  1.00  0.00    -0.020 A 
HETATM   14  C17 UNL     1      31.169   8.055  49.169  1.00  0.00     0.053 A 
ENDROOT
BRANCH   1  15
HETATM   15  C5  UNL     1      31.955   5.727  49.182  1.00  0.00     0.153 C 
BRANCH  15  16
HETATM   16  N1  UNL     1      33.079   5.609  48.361  1.00  0.00    -0.412 N 
HETATM   17  C1  UNL     1      34.362   6.002  48.759  1.00  0.00     0.143 C 
BRANCH  16  18
HETATM   18  C2  UNL     1      32.851   5.765  46.966  1.00  0.00     0.123 C 
BRANCH  18  19
HETATM   19  C3  UNL     1      33.368   4.627  46.114  1.00  0.00     0.088 C 
BRANCH  19  20
HETATM   20  C4  UNL     1      32.754   3.339  46.589  1.00  0.00     0.232 C 
HETATM   21  O1  UNL     1      31.530   3.095  46.517  1.00  0.00    -0.307 OA
ENDBRANCH  19  20
ENDBRANCH  18  19
ENDBRANCH  16  18
ENDBRANCH  15  16
ENDBRANCH   1  15
BRANCH   2  22
HETATM   22  O2  UNL     1      29.745   4.972  48.121  1.00  0.00    -0.364 OA
HETATM   23  H11 UNL     1      29.476   4.398  48.912  1.00  0.00     0.217 HD
ENDBRANCH   2  22
TORSDOF 6
ENDMDL
MODEL 6
REMARK VINA RESULT:      -6.4      2.503      6.667
REMARK  6 active torsions:
REMARK  status: ('A' for Active; 'I' for Inactive)
REMARK    1  A    between atoms: N1_2  and  C2_3 
REMARK    2  A    between atoms: N1_2  and  C5_7 
REMARK    3  A    between atoms: C2_3  and  C3_4 
REMARK    4  A    between atoms: C3_4  and  C4_5 
REMARK    5  A    between atoms: C5_7  and  C6_8 
REMARK    6  A    between atoms: C7_9  and  O2_10 
ROOT
HETATM    1  C6  UNL     1      23.792   2.241  52.318  1.00  0.00    -0.025 C 
HETATM    2  C7  UNL     1      25.079   2.173  51.932  1.00  0.00     0.052 C 
HETATM    3  C8  UNL     1      26.268   1.380  51.637  1.00  0.00     0.103 C 
HETATM    4  C9  UNL     1      27.258   1.395  52.744  1.00  0.00    -0.044 A 
HETATM    5  C10 UNL     1      28.249   2.324  52.875  1.00  0.00     0.008 A 
HETATM    6  C11 UNL     1      29.114   2.262  53.948  1.00  0.00     0.001 A 
HETATM    7  C12 UNL     1      28.957   1.232  54.886  1.00  0.00     0.001 A 
HETATM    8  C13 UNL     1      27.927   0.344  54.669  1.00  0.00     0.010 A 
HETATM    9  C14 UNL     1      27.003   0.332  53.612  1.00  0.00    -0.025 A 
HETATM   10  C15 UNL     1      26.108  -0.817  53.815  1.00  0.00     0.249 C 
HETATM   11  O3  UNL     1      25.132  -1.046  52.903  1.00  0.00    -0.236 OA
HETATM   12  O4  UNL     1      24.250  -0.076  52.840  1.00  0.00     0.000 OA
HETATM   13  C16 UNL     1      22.933  -0.148  53.240  1.00  0.00    -0.020 A 
HETATM   14  C17 UNL     1      23.140   1.067  52.839  1.00  0.00     0.053 A 
ENDROOT
BRANCH   1  15
HETATM   15  C5  UNL     1      22.980   3.484  52.423  1.00  0.00     0.153 C 
BRANCH  15  16
HETATM   16  N1  UNL     1      21.997   3.685  51.451  1.00  0.00    -0.412 N 
HETATM   17  C1  UNL     1      22.250   4.312  50.225  1.00  0.00     0.143 C 
BRANCH  16  18
HETATM   18  C2  UNL     1      20.678   3.906  51.933  1.00  0.00     0.123 C 
BRANCH  18  19
HETATM   19  C3  UNL     1      19.860   2.649  52.128  1.00  0.00     0.088 C 
BRANCH  19  20
HETATM   20  C4  UNL     1      19.171   2.305  50.836  1.00  0.00     0.232 C 
HETATM   21  O1  UNL     1      18.469   3.119  50.196  1.00  0.00    -0.307 OA
ENDBRANCH  19  20
ENDBRANCH  18  19
ENDBRANCH  16  18
ENDBRANCH  15  16
ENDBRANCH   1  15
BRANCH   2  22
HETATM   22  O2  UNL     1      25.434   3.522  51.680  1.00  0.00    -0.364 OA
HETATM   23  H11 UNL     1      24.734   4.254  51.637  1.00  0.00     0.217 HD
ENDBRANCH   2  22
TORSDOF 6
ENDMDL
MODEL 7
REMARK VINA RESULT:      -6.4      3.686      5.990
REMARK  6 active torsions:
REMARK  status: ('A' for Active; 'I' for Inactive)
REMARK    1  A    between atoms: N1_2  and  C2_3 
REMARK    2  A    between atoms: N1_2  and  C5_7 
REMARK    3  A    between atoms: C2_3  and  C3_4 
REMARK    4  A    between atoms: C3_4  and  C4_5 
REMARK    5  A    between atoms: C5_7  and  C6_8 
REMARK    6  A    between atoms: C7_9  and  O2_10 
ROOT
HETATM    1  C6  UNL     1      22.121   3.565  51.819  1.00  0.00    -0.025 C 
HETATM    2  C7  UNL     1      22.744   2.375  51.735  1.00  0.00     0.052 C 
HETATM    3  C8  UNL     1      22.685   0.930  51.546  1.00  0.00     0.103 C 
HETATM    4  C9  UNL     1      22.779   0.179  52.823  1.00  0.00    -0.044 A 
HETATM    5  C10 UNL     1      23.953  -0.223  53.393  1.00  0.00     0.008 A 
HETATM    6  C11 UNL     1      23.938  -0.906  54.592  1.00  0.00     0.001 A 
HETATM    7  C12 UNL     1      22.706  -1.179  55.201  1.00  0.00     0.001 A 
HETATM    8  C13 UNL     1      21.577  -0.733  54.550  1.00  0.00     0.010 A 
HETATM    9  C14 UNL     1      21.499  -0.032  53.336  1.00  0.00    -0.025 A 
HETATM   10  C15 UNL     1      20.076   0.210  53.054  1.00  0.00     0.249 C 
HETATM   11  O3  UNL     1      19.746   0.864  51.913  1.00  0.00    -0.236 OA
HETATM   12  O4  UNL     1      20.200   2.094  51.877  1.00  0.00     0.000 OA
HETATM   13  C16 UNL     1      19.442   3.244  51.934  1.00  0.00    -0.020 A 
HETATM   14  C17 UNL     1      20.683   3.613  51.886  1.00  0.00     0.053 A 
ENDROOT
BRANCH   1  15
HETATM   15  C5  UNL     1      22.783   4.882  52.021  1.00  0.00     0.153 C 
BRANCH  15  16
HETATM   16  N1  UNL     1      22.786   5.765  50.938  1.00  0.00    -0.412 N 
HETATM   17  C1  UNL     1      21.999   6.922  50.892  1.00  0.00     0.143 C 
BRANCH  16  18
HETATM   18  C2  UNL     1      23.003   5.183  49.659  1.00  0.00     0.123 C 
BRANCH  18  19
HETATM   19  C3  UNL     1      24.253   5.662  48.954  1.00  0.00     0.088 C 
BRANCH  19  20
HETATM   20  C4  UNL     1      25.415   4.805  49.376  1.00  0.00     0.232 C 
HETATM   21  O1  UNL     1      25.354   3.557  49.452  1.00  0.00    -0.307 OA
ENDBRANCH  19  20
ENDBRANCH  18  19
ENDBRANCH  16  18
ENDBRANCH  15  16
ENDBRANCH   1  15
BRANCH   2  22
HETATM   22  O2  UNL     1      24.116   2.695  51.895  1.00  0.00    -0.364 OA
HETATM   23  H11 UNL     1      24.493   2.975  52.793  1.00  0.00     0.217 HD
ENDBRANCH   2  22
TORSDOF 6
ENDMDL
MODEL 8
REMARK VINA RESULT:      -6.3      3.070      4.556
REMARK  6 active torsions:
REMARK  status: ('A' for Active; 'I' for Inactive)
REMARK    1  A    between atoms: N1_2  and  C2_3 
REMARK    2  A    between atoms: N1_2  and  C5_7 
REMARK    3  A    between atoms: C2_3  and  C3_4 
REMARK    4  A    between atoms: C3_4  and  C4_5 
REMARK    5  A    between atoms: C5_7  and  C6_8 
REMARK    6  A    between atoms: C7_9  and  O2_10 
ROOT
HETATM    1  C6  UNL     1      23.483   2.739  52.097  1.00  0.00    -0.025 C 
HETATM    2  C7  UNL     1      23.370   4.080  52.073  1.00  0.00     0.052 C 
HETATM    3  C8  UNL     1      22.836   5.290  51.459  1.00  0.00     0.103 C 
HETATM    4  C9  UNL     1      23.830   5.989  50.606  1.00  0.00    -0.044 A 
HETATM    5  C10 UNL     1      24.700   6.937  51.061  1.00  0.00     0.008 A 
HETATM    6  C11 UNL     1      25.598   7.522  50.192  1.00  0.00     0.001 A 
HETATM    7  C12 UNL     1      25.594   7.128  48.847  1.00  0.00     0.001 A 
HETATM    8  C13 UNL     1      24.680   6.164  48.483  1.00  0.00     0.010 A 
HETATM    9  C14 UNL     1      23.735   5.517  49.296  1.00  0.00    -0.025 A 
HETATM   10  C15 UNL     1      22.985   4.579  48.447  1.00  0.00     0.249 C 
HETATM   11  O3  UNL     1      21.997   3.844  49.013  1.00  0.00    -0.236 OA
HETATM   12  O4  UNL     1      22.435   3.019  49.935  1.00  0.00     0.000 OA
HETATM   13  C16 UNL     1      22.462   1.644  49.850  1.00  0.00    -0.020 A 
HETATM   14  C17 UNL     1      22.992   1.961  50.989  1.00  0.00     0.053 A 
ENDROOT
BRANCH   1  15
HETATM   15  C5  UNL     1      24.234   1.947  53.109  1.00  0.00     0.153 C 
BRANCH  15  16
HETATM   16  N1  UNL     1      25.293   1.163  52.643  1.00  0.00    -0.412 N 
HETATM   17  C1  UNL     1      25.526  -0.146  53.080  1.00  0.00     0.143 C 
BRANCH  16  18
HETATM   18  C2  UNL     1      26.484   1.861  52.303  1.00  0.00     0.123 C 
BRANCH  18  19
HETATM   19  C3  UNL     1      27.741   1.307  52.937  1.00  0.00     0.088 C 
BRANCH  19  20
HETATM   20  C4  UNL     1      28.525   2.438  53.544  1.00  0.00     0.232 C 
HETATM   21  O1  UNL     1      29.138   2.341  54.630  1.00  0.00    -0.307 OA
ENDBRANCH  19  20
ENDBRANCH  18  19
ENDBRANCH  16  18
ENDBRANCH  15  16
ENDBRANCH   1  15
BRANCH   2  22
HETATM   22  O2  UNL     1      24.124   4.507  53.195  1.00  0.00    -0.364 OA
HETATM   23  H11 UNL     1      23.724   5.114  53.901  1.00  0.00     0.217 HD
ENDBRANCH   2  22
TORSDOF 6
ENDMDL
MODEL 9
REMARK VINA RESULT:      -6.2      2.646      3.919
REMARK  6 active torsions:
REMARK  status: ('A' for Active; 'I' for Inactive)
REMARK    1  A    between atoms: N1_2  and  C2_3 
REMARK    2  A    between atoms: N1_2  and  C5_7 
REMARK    3  A    between atoms: C2_3  and  C3_4 
REMARK    4  A    between atoms: C3_4  and  C4_5 
REMARK    5  A    between atoms: C5_7  and  C6_8 
REMARK    6  A    between atoms: C7_9  and  O2_10 
ROOT
HETATM    1  C6  UNL     1      22.899   1.703  51.865  1.00  0.00    -0.025 C 
HETATM    2  C7  UNL     1      21.661   2.232  51.862  1.00  0.00     0.052 C 
HETATM    3  C8  UNL     1      20.349   2.374  52.483  1.00  0.00     0.103 C 
HETATM    4  C9  UNL     1      19.310   1.537  51.831  1.00  0.00    -0.044 A 
HETATM    5  C10 UNL     1      18.547   1.944  50.775  1.00  0.00     0.008 A 
HETATM    6  C11 UNL     1      17.615   1.087  50.229  1.00  0.00     0.001 A 
HETATM    7  C12 UNL     1      17.467  -0.193  50.779  1.00  0.00     0.001 A 
HETATM    8  C13 UNL     1      18.282  -0.512  51.842  1.00  0.00     0.010 A 
HETATM    9  C14 UNL     1      19.255   0.292  52.458  1.00  0.00    -0.025 A 
HETATM   10  C15 UNL     1      19.850  -0.489  53.553  1.00  0.00     0.249 C 
HETATM   11  O3  UNL     1      20.813   0.090  54.311  1.00  0.00    -0.236 OA
HETATM   12  O4  UNL     1      21.893   0.388  53.628  1.00  0.00     0.000 OA
HETATM   13  C16 UNL     1      23.127  -0.212  53.755  1.00  0.00    -0.020 A 
HETATM   14  C17 UNL     1      23.230   0.664  52.805  1.00  0.00     0.053 A 
ENDROOT
BRANCH   1  15
HETATM   15  C5  UNL     1      23.961   1.970  50.856  1.00  0.00     0.153 C 
BRANCH  15  16
HETATM   16  N1  UNL     1      24.953   2.889  51.206  1.00  0.00    -0.412 N 
HETATM   17  C1  UNL     1      24.824   4.268  51.005  1.00  0.00     0.143 C 
BRANCH  16  18
HETATM   18  C2  UNL     1      26.295   2.429  51.101  1.00  0.00     0.123 C 
BRANCH  18  19
HETATM   19  C3  UNL     1      26.702   1.429  52.161  1.00  0.00     0.088 C 
BRANCH  19  20
HETATM   20  C4  UNL     1      26.605   2.080  53.513  1.00  0.00     0.232 C 
HETATM   21  O1  UNL     1      26.568   1.433  54.584  1.00  0.00    -0.307 OA
ENDBRANCH  19  20
ENDBRANCH  18  19
ENDBRANCH  16  18
ENDBRANCH  15  16
ENDBRANCH   1  15
BRANCH   2  22
HETATM   22  O2  UNL     1      21.640   3.049  50.704  1.00  0.00    -0.364 OA
HETATM   23  H11 UNL     1      22.488   3.266  50.193  1.00  0.00     0.217 HD
ENDBRANCH   2  22
TORSDOF 6
ENDMDL
