MODEL 1
REMARK VINA RESULT:      -7.0      0.000      0.000
REMARK  9 active torsions:
REMARK  status: ('A' for Active; 'I' for Inactive)
REMARK    1  A    between atoms: C3_3  and  C4_4 
REMARK    2  A    between atoms: C3_3  and  C9_10 
REMARK    3  A    between atoms: C4_4  and  C5_5 
REMARK    4  A    between atoms: C5_5  and  C6_6 
REMARK    5  A    between atoms: C12_14  and  C13_15 
REMARK    6  A    between atoms: C13_15  and  C14_16 
REMARK    7  A    between atoms: C15_17  and  C16_18 
REMARK    8  A    between atoms: C17_19  and  C18_20 
REMARK    9  A    between atoms: C18_20  and  S1_21 
ROOT
HETATM    1  C9  UNL     1      23.981   4.429  49.688  1.00  0.00     0.073 C 
HETATM    2  C10 UNL     1      23.812   5.432  48.567  1.00  0.00     0.188 C 
HETATM    3  O2  UNL     1      24.975   6.260  48.929  1.00  0.00    -0.362 OA
HETATM    4  C11 UNL     1      25.972   5.260  49.128  1.00  0.00     0.138 C 
HETATM    5  C12 UNL     1      25.427   4.087  49.598  1.00  0.00    -0.044 C 
ENDROOT
BRANCH   1   6
HETATM    6  C3  UNL     1      23.043   3.320  49.683  1.00  0.00    -0.055 C 
HETATM    7  C2  UNL     1      22.978   2.734  48.457  1.00  0.00    -0.023 C 
HETATM    8  C1  UNL     1      22.065   1.594  48.167  1.00  0.00     0.036 C 
BRANCH   6   9
HETATM    9  C4  UNL     1      22.151   2.741  50.705  1.00  0.00    -0.010 C 
BRANCH   9  10
HETATM   10  C5  UNL     1      22.841   2.149  51.689  1.00  0.00     0.045 C 
BRANCH  10  11
HETATM   11  C6  UNL     1      23.470   1.731  52.941  1.00  0.00     0.017 C 
HETATM   12  C7  UNL     1      22.989   0.461  52.973  1.00  0.00     0.068 A 
HETATM   13  C8  UNL     1      22.540  -0.933  53.133  1.00  0.00     0.239 A 
HETATM   14  O1  UNL     1      23.355  -0.342  54.060  1.00  0.00    -0.347 OA
ENDBRANCH  10  11
ENDBRANCH   9  10
ENDBRANCH   6   9
ENDBRANCH   1   6
BRANCH   5  15
HETATM   15  C13 UNL     1      26.496   3.088  49.769  1.00  0.00     0.064 C 
BRANCH  15  16
HETATM   16  C14 UNL     1      26.579   2.607  51.180  1.00  0.00    -0.022 C 
HETATM   17  C15 UNL     1      26.552   1.256  51.224  1.00  0.00    -0.004 C 
BRANCH  17  18
HETATM   18  C16 UNL     1      26.577  -0.040  51.966  1.00  0.00    -0.003 C 
HETATM   19  C17 UNL     1      26.708  -0.676  53.143  1.00  0.00    -0.014 C 
BRANCH  19  20
HETATM   20  C18 UNL     1      26.942   0.097  54.358  1.00  0.00     0.135 C 
BRANCH  20  21
HETATM   21  S1  UNL     1      28.677   0.259  54.791  1.00  0.00     0.014 S 
HETATM   22  C19 UNL     1      29.710  -0.735  53.712  1.00  0.00     0.127 C 
HETATM   23  O3  UNL     1      29.120   1.693  54.908  1.00  0.00    -0.258 OA
ENDBRANCH  20  21
ENDBRANCH  19  20
ENDBRANCH  17  18
ENDBRANCH  15  16
ENDBRANCH   5  15
TORSDOF 9
ENDMDL
MODEL 2
REMARK VINA RESULT:      -6.7      2.960      6.299
REMARK  9 active torsions:
REMARK  status: ('A' for Active; 'I' for Inactive)
REMARK    1  A    between atoms: C3_3  and  C4_4 
REMARK    2  A    between atoms: C3_3  and  C9_10 
REMARK    3  A    between atoms: C4_4  and  C5_5 
REMARK    4  A    between atoms: C5_5  and  C6_6 
REMARK    5  A    between atoms: C12_14  and  C13_15 
REMARK    6  A    between atoms: C13_15  and  C14_16 
REMARK    7  A    between atoms: C15_17  and  C16_18 
REMARK    8  A    between atoms: C17_19  and  C18_20 
REMARK    9  A    between atoms: C18_20  and  S1_21 
ROOT
HETATM    1  C9  UNL     1      25.437  -0.483  53.707  1.00  0.00     0.073 C 
HETATM    2  C10 UNL     1      25.994  -0.088  55.057  1.00  0.00     0.188 C 
HETATM    3  O2  UNL     1      27.381  -0.498  54.774  1.00  0.00    -0.362 OA
HETATM    4  C11 UNL     1      27.581   0.084  53.487  1.00  0.00     0.138 C 
HETATM    5  C12 UNL     1      26.411   0.131  52.764  1.00  0.00    -0.044 C 
ENDROOT
BRANCH   1   6
HETATM    6  C3  UNL     1      24.034  -0.175  53.493  1.00  0.00    -0.055 C 
HETATM    7  C2  UNL     1      23.248  -0.780  54.425  1.00  0.00    -0.023 C 
HETATM    8  C1  UNL     1      21.764  -0.658  54.414  1.00  0.00     0.036 C 
BRANCH   6   9
HETATM    9  C4  UNL     1      23.311   0.615  52.479  1.00  0.00    -0.010 C 
BRANCH   9  10
HETATM   10  C5  UNL     1      23.375   1.929  52.734  1.00  0.00     0.045 C 
BRANCH  10  11
HETATM   11  C6  UNL     1      23.738   3.334  52.909  1.00  0.00     0.017 C 
HETATM   12  C7  UNL     1      22.703   3.880  52.220  1.00  0.00     0.068 A 
HETATM   13  C8  UNL     1      21.637   4.602  51.503  1.00  0.00     0.239 A 
HETATM   14  O1  UNL     1      22.654   5.275  52.123  1.00  0.00    -0.347 OA
ENDBRANCH  10  11
ENDBRANCH   9  10
ENDBRANCH   6   9
ENDBRANCH   1   6
BRANCH   5  15
HETATM   15  C13 UNL     1      26.674   0.755  51.455  1.00  0.00     0.064 C 
BRANCH  15  16
HETATM   16  C14 UNL     1      26.894   2.226  51.583  1.00  0.00    -0.022 C 
HETATM   17  C15 UNL     1      26.423   2.873  50.492  1.00  0.00    -0.004 C 
BRANCH  17  18
HETATM   18  C16 UNL     1      26.162   4.117  49.708  1.00  0.00    -0.003 C 
HETATM   19  C17 UNL     1      26.648   5.081  48.907  1.00  0.00    -0.014 C 
BRANCH  19  20
HETATM   20  C18 UNL     1      28.058   5.065  48.533  1.00  0.00     0.135 C 
BRANCH  20  21
HETATM   21  S1  UNL     1      28.659   6.638  47.909  1.00  0.00     0.014 S 
HETATM   22  C19 UNL     1      27.339   7.850  47.823  1.00  0.00     0.127 C 
HETATM   23  O3  UNL     1      29.887   7.125  48.633  1.00  0.00    -0.258 OA
ENDBRANCH  20  21
ENDBRANCH  19  20
ENDBRANCH  17  18
ENDBRANCH  15  16
ENDBRANCH   5  15
TORSDOF 9
ENDMDL
MODEL 3
REMARK VINA RESULT:      -6.7      2.709      6.559
REMARK  9 active torsions:
REMARK  status: ('A' for Active; 'I' for Inactive)
REMARK    1  A    between atoms: C3_3  and  C4_4 
REMARK    2  A    between atoms: C3_3  and  C9_10 
REMARK    3  A    between atoms: C4_4  and  C5_5 
REMARK    4  A    between atoms: C5_5  and  C6_6 
REMARK    5  A    between atoms: C12_14  and  C13_15 
REMARK    6  A    between atoms: C13_15  and  C14_16 
REMARK    7  A    between atoms: C15_17  and  C16_18 
REMARK    8  A    between atoms: C17_19  and  C18_20 
REMARK    9  A    between atoms: C18_20  and  S1_21 
ROOT
HETATM    1  C9  UNL     1      24.277   0.630  52.964  1.00  0.00     0.073 C 
HETATM    2  C10 UNL     1      23.300  -0.416  53.456  1.00  0.00     0.188 C 
HETATM    3  O2  UNL     1      22.202   0.526  53.738  1.00  0.00    -0.362 OA
HETATM    4  C11 UNL     1      22.195   1.304  52.543  1.00  0.00     0.138 C 
HETATM    5  C12 UNL     1      23.455   1.411  52.000  1.00  0.00    -0.044 C 
ENDROOT
BRANCH   1   6
HETATM    6  C3  UNL     1      25.548   0.121  52.480  1.00  0.00    -0.055 C 
HETATM    7  C2  UNL     1      25.804  -1.121  52.975  1.00  0.00    -0.023 C 
HETATM    8  C1  UNL     1      27.059  -1.859  52.666  1.00  0.00     0.036 C 
BRANCH   6   9
HETATM    9  C4  UNL     1      26.601   0.678  51.610  1.00  0.00    -0.010 C 
BRANCH   9  10
HETATM   10  C5  UNL     1      27.363   1.568  52.259  1.00  0.00     0.045 C 
BRANCH  10  11
HETATM   11  C6  UNL     1      28.140   2.355  53.216  1.00  0.00     0.017 C 
HETATM   12  C7  UNL     1      28.476   1.343  54.058  1.00  0.00     0.068 A 
HETATM   13  C8  UNL     1      28.911   0.344  55.050  1.00  0.00     0.239 A 
HETATM   14  O1  UNL     1      29.254   1.663  55.176  1.00  0.00    -0.347 OA
ENDBRANCH  10  11
ENDBRANCH   9  10
ENDBRANCH   6   9
ENDBRANCH   1   6
BRANCH   5  15
HETATM   15  C13 UNL     1      23.385   2.208  50.763  1.00  0.00     0.064 C 
BRANCH  15  16
HETATM   16  C14 UNL     1      24.205   3.453  50.864  1.00  0.00    -0.022 C 
HETATM   17  C15 UNL     1      25.273   3.386  50.038  1.00  0.00    -0.004 C 
BRANCH  17  18
HETATM   18  C16 UNL     1      26.516   3.960  49.440  1.00  0.00    -0.003 C 
HETATM   19  C17 UNL     1      27.108   4.998  48.823  1.00  0.00    -0.014 C 
BRANCH  19  20
HETATM   20  C18 UNL     1      26.331   6.194  48.515  1.00  0.00     0.135 C 
BRANCH  20  21
HETATM   21  S1  UNL     1      27.331   7.600  48.020  1.00  0.00     0.014 S 
HETATM   22  C19 UNL     1      27.673   8.676  49.415  1.00  0.00     0.127 C 
HETATM   23  O3  UNL     1      28.558   7.201  47.243  1.00  0.00    -0.258 OA
ENDBRANCH  20  21
ENDBRANCH  19  20
ENDBRANCH  17  18
ENDBRANCH  15  16
ENDBRANCH   5  15
TORSDOF 9
ENDMDL
MODEL 4
REMARK VINA RESULT:      -6.6      3.202      5.715
REMARK  9 active torsions:
REMARK  status: ('A' for Active; 'I' for Inactive)
REMARK    1  A    between atoms: C3_3  and  C4_4 
REMARK    2  A    between atoms: C3_3  and  C9_10 
REMARK    3  A    between atoms: C4_4  and  C5_5 
REMARK    4  A    between atoms: C5_5  and  C6_6 
REMARK    5  A    between atoms: C12_14  and  C13_15 
REMARK    6  A    between atoms: C13_15  and  C14_16 
REMARK    7  A    between atoms: C15_17  and  C16_18 
REMARK    8  A    between atoms: C17_19  and  C18_20 
REMARK    9  A    between atoms: C18_20  and  S1_21 
ROOT
HETATM    1  C9  UNL     1      23.698   3.279  52.144  1.00  0.00     0.073 C 
HETATM    2  C10 UNL     1      22.545   4.240  52.331  1.00  0.00     0.188 C 
HETATM    3  O2  UNL     1      23.323   5.462  52.059  1.00  0.00    -0.362 OA
HETATM    4  C11 UNL     1      24.024   5.082  50.876  1.00  0.00     0.138 C 
HETATM    5  C12 UNL     1      24.291   3.733  50.855  1.00  0.00    -0.044 C 
ENDROOT
BRANCH   1   6
HETATM    6  C3  UNL     1      23.362   1.870  52.250  1.00  0.00    -0.055 C 
HETATM    7  C2  UNL     1      22.233   1.578  51.550  1.00  0.00    -0.023 C 
HETATM    8  C1  UNL     1      21.646   0.210  51.520  1.00  0.00     0.036 C 
BRANCH   6   9
HETATM    9  C4  UNL     1      23.967   0.733  52.969  1.00  0.00    -0.010 C 
BRANCH   9  10
HETATM   10  C5  UNL     1      25.272   0.606  52.692  1.00  0.00     0.045 C 
BRANCH  10  11
HETATM   11  C6  UNL     1      26.603   0.514  52.094  1.00  0.00     0.017 C 
HETATM   12  C7  UNL     1      27.230   1.409  52.902  1.00  0.00     0.068 A 
HETATM   13  C8  UNL     1      28.031   2.352  53.702  1.00  0.00     0.239 A 
HETATM   14  O1  UNL     1      28.589   1.648  52.670  1.00  0.00    -0.347 OA
ENDBRANCH  10  11
ENDBRANCH   9  10
ENDBRANCH   6   9
ENDBRANCH   1   6
BRANCH   5  15
HETATM   15  C13 UNL     1      24.999   3.396  49.608  1.00  0.00     0.064 C 
BRANCH  15  16
HETATM   16  C14 UNL     1      26.481   3.410  49.796  1.00  0.00    -0.022 C 
HETATM   17  C15 UNL     1      27.050   4.353  49.012  1.00  0.00    -0.004 C 
BRANCH  17  18
HETATM   18  C16 UNL     1      28.237   5.100  48.498  1.00  0.00    -0.003 C 
HETATM   19  C17 UNL     1      28.746   6.262  48.054  1.00  0.00    -0.014 C 
BRANCH  19  20
HETATM   20  C18 UNL     1      27.888   7.439  47.965  1.00  0.00     0.135 C 
BRANCH  20  21
HETATM   21  S1  UNL     1      28.506   8.857  48.877  1.00  0.00     0.014 S 
HETATM   22  C19 UNL     1      27.424   9.268  50.249  1.00  0.00     0.127 C 
HETATM   23  O3  UNL     1      29.954   8.717  49.264  1.00  0.00    -0.258 OA
ENDBRANCH  20  21
ENDBRANCH  19  20
ENDBRANCH  17  18
ENDBRANCH  15  16
ENDBRANCH   5  15
TORSDOF 9
ENDMDL
MODEL 5
REMARK VINA RESULT:      -6.5      2.578      6.759
REMARK  9 active torsions:
REMARK  status: ('A' for Active; 'I' for Inactive)
REMARK    1  A    between atoms: C3_3  and  C4_4 
REMARK    2  A    between atoms: C3_3  and  C9_10 
REMARK    3  A    between atoms: C4_4  and  C5_5 
REMARK    4  A    between atoms: C5_5  and  C6_6 
REMARK    5  A    between atoms: C12_14  and  C13_15 
REMARK    6  A    between atoms: C13_15  and  C14_16 
REMARK    7  A    between atoms: C15_17  and  C16_18 
REMARK    8  A    between atoms: C17_19  and  C18_20 
REMARK    9  A    between atoms: C18_20  and  S1_21 
ROOT
HETATM    1  C9  UNL     1      24.253  -0.055  54.426  1.00  0.00     0.073 C 
HETATM    2  C10 UNL     1      24.498  -1.317  55.223  1.00  0.00     0.188 C 
HETATM    3  O2  UNL     1      23.141  -1.403  55.791  1.00  0.00    -0.362 OA
HETATM    4  C11 UNL     1      22.344  -1.188  54.628  1.00  0.00     0.138 C 
HETATM    5  C12 UNL     1      22.973  -0.358  53.728  1.00  0.00    -0.044 C 
ENDROOT
BRANCH   1   6
HETATM    6  C3  UNL     1      25.361   0.390  53.599  1.00  0.00    -0.055 C 
HETATM    7  C2  UNL     1      26.050   1.399  54.198  1.00  0.00    -0.023 C 
HETATM    8  C1  UNL     1      27.213   2.064  53.549  1.00  0.00     0.036 C 
BRANCH   6   9
HETATM    9  C4  UNL     1      25.854  -0.002  52.265  1.00  0.00    -0.010 C 
BRANCH   9  10
HETATM   10  C5  UNL     1      26.472  -1.191  52.294  1.00  0.00     0.045 C 
BRANCH  10  11
HETATM   11  C6  UNL     1      27.303  -2.363  52.565  1.00  0.00     0.017 C 
HETATM   12  C7  UNL     1      28.370  -1.713  53.097  1.00  0.00     0.068 A 
HETATM   13  C8  UNL     1      29.590  -1.138  53.691  1.00  0.00     0.239 A 
HETATM   14  O1  UNL     1      29.459  -2.488  53.512  1.00  0.00    -0.347 OA
ENDBRANCH  10  11
ENDBRANCH   9  10
ENDBRANCH   6   9
ENDBRANCH   1   6
BRANCH   5  15
HETATM   15  C13 UNL     1      22.114  -0.185  52.543  1.00  0.00     0.064 C 
BRANCH  15  16
HETATM   16  C14 UNL     1      21.587   1.209  52.446  1.00  0.00    -0.022 C 
HETATM   17  C15 UNL     1      22.585   2.076  52.165  1.00  0.00    -0.004 C 
BRANCH  17  18
HETATM   18  C16 UNL     1      23.099   3.451  51.891  1.00  0.00    -0.003 C 
HETATM   19  C17 UNL     1      24.081   4.222  51.392  1.00  0.00    -0.014 C 
BRANCH  19  20
HETATM   20  C18 UNL     1      25.267   3.596  50.817  1.00  0.00     0.135 C 
BRANCH  20  21
HETATM   21  S1  UNL     1      25.994   4.528  49.465  1.00  0.00     0.014 S 
HETATM   22  C19 UNL     1      25.786   6.294  49.709  1.00  0.00     0.127 C 
HETATM   23  O3  UNL     1      27.411   4.117  49.167  1.00  0.00    -0.258 OA
ENDBRANCH  20  21
ENDBRANCH  19  20
ENDBRANCH  17  18
ENDBRANCH  15  16
ENDBRANCH   5  15
TORSDOF 9
ENDMDL
MODEL 6
REMARK VINA RESULT:      -6.4      3.353      5.881
REMARK  9 active torsions:
REMARK  status: ('A' for Active; 'I' for Inactive)
REMARK    1  A    between atoms: C3_3  and  C4_4 
REMARK    2  A    between atoms: C3_3  and  C9_10 
REMARK    3  A    between atoms: C4_4  and  C5_5 
REMARK    4  A    between atoms: C5_5  and  C6_6 
REMARK    5  A    between atoms: C12_14  and  C13_15 
REMARK    6  A    between atoms: C13_15  and  C14_16 
REMARK    7  A    between atoms: C15_17  and  C16_18 
REMARK    8  A    between atoms: C17_19  and  C18_20 
REMARK    9  A    between atoms: C18_20  and  S1_21 
ROOT
HETATM    1  C9  UNL     1      23.873   2.724  52.084  1.00  0.00     0.073 C 
HETATM    2  C10 UNL     1      22.371   2.696  52.261  1.00  0.00     0.188 C 
HETATM    3  O2  UNL     1      22.146   4.097  51.863  1.00  0.00    -0.362 OA
HETATM    4  C11 UNL     1      22.933   4.173  50.675  1.00  0.00     0.138 C 
HETATM    5  C12 UNL     1      24.027   3.341  50.738  1.00  0.00    -0.044 C 
ENDROOT
BRANCH   1   6
HETATM    6  C3  UNL     1      24.554   1.461  52.308  1.00  0.00    -0.055 C 
HETATM    7  C2  UNL     1      23.859   0.672  53.170  1.00  0.00    -0.023 C 
HETATM    8  C1  UNL     1      24.353  -0.665  53.600  1.00  0.00     0.036 C 
BRANCH   6   9
HETATM    9  C4  UNL     1      25.827   0.894  51.824  1.00  0.00    -0.010 C 
BRANCH   9  10
HETATM   10  C5  UNL     1      26.884   1.536  52.340  1.00  0.00     0.045 C 
BRANCH  10  11
HETATM   11  C6  UNL     1      27.857   2.262  53.156  1.00  0.00     0.017 C 
HETATM   12  C7  UNL     1      28.224   1.233  53.963  1.00  0.00     0.068 A 
HETATM   13  C8  UNL     1      28.713   0.210  54.904  1.00  0.00     0.239 A 
HETATM   14  O1  UNL     1      29.182   1.494  54.949  1.00  0.00    -0.347 OA
ENDBRANCH  10  11
ENDBRANCH   9  10
ENDBRANCH   6   9
ENDBRANCH   1   6
BRANCH   5  15
HETATM   15  C13 UNL     1      24.791   3.448  49.483  1.00  0.00     0.064 C 
BRANCH  15  16
HETATM   16  C14 UNL     1      26.180   3.941  49.725  1.00  0.00    -0.022 C 
HETATM   17  C15 UNL     1      26.435   5.033  48.969  1.00  0.00    -0.004 C 
BRANCH  17  18
HETATM   18  C16 UNL     1      27.329   6.135  48.504  1.00  0.00    -0.003 C 
HETATM   19  C17 UNL     1      28.555   6.515  48.103  1.00  0.00    -0.014 C 
BRANCH  19  20
HETATM   20  C18 UNL     1      29.628   5.528  48.033  1.00  0.00     0.135 C 
BRANCH  20  21
HETATM   21  S1  UNL     1      31.273   6.248  48.030  1.00  0.00     0.014 S 
HETATM   22  C19 UNL     1      32.068   6.058  49.628  1.00  0.00     0.127 C 
HETATM   23  O3  UNL     1      32.114   5.781  46.872  1.00  0.00    -0.258 OA
ENDBRANCH  20  21
ENDBRANCH  19  20
ENDBRANCH  17  18
ENDBRANCH  15  16
ENDBRANCH   5  15
TORSDOF 9
ENDMDL
MODEL 7
REMARK VINA RESULT:      -6.4      1.993      2.767
REMARK  9 active torsions:
REMARK  status: ('A' for Active; 'I' for Inactive)
REMARK    1  A    between atoms: C3_3  and  C4_4 
REMARK    2  A    between atoms: C3_3  and  C9_10 
REMARK    3  A    between atoms: C4_4  and  C5_5 
REMARK    4  A    between atoms: C5_5  and  C6_6 
REMARK    5  A    between atoms: C12_14  and  C13_15 
REMARK    6  A    between atoms: C13_15  and  C14_16 
REMARK    7  A    between atoms: C15_17  and  C16_18 
REMARK    8  A    between atoms: C17_19  and  C18_20 
REMARK    9  A    between atoms: C18_20  and  S1_21 
ROOT
HETATM    1  C9  UNL     1      23.387   3.414  51.705  1.00  0.00     0.073 C 
HETATM    2  C10 UNL     1      22.354   4.362  51.136  1.00  0.00     0.188 C 
HETATM    3  O2  UNL     1      23.201   5.566  51.203  1.00  0.00    -0.362 OA
HETATM    4  C11 UNL     1      24.416   5.078  50.637  1.00  0.00     0.138 C 
HETATM    5  C12 UNL     1      24.600   3.741  50.905  1.00  0.00    -0.044 C 
ENDROOT
BRANCH   1   6
HETATM    6  C3  UNL     1      22.993   2.017  51.758  1.00  0.00    -0.055 C 
HETATM    7  C2  UNL     1      23.270   1.473  52.974  1.00  0.00    -0.023 C 
HETATM    8  C1  UNL     1      23.000   0.042  53.285  1.00  0.00     0.036 C 
BRANCH   6   9
HETATM    9  C4  UNL     1      22.400   1.091  50.775  1.00  0.00    -0.010 C 
BRANCH   9  10
HETATM   10  C5  UNL     1      21.063   1.067  50.860  1.00  0.00     0.045 C 
BRANCH  10  11
HETATM   11  C6  UNL     1      19.627   0.835  50.717  1.00  0.00     0.017 C 
HETATM   12  C7  UNL     1      19.435   0.148  51.874  1.00  0.00     0.068 A 
HETATM   13  C8  UNL     1      19.087  -0.605  53.091  1.00  0.00     0.239 A 
HETATM   14  O1  UNL     1      18.138  -0.296  52.155  1.00  0.00    -0.347 OA
ENDBRANCH  10  11
ENDBRANCH   9  10
ENDBRANCH   6   9
ENDBRANCH   1   6
BRANCH   5  15
HETATM   15  C13 UNL     1      25.856   3.288  50.284  1.00  0.00     0.064 C 
BRANCH  15  16
HETATM   16  C14 UNL     1      26.755   2.630  51.279  1.00  0.00    -0.022 C 
HETATM   17  C15 UNL     1      26.436   1.323  51.415  1.00  0.00    -0.004 C 
BRANCH  17  18
HETATM   18  C16 UNL     1      26.640  -0.028  52.017  1.00  0.00    -0.003 C 
HETATM   19  C17 UNL     1      26.908  -0.758  53.115  1.00  0.00    -0.014 C 
BRANCH  19  20
HETATM   20  C18 UNL     1      27.133  -0.085  54.390  1.00  0.00     0.135 C 
BRANCH  20  21
HETATM   21  S1  UNL     1      28.773   0.628  54.553  1.00  0.00     0.014 S 
HETATM   22  C19 UNL     1      29.976  -0.281  53.579  1.00  0.00     0.127 C 
HETATM   23  O3  UNL     1      28.791   2.114  54.312  1.00  0.00    -0.258 OA
ENDBRANCH  20  21
ENDBRANCH  19  20
ENDBRANCH  17  18
ENDBRANCH  15  16
ENDBRANCH   5  15
TORSDOF 9
ENDMDL
MODEL 8
REMARK VINA RESULT:      -6.4      2.386      6.658
REMARK  9 active torsions:
REMARK  status: ('A' for Active; 'I' for Inactive)
REMARK    1  A    between atoms: C3_3  and  C4_4 
REMARK    2  A    between atoms: C3_3  and  C9_10 
REMARK    3  A    between atoms: C4_4  and  C5_5 
REMARK    4  A    between atoms: C5_5  and  C6_6 
REMARK    5  A    between atoms: C12_14  and  C13_15 
REMARK    6  A    between atoms: C13_15  and  C14_16 
REMARK    7  A    between atoms: C15_17  and  C16_18 
REMARK    8  A    between atoms: C17_19  and  C18_20 
REMARK    9  A    between atoms: C18_20  and  S1_21 
ROOT
HETATM    1  C9  UNL     1      23.901   0.252  53.447  1.00  0.00     0.073 C 
HETATM    2  C10 UNL     1      23.837  -0.920  54.403  1.00  0.00     0.188 C 
HETATM    3  O2  UNL     1      22.455  -0.674  54.851  1.00  0.00    -0.362 OA
HETATM    4  C11 UNL     1      21.796  -0.464  53.604  1.00  0.00     0.138 C 
HETATM    5  C12 UNL     1      22.636   0.107  52.675  1.00  0.00    -0.044 C 
ENDROOT
BRANCH   1   6
HETATM    6  C3  UNL     1      25.128   0.367  52.679  1.00  0.00    -0.055 C 
HETATM    7  C2  UNL     1      25.218   1.583  52.074  1.00  0.00    -0.023 C 
HETATM    8  C1  UNL     1      26.362   1.951  51.194  1.00  0.00     0.036 C 
BRANCH   6   9
HETATM    9  C4  UNL     1      26.247  -0.554  52.407  1.00  0.00    -0.010 C 
BRANCH   9  10
HETATM   10  C5  UNL     1      27.222  -0.435  53.319  1.00  0.00     0.045 C 
BRANCH  10  11
HETATM   11  C6  UNL     1      28.079  -0.120  54.460  1.00  0.00     0.017 C 
HETATM   12  C7  UNL     1      28.458   1.124  54.069  1.00  0.00     0.068 A 
HETATM   13  C8  UNL     1      28.947   2.481  53.767  1.00  0.00     0.239 A 
HETATM   14  O1  UNL     1      29.330   1.829  54.907  1.00  0.00    -0.347 OA
ENDBRANCH  10  11
ENDBRANCH   9  10
ENDBRANCH   6   9
ENDBRANCH   1   6
BRANCH   5  15
HETATM   15  C13 UNL     1      21.910   0.284  51.406  1.00  0.00     0.064 C 
BRANCH  15  16
HETATM   16  C14 UNL     1      21.656   1.726  51.114  1.00  0.00    -0.022 C 
HETATM   17  C15 UNL     1      22.464   2.159  50.120  1.00  0.00    -0.004 C 
BRANCH  17  18
HETATM   18  C16 UNL     1      22.964   3.219  49.194  1.00  0.00    -0.003 C 
HETATM   19  C17 UNL     1      23.731   4.310  49.020  1.00  0.00    -0.014 C 
BRANCH  19  20
HETATM   20  C18 UNL     1      24.490   4.845  50.145  1.00  0.00     0.135 C 
BRANCH  20  21
HETATM   21  S1  UNL     1      23.469   5.602  51.413  1.00  0.00     0.014 S 
HETATM   22  C19 UNL     1      22.026   6.394  50.697  1.00  0.00     0.127 C 
HETATM   23  O3  UNL     1      23.149   4.663  52.545  1.00  0.00    -0.258 OA
ENDBRANCH  20  21
ENDBRANCH  19  20
ENDBRANCH  17  18
ENDBRANCH  15  16
ENDBRANCH   5  15
TORSDOF 9
ENDMDL
MODEL 9
REMARK VINA RESULT:      -6.3      1.939      4.690
REMARK  9 active torsions:
REMARK  status: ('A' for Active; 'I' for Inactive)
REMARK    1  A    between atoms: C3_3  and  C4_4 
REMARK    2  A    between atoms: C3_3  and  C9_10 
REMARK    3  A    between atoms: C4_4  and  C5_5 
REMARK    4  A    between atoms: C5_5  and  C6_6 
REMARK    5  A    between atoms: C12_14  and  C13_15 
REMARK    6  A    between atoms: C13_15  and  C14_16 
REMARK    7  A    between atoms: C15_17  and  C16_18 
REMARK    8  A    between atoms: C17_19  and  C18_20 
REMARK    9  A    between atoms: C18_20  and  S1_21 
ROOT
HETATM    1  C9  UNL     1      22.873   2.122  49.850  1.00  0.00     0.073 C 
HETATM    2  C10 UNL     1      22.111   2.896  48.797  1.00  0.00     0.188 C 
HETATM    3  O2  UNL     1      21.596   1.714  48.083  1.00  0.00    -0.362 OA
HETATM    4  C11 UNL     1      21.120   0.924  49.171  1.00  0.00     0.138 C 
HETATM    5  C12 UNL     1      21.866   1.127  50.310  1.00  0.00    -0.044 C 
ENDROOT
BRANCH   1   6
HETATM    6  C3  UNL     1      23.517   2.925  50.874  1.00  0.00    -0.055 C 
HETATM    7  C2  UNL     1      22.709   3.939  51.287  1.00  0.00    -0.023 C 
HETATM    8  C1  UNL     1      23.140   4.935  52.307  1.00  0.00     0.036 C 
BRANCH   6   9
HETATM    9  C4  UNL     1      24.845   2.879  51.515  1.00  0.00    -0.010 C 
BRANCH   9  10
HETATM   10  C5  UNL     1      25.829   3.113  50.636  1.00  0.00     0.045 C 
BRANCH  10  11
HETATM   11  C6  UNL     1      26.679   3.518  49.517  1.00  0.00     0.017 C 
HETATM   12  C7  UNL     1      26.299   4.821  49.459  1.00  0.00     0.068 A 
HETATM   13  C8  UNL     1      25.981   6.249  49.286  1.00  0.00     0.239 A 
HETATM   14  O1  UNL     1      26.890   5.624  48.477  1.00  0.00    -0.347 OA
ENDBRANCH  10  11
ENDBRANCH   9  10
ENDBRANCH   6   9
ENDBRANCH   1   6
BRANCH   5  15
HETATM   15  C13 UNL     1      21.321   0.301  51.402  1.00  0.00     0.064 C 
BRANCH  15  16
HETATM   16  C14 UNL     1      21.912   0.674  52.721  1.00  0.00    -0.022 C 
HETATM   17  C15 UNL     1      22.987  -0.099  52.995  1.00  0.00    -0.004 C 
BRANCH  17  18
HETATM   18  C16 UNL     1      24.126  -0.512  53.869  1.00  0.00    -0.003 C 
HETATM   19  C17 UNL     1      25.456  -0.543  54.068  1.00  0.00    -0.014 C 
BRANCH  19  20
HETATM   20  C18 UNL     1      26.348   0.049  53.076  1.00  0.00     0.135 C 
BRANCH  20  21
HETATM   21  S1  UNL     1      27.611   1.112  53.781  1.00  0.00     0.014 S 
HETATM   22  C19 UNL     1      28.765   0.173  54.784  1.00  0.00     0.127 C 
HETATM   23  O3  UNL     1      28.272   1.995  52.756  1.00  0.00    -0.258 OA
ENDBRANCH  20  21
ENDBRANCH  19  20
ENDBRANCH  17  18
ENDBRANCH  15  16
ENDBRANCH   5  15
TORSDOF 9
ENDMDL
