MODEL 1
REMARK VINA RESULT:      -8.7      0.000      0.000
REMARK  7 active torsions:
REMARK  status: ('A' for Active; 'I' for Inactive)
REMARK    1  A    between atoms: C2_2  and  O1_3 
REMARK    2  A    between atoms: O1_3  and  C3_4 
REMARK    3  A    between atoms: C8_9  and  N1_10 
REMARK       I    between atoms: N1_10  and  C9_11 
REMARK    4  A    between atoms: C9_11  and  C10_13 
REMARK    5  A    between atoms: C10_13  and  N2_14 
REMARK       I    between atoms: N2_14  and  C11_15 
REMARK    6  A    between atoms: C11_15  and  O4_17 
REMARK    7  A    between atoms: C14_21  and  C15_22 
ROOT
HETATM    1  C3  UNL     1      22.265   1.419  50.635  1.00  0.00     0.097 A 
HETATM    2  C4  UNL     1      23.557   1.882  50.510  1.00  0.00     0.071 A 
HETATM    3  C5  UNL     1      24.489   1.767  51.518  1.00  0.00     0.068 A 
HETATM    4  C6  UNL     1      24.131   1.173  52.694  1.00  0.00     0.010 A 
HETATM    5  C7  UNL     1      22.836   0.716  52.801  1.00  0.00     0.047 A 
HETATM    6  C8  UNL     1      21.890   0.817  51.812  1.00  0.00     0.069 A 
HETATM    7  C13 UNL     1      24.812   0.996  53.786  1.00  0.00     0.097 C 
HETATM    8  N3  UNL     1      26.052   1.229  54.373  1.00  0.00    -0.388 N 
HETATM    9  C14 UNL     1      27.480   1.167  54.430  1.00  0.00     0.133 C 
HETATM   10  C21 UNL     1      28.121   2.295  53.718  1.00  0.00     0.175 C 
HETATM   11  N4  UNL     1      27.879   2.372  52.317  1.00  0.00    -0.296 NA
HETATM   12  C22 UNL     1      26.714   2.316  51.822  1.00  0.00     0.269 C 
HETATM   13  N5  UNL     1      25.563   2.281  51.040  1.00  0.00    -0.258 NA
HETATM   14  H16 UNL     1      25.879   1.808  55.271  1.00  0.00     0.159 HD
ENDROOT
BRANCH   6  15
HETATM   15  N1  UNL     1      20.543   0.322  51.977  1.00  0.00    -0.323 N 
HETATM   16  C9  UNL     1      20.076  -0.202  53.214  1.00  0.00     0.240 C 
HETATM   17  O2  UNL     1      20.717  -0.321  54.314  1.00  0.00    -0.271 OA
HETATM   18  H8  UNL     1      19.852   0.323  51.221  1.00  0.00     0.169 HD
BRANCH  16  19
HETATM   19  C10 UNL     1      18.732  -0.724  53.468  1.00  0.00     0.227 C 
BRANCH  19  20
HETATM   20  N2  UNL     1      18.723  -2.097  53.968  1.00  0.00    -0.328 N 
HETATM   21  C11 UNL     1      17.582  -2.815  53.504  1.00  0.00     0.360 C 
HETATM   22  O3  UNL     1      16.643  -2.403  52.754  1.00  0.00    -0.239 OA
HETATM   23  H11 UNL     1      19.334  -2.690  54.574  1.00  0.00     0.165 HD
BRANCH  21  24
HETATM   24  O4  UNL     1      17.311  -4.123  53.811  1.00  0.00    -0.309 OA
HETATM   25  C12 UNL     1      16.017  -4.674  53.966  1.00  0.00     0.215 C 
ENDBRANCH  21  24
ENDBRANCH  19  20
ENDBRANCH  16  19
ENDBRANCH   6  15
BRANCH   1  26
HETATM   26  O1  UNL     1      21.278   1.506  49.654  1.00  0.00    -0.349 OA
BRANCH  26  27
HETATM   27  C2  UNL     1      21.703   1.504  48.304  1.00  0.00     0.171 C 
HETATM   28  C1  UNL     1      21.479   2.822  47.619  1.00  0.00     0.034 C 
ENDBRANCH  26  27
ENDBRANCH   1  26
BRANCH   9  29
HETATM   29  C15 UNL     1      27.967  -0.152  53.857  1.00  0.00    -0.034 A 
HETATM   30  C16 UNL     1      27.153  -1.023  53.154  1.00  0.00     0.009 A 
HETATM   31  C17 UNL     1      27.717  -2.198  52.677  1.00  0.00     0.001 A 
HETATM   32  C18 UNL     1      29.049  -2.502  52.889  1.00  0.00     0.000 A 
HETATM   33  C19 UNL     1      29.818  -1.592  53.600  1.00  0.00     0.001 A 
HETATM   34  C20 UNL     1      29.313  -0.408  54.099  1.00  0.00     0.009 A 
ENDBRANCH   9  29
TORSDOF 7
ENDMDL
MODEL 2
REMARK VINA RESULT:      -8.7      5.235      9.310
REMARK  7 active torsions:
REMARK  status: ('A' for Active; 'I' for Inactive)
REMARK    1  A    between atoms: C2_2  and  O1_3 
REMARK    2  A    between atoms: O1_3  and  C3_4 
REMARK    3  A    between atoms: C8_9  and  N1_10 
REMARK       I    between atoms: N1_10  and  C9_11 
REMARK    4  A    between atoms: C9_11  and  C10_13 
REMARK    5  A    between atoms: C10_13  and  N2_14 
REMARK       I    between atoms: N2_14  and  C11_15 
REMARK    6  A    between atoms: C11_15  and  O4_17 
REMARK    7  A    between atoms: C14_21  and  C15_22 
ROOT
HETATM    1  C3  UNL     1      23.893   5.792  50.680  1.00  0.00     0.097 A 
HETATM    2  C4  UNL     1      22.790   5.442  51.428  1.00  0.00     0.071 A 
HETATM    3  C5  UNL     1      22.215   4.192  51.366  1.00  0.00     0.068 A 
HETATM    4  C6  UNL     1      22.749   3.252  50.532  1.00  0.00     0.010 A 
HETATM    5  C7  UNL     1      23.852   3.618  49.793  1.00  0.00     0.047 A 
HETATM    6  C8  UNL     1      24.443   4.856  49.837  1.00  0.00     0.069 A 
HETATM    7  C13 UNL     1      22.358   2.040  50.273  1.00  0.00     0.097 C 
HETATM    8  N3  UNL     1      21.379   1.099  50.577  1.00  0.00    -0.388 N 
HETATM    9  C14 UNL     1      20.597   0.298  51.468  1.00  0.00     0.133 C 
HETATM   10  C21 UNL     1      19.409   1.019  51.978  1.00  0.00     0.175 C 
HETATM   11  N4  UNL     1      19.667   2.179  52.762  1.00  0.00    -0.296 NA
HETATM   12  C22 UNL     1      20.448   3.101  52.382  1.00  0.00     0.269 C 
HETATM   13  N5  UNL     1      21.241   4.230  52.201  1.00  0.00    -0.258 NA
HETATM   14  H16 UNL     1      20.896   0.826  49.647  1.00  0.00     0.159 HD
ENDROOT
BRANCH   6  15
HETATM   15  N1  UNL     1      25.599   5.190  49.037  1.00  0.00    -0.323 N 
HETATM   16  C9  UNL     1      26.856   4.550  49.221  1.00  0.00     0.240 C 
HETATM   17  O2  UNL     1      27.162   3.637  50.062  1.00  0.00    -0.271 OA
HETATM   18  H8  UNL     1      25.580   5.898  48.299  1.00  0.00     0.169 HD
BRANCH  16  19
HETATM   19  C10 UNL     1      28.075   4.826  48.459  1.00  0.00     0.227 C 
BRANCH  19  20
HETATM   20  N2  UNL     1      28.635   6.152  48.712  1.00  0.00    -0.328 N 
HETATM   21  C11 UNL     1      30.053   6.159  48.558  1.00  0.00     0.360 C 
HETATM   22  O3  UNL     1      30.815   5.193  48.244  1.00  0.00    -0.239 OA
HETATM   23  H11 UNL     1      28.269   7.094  48.975  1.00  0.00     0.165 HD
BRANCH  21  24
HETATM   24  O4  UNL     1      30.846   7.263  48.732  1.00  0.00    -0.309 OA
HETATM   25  C12 UNL     1      31.921   7.360  49.649  1.00  0.00     0.215 C 
ENDBRANCH  21  24
ENDBRANCH  19  20
ENDBRANCH  16  19
ENDBRANCH   6  15
BRANCH   1  26
HETATM   26  O1  UNL     1      24.519   7.038  50.698  1.00  0.00    -0.349 OA
BRANCH  26  27
HETATM   27  C2  UNL     1      23.718   8.171  50.418  1.00  0.00     0.171 C 
HETATM   28  C1  UNL     1      23.656   8.494  48.952  1.00  0.00     0.034 C 
ENDBRANCH  26  27
ENDBRANCH   1  26
BRANCH   9  29
HETATM   29  C15 UNL     1      21.453  -0.175  52.629  1.00  0.00    -0.034 A 
HETATM   30  C16 UNL     1      22.803   0.103  52.742  1.00  0.00     0.009 A 
HETATM   31  C17 UNL     1      23.477  -0.384  53.853  1.00  0.00     0.001 A 
HETATM   32  C18 UNL     1      22.832  -1.125  54.826  1.00  0.00     0.000 A 
HETATM   33  C19 UNL     1      21.476  -1.374  54.660  1.00  0.00     0.001 A 
HETATM   34  C20 UNL     1      20.754  -0.916  53.577  1.00  0.00     0.009 A 
ENDBRANCH   9  29
TORSDOF 7
ENDMDL
MODEL 3
REMARK VINA RESULT:      -8.6      2.689      3.157
REMARK  7 active torsions:
REMARK  status: ('A' for Active; 'I' for Inactive)
REMARK    1  A    between atoms: C2_2  and  O1_3 
REMARK    2  A    between atoms: O1_3  and  C3_4 
REMARK    3  A    between atoms: C8_9  and  N1_10 
REMARK       I    between atoms: N1_10  and  C9_11 
REMARK    4  A    between atoms: C9_11  and  C10_13 
REMARK    5  A    between atoms: C10_13  and  N2_14 
REMARK       I    between atoms: N2_14  and  C11_15 
REMARK    6  A    between atoms: C11_15  and  O4_17 
REMARK    7  A    between atoms: C14_21  and  C15_22 
ROOT
HETATM    1  C3  UNL     1      22.498   2.290  49.912  1.00  0.00     0.097 A 
HETATM    2  C4  UNL     1      23.847   2.570  49.947  1.00  0.00     0.071 A 
HETATM    3  C5  UNL     1      24.634   2.306  51.046  1.00  0.00     0.068 A 
HETATM    4  C6  UNL     1      24.067   1.743  52.154  1.00  0.00     0.010 A 
HETATM    5  C7  UNL     1      22.718   1.469  52.101  1.00  0.00     0.047 A 
HETATM    6  C8  UNL     1      21.913   1.722  51.019  1.00  0.00     0.069 A 
HETATM    7  C13 UNL     1      24.588   1.451  53.307  1.00  0.00     0.097 C 
HETATM    8  N3  UNL     1      25.774   1.497  54.035  1.00  0.00    -0.388 N 
HETATM    9  C14 UNL     1      27.164   1.235  54.245  1.00  0.00     0.133 C 
HETATM   10  C21 UNL     1      28.031   2.276  53.649  1.00  0.00     0.175 C 
HETATM   11  N4  UNL     1      27.961   2.415  52.234  1.00  0.00    -0.296 NA
HETATM   12  C22 UNL     1      26.864   2.533  51.612  1.00  0.00     0.269 C 
HETATM   13  N5  UNL     1      25.816   2.675  50.708  1.00  0.00    -0.258 NA
HETATM   14  H16 UNL     1      25.581   2.076  54.928  1.00  0.00     0.159 HD
ENDROOT
BRANCH   6  15
HETATM   15  N1  UNL     1      20.501   1.417  51.017  1.00  0.00    -0.323 N 
HETATM   16  C9  UNL     1      19.540   2.281  51.611  1.00  0.00     0.240 C 
HETATM   17  O2  UNL     1      19.740   3.395  52.206  1.00  0.00    -0.271 OA
HETATM   18  H8  UNL     1      20.115   0.571  50.591  1.00  0.00     0.169 HD
BRANCH  16  19
HETATM   19  C10 UNL     1      18.095   2.050  51.655  1.00  0.00     0.227 C 
BRANCH  19  20
HETATM   20  N2  UNL     1      17.305   3.276  51.570  1.00  0.00    -0.328 N 
HETATM   21  C11 UNL     1      15.956   3.059  51.981  1.00  0.00     0.360 C 
HETATM   22  O3  UNL     1      15.419   1.980  52.381  1.00  0.00    -0.239 OA
HETATM   23  H11 UNL     1      17.469   4.269  51.291  1.00  0.00     0.165 HD
BRANCH  21  24
HETATM   24  O4  UNL     1      14.988   4.028  52.006  1.00  0.00    -0.309 OA
HETATM   25  C12 UNL     1      13.767   3.944  52.718  1.00  0.00     0.215 C 
ENDBRANCH  21  24
ENDBRANCH  19  20
ENDBRANCH  16  19
ENDBRANCH   6  15
BRANCH   1  26
HETATM   26  O1  UNL     1      21.650   2.534  48.833  1.00  0.00    -0.349 OA
BRANCH  26  27
HETATM   27  C2  UNL     1      22.188   2.365  47.534  1.00  0.00     0.171 C 
HETATM   28  C1  UNL     1      21.838   3.495  46.607  1.00  0.00     0.034 C 
ENDBRANCH  26  27
ENDBRANCH   1  26
BRANCH   9  29
HETATM   29  C15 UNL     1      27.529  -0.127  53.682  1.00  0.00    -0.034 A 
HETATM   30  C16 UNL     1      26.629  -0.941  53.018  1.00  0.00     0.009 A 
HETATM   31  C17 UNL     1      27.084  -2.164  52.546  1.00  0.00     0.001 A 
HETATM   32  C18 UNL     1      28.394  -2.570  52.726  1.00  0.00     0.000 A 
HETATM   33  C19 UNL     1      29.252  -1.713  53.400  1.00  0.00     0.001 A 
HETATM   34  C20 UNL     1      28.857  -0.485  53.892  1.00  0.00     0.009 A 
ENDBRANCH   9  29
TORSDOF 7
ENDMDL
MODEL 4
REMARK VINA RESULT:      -8.4      4.422      7.745
REMARK  7 active torsions:
REMARK  status: ('A' for Active; 'I' for Inactive)
REMARK    1  A    between atoms: C2_2  and  O1_3 
REMARK    2  A    between atoms: O1_3  and  C3_4 
REMARK    3  A    between atoms: C8_9  and  N1_10 
REMARK       I    between atoms: N1_10  and  C9_11 
REMARK    4  A    between atoms: C9_11  and  C10_13 
REMARK    5  A    between atoms: C10_13  and  N2_14 
REMARK       I    between atoms: N2_14  and  C11_15 
REMARK    6  A    between atoms: C11_15  and  O4_17 
REMARK    7  A    between atoms: C14_21  and  C15_22 
ROOT
HETATM    1  C3  UNL     1      22.427   1.814  51.463  1.00  0.00     0.097 A 
HETATM    2  C4  UNL     1      22.021   2.811  50.603  1.00  0.00     0.071 A 
HETATM    3  C5  UNL     1      22.500   4.101  50.679  1.00  0.00     0.068 A 
HETATM    4  C6  UNL     1      23.414   4.418  51.643  1.00  0.00     0.010 A 
HETATM    5  C7  UNL     1      23.808   3.409  52.493  1.00  0.00     0.047 A 
HETATM    6  C8  UNL     1      23.347   2.118  52.437  1.00  0.00     0.069 A 
HETATM    7  C13 UNL     1      23.963   5.558  51.936  1.00  0.00     0.097 C 
HETATM    8  N3  UNL     1      23.997   6.902  51.575  1.00  0.00    -0.388 N 
HETATM    9  C14 UNL     1      24.153   7.981  50.649  1.00  0.00     0.133 C 
HETATM   10  C21 UNL     1      22.895   8.296  49.935  1.00  0.00     0.175 C 
HETATM   11  N4  UNL     1      22.366   7.265  49.108  1.00  0.00    -0.296 NA
HETATM   12  C22 UNL     1      22.199   6.079  49.520  1.00  0.00     0.269 C 
HETATM   13  N5  UNL     1      21.921   4.730  49.721  1.00  0.00    -0.258 NA
HETATM   14  H16 UNL     1      23.722   7.476  52.449  1.00  0.00     0.159 HD
ENDROOT
BRANCH   6  15
HETATM   15  N1  UNL     1      23.793   1.097  53.357  1.00  0.00    -0.323 N 
HETATM   16  C9  UNL     1      24.917   0.269  53.080  1.00  0.00     0.240 C 
HETATM   17  O2  UNL     1      25.672   0.280  52.049  1.00  0.00    -0.271 OA
HETATM   18  H8  UNL     1      23.333   0.913  54.252  1.00  0.00     0.169 HD
BRANCH  16  19
HETATM   19  C10 UNL     1      25.435  -0.787  53.952  1.00  0.00     0.227 C 
BRANCH  19  20
HETATM   20  N2  UNL     1      26.863  -1.041  53.775  1.00  0.00    -0.328 N 
HETATM   21  C11 UNL     1      27.654  -0.146  54.555  1.00  0.00     0.360 C 
HETATM   22  O3  UNL     1      27.261   0.781  55.330  1.00  0.00    -0.239 OA
HETATM   23  H11 UNL     1      27.456  -1.705  53.229  1.00  0.00     0.165 HD
BRANCH  21  24
HETATM   24  O4  UNL     1      29.024  -0.150  54.590  1.00  0.00    -0.309 OA
HETATM   25  C12 UNL     1      29.861  -0.855  53.692  1.00  0.00     0.215 C 
ENDBRANCH  21  24
ENDBRANCH  19  20
ENDBRANCH  16  19
ENDBRANCH   6  15
BRANCH   1  26
HETATM   26  O1  UNL     1      21.980   0.494  51.437  1.00  0.00    -0.349 OA
BRANCH  26  27
HETATM   27  C2  UNL     1      20.603   0.270  51.675  1.00  0.00     0.171 C 
HETATM   28  C1  UNL     1      20.315  -0.144  53.090  1.00  0.00     0.034 C 
ENDBRANCH  26  27
ENDBRANCH   1  26
BRANCH   9  29
HETATM   29  C15 UNL     1      25.248   7.655  49.650  1.00  0.00    -0.034 A 
HETATM   30  C16 UNL     1      25.853   6.415  49.562  1.00  0.00     0.009 A 
HETATM   31  C17 UNL     1      26.842   6.239  48.604  1.00  0.00     0.001 A 
HETATM   32  C18 UNL     1      27.220   7.264  47.755  1.00  0.00     0.000 A 
HETATM   33  C19 UNL     1      26.579   8.487  47.889  1.00  0.00     0.001 A 
HETATM   34  C20 UNL     1      25.590   8.721  48.822  1.00  0.00     0.009 A 
ENDBRANCH   9  29
TORSDOF 7
ENDMDL
MODEL 5
REMARK VINA RESULT:      -8.1      6.839     11.096
REMARK  7 active torsions:
REMARK  status: ('A' for Active; 'I' for Inactive)
REMARK    1  A    between atoms: C2_2  and  O1_3 
REMARK    2  A    between atoms: O1_3  and  C3_4 
REMARK    3  A    between atoms: C8_9  and  N1_10 
REMARK       I    between atoms: N1_10  and  C9_11 
REMARK    4  A    between atoms: C9_11  and  C10_13 
REMARK    5  A    between atoms: C10_13  and  N2_14 
REMARK       I    between atoms: N2_14  and  C11_15 
REMARK    6  A    between atoms: C11_15  and  O4_17 
REMARK    7  A    between atoms: C14_21  and  C15_22 
ROOT
HETATM    1  C3  UNL     1      27.452   6.680  48.050  1.00  0.00     0.097 A 
HETATM    2  C4  UNL     1      27.586   5.406  48.559  1.00  0.00     0.071 A 
HETATM    3  C5  UNL     1      26.675   4.855  49.434  1.00  0.00     0.068 A 
HETATM    4  C6  UNL     1      25.593   5.592  49.824  1.00  0.00     0.010 A 
HETATM    5  C7  UNL     1      25.476   6.862  49.306  1.00  0.00     0.047 A 
HETATM    6  C8  UNL     1      26.368   7.433  48.432  1.00  0.00     0.069 A 
HETATM    7  C13 UNL     1      24.643   5.308  50.663  1.00  0.00     0.097 C 
HETATM    8  N3  UNL     1      24.182   4.320  51.528  1.00  0.00    -0.388 N 
HETATM    9  C14 UNL     1      23.774   2.990  51.861  1.00  0.00     0.133 C 
HETATM   10  C21 UNL     1      24.918   2.122  52.219  1.00  0.00     0.175 C 
HETATM   11  N4  UNL     1      25.879   1.895  51.193  1.00  0.00    -0.296 NA
HETATM   12  C22 UNL     1      26.402   2.836  50.526  1.00  0.00     0.269 C 
HETATM   13  N5  UNL     1      27.111   3.671  49.668  1.00  0.00    -0.258 NA
HETATM   14  H16 UNL     1      24.122   4.760  52.515  1.00  0.00     0.159 HD
ENDROOT
BRANCH   6  15
HETATM   15  N1  UNL     1      26.199   8.773  47.920  1.00  0.00    -0.323 N 
HETATM   16  C9  UNL     1      26.328   9.921  48.749  1.00  0.00     0.240 C 
HETATM   17  O2  UNL     1      26.595   9.968  49.998  1.00  0.00    -0.271 OA
HETATM   18  H8  UNL     1      25.980   8.972  46.940  1.00  0.00     0.169 HD
BRANCH  16  19
HETATM   19  C10 UNL     1      26.173  11.311  48.315  1.00  0.00     0.227 C 
BRANCH  19  20
HETATM   20  N2  UNL     1      27.248  11.773  47.439  1.00  0.00    -0.328 N 
HETATM   21  C11 UNL     1      28.192  12.574  48.148  1.00  0.00     0.360 C 
HETATM   22  O3  UNL     1      28.184  12.898  49.376  1.00  0.00    -0.239 OA
HETATM   23  H11 UNL     1      27.507  11.669  46.433  1.00  0.00     0.165 HD
BRANCH  21  24
HETATM   24  O4  UNL     1      29.304  13.142  47.585  1.00  0.00    -0.309 OA
HETATM   25  C12 UNL     1      30.316  12.438  46.887  1.00  0.00     0.215 C 
ENDBRANCH  21  24
ENDBRANCH  19  20
ENDBRANCH  16  19
ENDBRANCH   6  15
BRANCH   1  26
HETATM   26  O1  UNL     1      28.337   7.292  47.164  1.00  0.00    -0.349 OA
BRANCH  26  27
HETATM   27  C2  UNL     1      29.678   7.449  47.590  1.00  0.00     0.171 C 
HETATM   28  C1  UNL     1      29.854   8.589  48.554  1.00  0.00     0.034 C 
ENDBRANCH  26  27
ENDBRANCH   1  26
BRANCH   9  29
HETATM   29  C15 UNL     1      23.002   2.378  50.706  1.00  0.00    -0.034 A 
HETATM   30  C16 UNL     1      23.075   2.850  49.407  1.00  0.00     0.009 A 
HETATM   31  C17 UNL     1      22.323   2.203  48.437  1.00  0.00     0.001 A 
HETATM   32  C18 UNL     1      21.521   1.119  48.743  1.00  0.00     0.000 A 
HETATM   33  C19 UNL     1      21.487   0.689  50.062  1.00  0.00     0.001 A 
HETATM   34  C20 UNL     1      22.212   1.292  51.070  1.00  0.00     0.009 A 
ENDBRANCH   9  29
TORSDOF 7
ENDMDL
MODEL 6
REMARK VINA RESULT:      -8.0      6.542     10.799
REMARK  7 active torsions:
REMARK  status: ('A' for Active; 'I' for Inactive)
REMARK    1  A    between atoms: C2_2  and  O1_3 
REMARK    2  A    between atoms: O1_3  and  C3_4 
REMARK    3  A    between atoms: C8_9  and  N1_10 
REMARK       I    between atoms: N1_10  and  C9_11 
REMARK    4  A    between atoms: C9_11  and  C10_13 
REMARK    5  A    between atoms: C10_13  and  N2_14 
REMARK       I    between atoms: N2_14  and  C11_15 
REMARK    6  A    between atoms: C11_15  and  O4_17 
REMARK    7  A    between atoms: C14_21  and  C15_22 
ROOT
HETATM    1  C3  UNL     1      27.104   7.733  49.378  1.00  0.00     0.097 A 
HETATM    2  C4  UNL     1      25.997   7.481  50.160  1.00  0.00     0.071 A 
HETATM    3  C5  UNL     1      25.343   6.268  50.156  1.00  0.00     0.068 A 
HETATM    4  C6  UNL     1      25.798   5.267  49.347  1.00  0.00     0.010 A 
HETATM    5  C7  UNL     1      26.905   5.536  48.573  1.00  0.00     0.047 A 
HETATM    6  C8  UNL     1      27.574   6.734  48.560  1.00  0.00     0.069 A 
HETATM    7  C13 UNL     1      25.325   4.075  49.141  1.00  0.00     0.097 C 
HETATM    8  N3  UNL     1      24.296   3.209  49.499  1.00  0.00    -0.388 N 
HETATM    9  C14 UNL     1      23.485   2.493  50.434  1.00  0.00     0.133 C 
HETATM   10  C21 UNL     1      22.356   3.306  50.941  1.00  0.00     0.175 C 
HETATM   11  N4  UNL     1      22.704   4.474  51.676  1.00  0.00    -0.296 NA
HETATM   12  C22 UNL     1      23.534   5.330  51.247  1.00  0.00     0.269 C 
HETATM   13  N5  UNL     1      24.393   6.398  51.009  1.00  0.00    -0.258 NA
HETATM   14  H16 UNL     1      23.776   2.935  48.590  1.00  0.00     0.159 HD
ENDROOT
BRANCH   6  15
HETATM   15  N1  UNL     1      28.731   6.964  47.725  1.00  0.00    -0.323 N 
HETATM   16  C9  UNL     1      29.979   6.327  47.970  1.00  0.00     0.240 C 
HETATM   17  O2  UNL     1      30.276   5.502  48.900  1.00  0.00    -0.271 OA
HETATM   18  H8  UNL     1      28.718   7.592  46.917  1.00  0.00     0.169 HD
BRANCH  16  19
HETATM   19  C10 UNL     1      31.198   6.503  47.178  1.00  0.00     0.227 C 
BRANCH  19  20
HETATM   20  N2  UNL     1      32.152   5.407  47.325  1.00  0.00    -0.328 N 
HETATM   21  C11 UNL     1      33.483   5.829  47.031  1.00  0.00     0.360 C 
HETATM   22  O3  UNL     1      33.883   6.982  46.680  1.00  0.00    -0.239 OA
HETATM   23  H11 UNL     1      32.116   4.397  47.590  1.00  0.00     0.165 HD
BRANCH  21  24
HETATM   24  O4  UNL     1      34.584   5.016  47.086  1.00  0.00    -0.309 OA
HETATM   25  C12 UNL     1      34.639   3.758  47.734  1.00  0.00     0.215 C 
ENDBRANCH  21  24
ENDBRANCH  19  20
ENDBRANCH  16  19
ENDBRANCH   6  15
BRANCH   1  26
HETATM   26  O1  UNL     1      27.807   8.935  49.338  1.00  0.00    -0.349 OA
BRANCH  26  27
HETATM   27  C2  UNL     1      27.121  10.072  48.845  1.00  0.00     0.171 C 
HETATM   28  C1  UNL     1      27.949  10.884  47.890  1.00  0.00     0.034 C 
ENDBRANCH  26  27
ENDBRANCH   1  26
BRANCH   9  29
HETATM   29  C15 UNL     1      24.334   2.007  51.594  1.00  0.00    -0.034 A 
HETATM   30  C16 UNL     1      25.607   2.481  51.856  1.00  0.00     0.009 A 
HETATM   31  C17 UNL     1      26.284   1.960  52.950  1.00  0.00     0.001 A 
HETATM   32  C18 UNL     1      25.715   0.996  53.763  1.00  0.00     0.000 A 
HETATM   33  C19 UNL     1      24.436   0.558  53.453  1.00  0.00     0.001 A 
HETATM   34  C20 UNL     1      23.715   1.039  52.379  1.00  0.00     0.009 A 
ENDBRANCH   9  29
TORSDOF 7
ENDMDL
MODEL 7
REMARK VINA RESULT:      -7.5      4.934      8.166
REMARK  7 active torsions:
REMARK  status: ('A' for Active; 'I' for Inactive)
REMARK    1  A    between atoms: C2_2  and  O1_3 
REMARK    2  A    between atoms: O1_3  and  C3_4 
REMARK    3  A    between atoms: C8_9  and  N1_10 
REMARK       I    between atoms: N1_10  and  C9_11 
REMARK    4  A    between atoms: C9_11  and  C10_13 
REMARK    5  A    between atoms: C10_13  and  N2_14 
REMARK       I    between atoms: N2_14  and  C11_15 
REMARK    6  A    between atoms: C11_15  and  O4_17 
REMARK    7  A    between atoms: C14_21  and  C15_22 
ROOT
HETATM    1  C3  UNL     1      23.028   2.743  49.463  1.00  0.00     0.097 A 
HETATM    2  C4  UNL     1      22.839   3.748  48.538  1.00  0.00     0.071 A 
HETATM    3  C5  UNL     1      23.382   5.006  48.685  1.00  0.00     0.068 A 
HETATM    4  C6  UNL     1      24.140   5.282  49.787  1.00  0.00     0.010 A 
HETATM    5  C7  UNL     1      24.318   4.266  50.700  1.00  0.00     0.047 A 
HETATM    6  C8  UNL     1      23.789   3.006  50.577  1.00  0.00     0.069 A 
HETATM    7  C13 UNL     1      24.706   6.390  50.160  1.00  0.00     0.097 C 
HETATM    8  N3  UNL     1      24.888   7.722  49.799  1.00  0.00    -0.388 N 
HETATM    9  C14 UNL     1      25.269   8.771  48.904  1.00  0.00     0.133 C 
HETATM   10  C21 UNL     1      24.173   9.153  47.985  1.00  0.00     0.175 C 
HETATM   11  N4  UNL     1      23.725   8.141  47.089  1.00  0.00    -0.296 NA
HETATM   12  C22 UNL     1      23.412   6.976  47.476  1.00  0.00     0.269 C 
HETATM   13  N5  UNL     1      23.016   5.652  47.638  1.00  0.00    -0.258 NA
HETATM   14  H16 UNL     1      24.508   8.329  50.610  1.00  0.00     0.159 HD
ENDROOT
BRANCH   6  15
HETATM   15  N1  UNL     1      24.006   1.976  51.567  1.00  0.00    -0.323 N 
HETATM   16  C9  UNL     1      25.294   1.433  51.822  1.00  0.00     0.240 C 
HETATM   17  O2  UNL     1      26.404   1.735  51.265  1.00  0.00    -0.271 OA
HETATM   18  H8  UNL     1      23.251   1.584  52.137  1.00  0.00     0.169 HD
BRANCH  16  19
HETATM   19  C10 UNL     1      25.603   0.390  52.803  1.00  0.00     0.227 C 
BRANCH  19  20
HETATM   20  N2  UNL     1      27.031   0.102  52.919  1.00  0.00    -0.328 N 
HETATM   21  C11 UNL     1      27.389  -0.234  54.258  1.00  0.00     0.360 C 
HETATM   22  O3  UNL     1      26.639  -0.300  55.281  1.00  0.00    -0.239 OA
HETATM   23  H11 UNL     1      27.856   0.076  52.279  1.00  0.00     0.165 HD
BRANCH  21  24
HETATM   24  O4  UNL     1      28.659  -0.552  54.664  1.00  0.00    -0.309 OA
HETATM   25  C12 UNL     1      29.752  -0.807  53.802  1.00  0.00     0.215 C 
ENDBRANCH  21  24
ENDBRANCH  19  20
ENDBRANCH  16  19
ENDBRANCH   6  15
BRANCH   1  26
HETATM   26  O1  UNL     1      22.506   1.454  49.372  1.00  0.00    -0.349 OA
BRANCH  26  27
HETATM   27  C2  UNL     1      21.125   1.332  49.086  1.00  0.00     0.171 C 
HETATM   28  C1  UNL     1      20.258   1.551  50.293  1.00  0.00     0.034 C 
ENDBRANCH  26  27
ENDBRANCH   1  26
BRANCH   9  29
HETATM   29  C15 UNL     1      26.493   8.358  48.108  1.00  0.00    -0.034 A 
HETATM   30  C16 UNL     1      26.970   9.069  47.022  1.00  0.00     0.009 A 
HETATM   31  C17 UNL     1      28.102   8.591  46.377  1.00  0.00     0.001 A 
HETATM   32  C18 UNL     1      28.744   7.440  46.796  1.00  0.00     0.000 A 
HETATM   33  C19 UNL     1      28.221   6.766  47.891  1.00  0.00     0.001 A 
HETATM   34  C20 UNL     1      27.099   7.194  48.572  1.00  0.00     0.009 A 
ENDBRANCH   9  29
TORSDOF 7
ENDMDL
MODEL 8
REMARK VINA RESULT:      -7.5      4.263      6.280
REMARK  7 active torsions:
REMARK  status: ('A' for Active; 'I' for Inactive)
REMARK    1  A    between atoms: C2_2  and  O1_3 
REMARK    2  A    between atoms: O1_3  and  C3_4 
REMARK    3  A    between atoms: C8_9  and  N1_10 
REMARK       I    between atoms: N1_10  and  C9_11 
REMARK    4  A    between atoms: C9_11  and  C10_13 
REMARK    5  A    between atoms: C10_13  and  N2_14 
REMARK       I    between atoms: N2_14  and  C11_15 
REMARK    6  A    between atoms: C11_15  and  O4_17 
REMARK    7  A    between atoms: C14_21  and  C15_22 
ROOT
HETATM    1  C3  UNL     1      20.311   4.224  50.046  1.00  0.00     0.097 A 
HETATM    2  C4  UNL     1      20.826   5.112  49.126  1.00  0.00     0.071 A 
HETATM    3  C5  UNL     1      21.916   5.911  49.392  1.00  0.00     0.068 A 
HETATM    4  C6  UNL     1      22.520   5.832  50.614  1.00  0.00     0.010 A 
HETATM    5  C7  UNL     1      21.993   4.939  51.521  1.00  0.00     0.047 A 
HETATM    6  C8  UNL     1      20.909   4.132  51.280  1.00  0.00     0.069 A 
HETATM    7  C13 UNL     1      23.515   6.508  51.104  1.00  0.00     0.097 C 
HETATM    8  N3  UNL     1      24.423   7.521  50.810  1.00  0.00    -0.388 N 
HETATM    9  C14 UNL     1      25.433   8.153  50.018  1.00  0.00     0.133 C 
HETATM   10  C21 UNL     1      24.861   8.982  48.933  1.00  0.00     0.175 C 
HETATM   11  N4  UNL     1      24.098   8.290  47.951  1.00  0.00    -0.296 NA
HETATM   12  C22 UNL     1      23.164   7.488  48.251  1.00  0.00     0.269 C 
HETATM   13  N5  UNL     1      22.114   6.577  48.313  1.00  0.00    -0.258 NA
HETATM   14  H16 UNL     1      24.294   8.294  51.557  1.00  0.00     0.159 HD
ENDROOT
BRANCH   6  15
HETATM   15  N1  UNL     1      20.394   3.213  52.269  1.00  0.00    -0.323 N 
HETATM   16  C9  UNL     1      20.980   1.937  52.492  1.00  0.00     0.240 C 
HETATM   17  O2  UNL     1      21.988   1.416  51.903  1.00  0.00    -0.271 OA
HETATM   18  H8  UNL     1      19.587   3.427  52.861  1.00  0.00     0.169 HD
BRANCH  16  19
HETATM   19  C10 UNL     1      20.524   0.946  53.470  1.00  0.00     0.227 C 
BRANCH  19  20
HETATM   20  N2  UNL     1      21.612   0.325  54.222  1.00  0.00    -0.328 N 
HETATM   21  C11 UNL     1      21.340  -1.048  54.496  1.00  0.00     0.360 C 
HETATM   22  O3  UNL     1      20.318  -1.729  54.171  1.00  0.00    -0.239 OA
HETATM   23  H11 UNL     1      22.535   0.622  54.610  1.00  0.00     0.165 HD
BRANCH  21  24
HETATM   24  O4  UNL     1      22.182  -1.882  55.184  1.00  0.00    -0.309 OA
HETATM   25  C12 UNL     1      23.466  -1.531  55.666  1.00  0.00     0.215 C 
ENDBRANCH  21  24
ENDBRANCH  19  20
ENDBRANCH  16  19
ENDBRANCH   6  15
BRANCH   1  26
HETATM   26  O1  UNL     1      19.213   3.391  49.837  1.00  0.00    -0.349 OA
BRANCH  26  27
HETATM   27  C2  UNL     1      18.570   3.468  48.579  1.00  0.00     0.171 C 
HETATM   28  C1  UNL     1      17.164   2.938  48.608  1.00  0.00     0.034 C 
ENDBRANCH  26  27
ENDBRANCH   1  26
BRANCH   9  29
HETATM   29  C15 UNL     1      26.367   7.109  49.436  1.00  0.00    -0.034 A 
HETATM   30  C16 UNL     1      26.092   5.753  49.444  1.00  0.00     0.009 A 
HETATM   31  C17 UNL     1      27.025   4.896  48.876  1.00  0.00     0.001 A 
HETATM   32  C18 UNL     1      28.198   5.369  48.316  1.00  0.00     0.000 A 
HETATM   33  C19 UNL     1      28.421   6.739  48.336  1.00  0.00     0.001 A 
HETATM   34  C20 UNL     1      27.530   7.639  48.886  1.00  0.00     0.009 A 
ENDBRANCH   9  29
TORSDOF 7
ENDMDL
MODEL 9
REMARK VINA RESULT:      -7.4      4.876      6.568
REMARK  7 active torsions:
REMARK  status: ('A' for Active; 'I' for Inactive)
REMARK    1  A    between atoms: C2_2  and  O1_3 
REMARK    2  A    between atoms: O1_3  and  C3_4 
REMARK    3  A    between atoms: C8_9  and  N1_10 
REMARK       I    between atoms: N1_10  and  C9_11 
REMARK    4  A    between atoms: C9_11  and  C10_13 
REMARK    5  A    between atoms: C10_13  and  N2_14 
REMARK       I    between atoms: N2_14  and  C11_15 
REMARK    6  A    between atoms: C11_15  and  O4_17 
REMARK    7  A    between atoms: C14_21  and  C15_22 
ROOT
HETATM    1  C3  UNL     1      16.670   2.881  49.717  1.00  0.00     0.097 A 
HETATM    2  C4  UNL     1      17.845   2.295  49.298  1.00  0.00     0.071 A 
HETATM    3  C5  UNL     1      19.029   2.424  49.990  1.00  0.00     0.068 A 
HETATM    4  C6  UNL     1      19.054   3.162  51.139  1.00  0.00     0.010 A 
HETATM    5  C7  UNL     1      17.871   3.739  51.543  1.00  0.00     0.047 A 
HETATM    6  C8  UNL     1      16.679   3.625  50.872  1.00  0.00     0.069 A 
HETATM    7  C13 UNL     1      20.045   3.460  51.923  1.00  0.00     0.097 C 
HETATM    8  N3  UNL     1      21.416   3.289  52.098  1.00  0.00    -0.388 N 
HETATM    9  C14 UNL     1      22.609   2.510  52.217  1.00  0.00     0.133 C 
HETATM   10  C21 UNL     1      23.203   2.184  50.901  1.00  0.00     0.175 C 
HETATM   11  N4  UNL     1      22.407   1.384  50.033  1.00  0.00    -0.296 NA
HETATM   12  C22 UNL     1      21.199   1.659  49.768  1.00  0.00     0.269 C 
HETATM   13  N5  UNL     1      19.883   1.737  49.322  1.00  0.00    -0.258 NA
HETATM   14  H16 UNL     1      21.861   4.275  52.129  1.00  0.00     0.159 HD
ENDROOT
BRANCH   6  15
HETATM   15  N1  UNL     1      15.465   4.254  51.339  1.00  0.00    -0.323 N 
HETATM   16  C9  UNL     1      14.676   3.695  52.382  1.00  0.00     0.240 C 
HETATM   17  O2  UNL     1      14.885   2.619  53.040  1.00  0.00    -0.271 OA
HETATM   18  H8  UNL     1      15.108   5.132  50.951  1.00  0.00     0.169 HD
BRANCH  16  19
HETATM   19  C10 UNL     1      13.436   4.264  52.915  1.00  0.00     0.227 C 
BRANCH  19  20
HETATM   20  N2  UNL     1      13.093   3.770  54.246  1.00  0.00    -0.328 N 
HETATM   21  C11 UNL     1      11.990   2.866  54.200  1.00  0.00     0.360 C 
HETATM   22  O3  UNL     1      11.329   2.482  53.186  1.00  0.00    -0.239 OA
HETATM   23  H11 UNL     1      13.443   3.903  55.221  1.00  0.00     0.165 HD
BRANCH  21  24
HETATM   24  O4  UNL     1      11.449   2.246  55.296  1.00  0.00    -0.309 OA
HETATM   25  C12 UNL     1      11.672   0.897  55.663  1.00  0.00     0.215 C 
ENDBRANCH  21  24
ENDBRANCH  19  20
ENDBRANCH  16  19
ENDBRANCH   6  15
BRANCH   1  26
HETATM   26  O1  UNL     1      15.443   2.787  49.062  1.00  0.00    -0.349 OA
BRANCH  26  27
HETATM   27  C2  UNL     1      14.952   1.488  48.786  1.00  0.00     0.171 C 
HETATM   28  C1  UNL     1      14.251   0.867  49.961  1.00  0.00     0.034 C 
ENDBRANCH  26  27
ENDBRANCH   1  26
BRANCH   9  29
HETATM   29  C15 UNL     1      22.323   1.233  52.986  1.00  0.00    -0.034 A 
HETATM   30  C16 UNL     1      21.057   0.863  53.402  1.00  0.00     0.009 A 
HETATM   31  C17 UNL     1      20.923  -0.331  54.096  1.00  0.00     0.001 A 
HETATM   32  C18 UNL     1      22.013  -1.137  54.370  1.00  0.00     0.000 A 
HETATM   33  C19 UNL     1      23.259  -0.716  53.929  1.00  0.00     0.001 A 
HETATM   34  C20 UNL     1      23.454   0.461  53.235  1.00  0.00     0.009 A 
ENDBRANCH   9  29
TORSDOF 7
ENDMDL
