MODEL 1
REMARK VINA RESULT:      -9.2      0.000      0.000
REMARK  1 active torsions:
REMARK  status: ('A' for Active; 'I' for Inactive)
REMARK    1  A    between atoms: N1_4  and  C4_5 
ROOT
HETATM    1  C4  UNL     1      25.237   0.675  53.746  1.00  0.00     0.061 C 
HETATM    2  C5  UNL     1      25.400   1.869  53.114  1.00  0.00     0.101 C 
HETATM    3  C6  UNL     1      24.433   2.906  52.729  1.00  0.00     0.050 C 
HETATM    4  C7  UNL     1      23.873   2.871  51.393  1.00  0.00    -0.011 A 
HETATM    5  C8  UNL     1      24.649   3.384  50.376  1.00  0.00     0.123 A 
HETATM    6  F1  UNL     1      25.866   3.895  50.724  1.00  0.00    -0.206 F 
HETATM    7  C9  UNL     1      24.324   3.436  49.040  1.00  0.00     0.043 A 
HETATM    8  C10 UNL     1      23.091   2.916  48.711  1.00  0.00     0.004 A 
HETATM    9  C11 UNL     1      22.307   2.395  49.756  1.00  0.00     0.010 A 
HETATM   10  C12 UNL     1      22.618   2.328  51.151  1.00  0.00    -0.025 A 
HETATM   11  C13 UNL     1      21.439   1.688  51.755  1.00  0.00     0.207 C 
HETATM   12  O1  UNL     1      21.562   0.345  52.130  1.00  0.00    -0.381 OA
HETATM   13  C14 UNL     1      22.335   0.377  53.196  1.00  0.00     0.219 C 
HETATM   14  C15 UNL     1      23.093  -0.563  53.974  1.00  0.00     0.034 C 
HETATM   15 CL1  UNL     1      22.296  -1.934  54.658  1.00  0.00    -0.087 Cl
HETATM   16  C16 UNL     1      24.440  -0.524  54.269  1.00  0.00     0.023 C 
ENDROOT
BRANCH   1  17
HETATM   17  N1  UNL     1      26.667   0.353  53.727  1.00  0.00    -0.272 N 
HETATM   18  C3  UNL     1      27.235  -0.904  53.380  1.00  0.00     0.115 A 
HETATM   19  C2  UNL     1      28.541  -1.028  53.411  1.00  0.00    -0.062 A 
HETATM   20  C1  UNL     1      29.129  -2.344  53.047  1.00  0.00     0.045 C 
HETATM   21  C18 UNL     1      29.474   0.064  53.787  1.00  0.00     0.083 A 
HETATM   22  C17 UNL     1      28.783   1.311  54.124  1.00  0.00     0.116 A 
HETATM   23  N2  UNL     1      27.493   1.437  54.094  1.00  0.00    -0.189 NA
ENDBRANCH   1  17
TORSDOF 1
ENDMDL
MODEL 2
REMARK VINA RESULT:      -8.9      1.255      1.984
REMARK  1 active torsions:
REMARK  status: ('A' for Active; 'I' for Inactive)
REMARK    1  A    between atoms: N1_4  and  C4_5 
ROOT
HETATM    1  C4  UNL     1      24.155   0.770  53.248  1.00  0.00     0.061 C 
HETATM    2  C5  UNL     1      24.182   1.854  52.426  1.00  0.00     0.101 C 
HETATM    3  C6  UNL     1      23.103   2.690  51.882  1.00  0.00     0.050 C 
HETATM    4  C7  UNL     1      22.567   2.369  50.575  1.00  0.00    -0.011 A 
HETATM    5  C8  UNL     1      23.289   2.796  49.481  1.00  0.00     0.123 A 
HETATM    6  F1  UNL     1      24.432   3.498  49.729  1.00  0.00    -0.206 F 
HETATM    7  C9  UNL     1      22.976   2.587  48.157  1.00  0.00     0.043 A 
HETATM    8  C10 UNL     1      21.817   1.876  47.929  1.00  0.00     0.004 A 
HETATM    9  C11 UNL     1      21.089   1.445  49.052  1.00  0.00     0.010 A 
HETATM   10  C12 UNL     1      21.389   1.647  50.436  1.00  0.00    -0.025 A 
HETATM   11  C13 UNL     1      20.287   0.981  51.147  1.00  0.00     0.207 C 
HETATM   12  O1  UNL     1      20.565  -0.258  51.738  1.00  0.00    -0.381 OA
HETATM   13  C14 UNL     1      21.316   0.041  52.778  1.00  0.00     0.219 C 
HETATM   14  C15 UNL     1      22.171  -0.659  53.695  1.00  0.00     0.034 C 
HETATM   15 CL1  UNL     1      21.534  -1.983  54.603  1.00  0.00    -0.087 Cl
HETATM   16  C16 UNL     1      23.500  -0.413  53.968  1.00  0.00     0.023 C 
ENDROOT
BRANCH   1  17
HETATM   17  N1  UNL     1      25.613   0.621  53.270  1.00  0.00    -0.272 N 
HETATM   18  C3  UNL     1      26.555   1.665  53.485  1.00  0.00     0.115 A 
HETATM   19  C2  UNL     1      27.832   1.363  53.477  1.00  0.00    -0.062 A 
HETATM   20  C1  UNL     1      28.812   2.458  53.703  1.00  0.00     0.045 C 
HETATM   21  C18 UNL     1      28.365  -0.005  53.256  1.00  0.00     0.083 A 
HETATM   22  C17 UNL     1      27.310  -0.999  53.046  1.00  0.00     0.116 A 
HETATM   23  N2  UNL     1      26.047  -0.704  53.054  1.00  0.00    -0.189 NA
ENDBRANCH   1  17
TORSDOF 1
ENDMDL
MODEL 3
REMARK VINA RESULT:      -8.3      3.763      6.829
REMARK  1 active torsions:
REMARK  status: ('A' for Active; 'I' for Inactive)
REMARK    1  A    between atoms: N1_4  and  C4_5 
ROOT
HETATM    1  C4  UNL     1      21.873   2.287  51.263  1.00  0.00     0.061 C 
HETATM    2  C5  UNL     1      22.385   1.698  52.378  1.00  0.00     0.101 C 
HETATM    3  C6  UNL     1      23.637   1.928  53.112  1.00  0.00     0.050 C 
HETATM    4  C7  UNL     1      24.790   1.111  52.790  1.00  0.00    -0.011 A 
HETATM    5  C8  UNL     1      24.835  -0.152  53.341  1.00  0.00     0.123 A 
HETATM    6  F1  UNL     1      23.800  -0.509  54.156  1.00  0.00    -0.206 F 
HETATM    7  C9  UNL     1      25.821  -1.094  53.157  1.00  0.00     0.043 A 
HETATM    8  C10 UNL     1      26.858  -0.712  52.332  1.00  0.00     0.004 A 
HETATM    9  C11 UNL     1      26.801   0.577  51.774  1.00  0.00     0.010 A 
HETATM   10  C12 UNL     1      25.791   1.577  51.948  1.00  0.00    -0.025 A 
HETATM   11  C13 UNL     1      26.257   2.709  51.132  1.00  0.00     0.207 C 
HETATM   12  O1  UNL     1      25.613   2.922  49.908  1.00  0.00    -0.381 OA
HETATM   13  C14 UNL     1      24.431   3.397  50.244  1.00  0.00     0.219 C 
HETATM   14  C15 UNL     1      23.163   3.614  49.603  1.00  0.00     0.034 C 
HETATM   15 CL1  UNL     1      23.091   4.587  48.178  1.00  0.00    -0.087 Cl
HETATM   16  C16 UNL     1      21.929   3.129  49.985  1.00  0.00     0.023 C 
ENDROOT
BRANCH   1  17
HETATM   17  N1  UNL     1      20.647   1.484  51.277  1.00  0.00    -0.272 N 
HETATM   18  C3  UNL     1      20.249   0.585  52.305  1.00  0.00     0.115 A 
HETATM   19  C2  UNL     1      19.115  -0.059  52.165  1.00  0.00    -0.062 A 
HETATM   20  C1  UNL     1      18.705  -0.998  53.243  1.00  0.00     0.045 C 
HETATM   21  C18 UNL     1      18.209   0.088  50.997  1.00  0.00     0.083 A 
HETATM   22  C17 UNL     1      18.715   1.037  50.003  1.00  0.00     0.116 A 
HETATM   23  N2  UNL     1      19.835   1.675  50.138  1.00  0.00    -0.189 NA
ENDBRANCH   1  17
TORSDOF 1
ENDMDL
MODEL 4
REMARK VINA RESULT:      -8.0      4.523      6.770
REMARK  1 active torsions:
REMARK  status: ('A' for Active; 'I' for Inactive)
REMARK    1  A    between atoms: N1_4  and  C4_5 
ROOT
HETATM    1  C4  UNL     1      24.826   5.707  49.068  1.00  0.00     0.061 C 
HETATM    2  C5  UNL     1      25.322   4.443  49.165  1.00  0.00     0.101 C 
HETATM    3  C6  UNL     1      24.715   3.195  49.648  1.00  0.00     0.050 C 
HETATM    4  C7  UNL     1      24.913   2.817  51.032  1.00  0.00    -0.011 A 
HETATM    5  C8  UNL     1      26.114   2.219  51.351  1.00  0.00     0.123 A 
HETATM    6  F1  UNL     1      26.997   2.020  50.330  1.00  0.00    -0.206 F 
HETATM    7  C9  UNL     1      26.517   1.798  52.597  1.00  0.00     0.043 A 
HETATM    8  C10 UNL     1      25.610   2.007  53.614  1.00  0.00     0.004 A 
HETATM    9  C11 UNL     1      24.389   2.618  53.278  1.00  0.00     0.010 A 
HETATM   10  C12 UNL     1      23.943   3.065  51.994  1.00  0.00    -0.025 A 
HETATM   11  C13 UNL     1      22.603   3.618  52.247  1.00  0.00     0.207 C 
HETATM   12  O1  UNL     1      22.481   5.012  52.268  1.00  0.00    -0.381 OA
HETATM   13  C14 UNL     1      22.603   5.366  51.005  1.00  0.00     0.219 C 
HETATM   14  C15 UNL     1      22.832   6.578  50.269  1.00  0.00     0.034 C 
HETATM   15 CL1  UNL     1      21.760   7.914  50.486  1.00  0.00    -0.087 Cl
HETATM   16  C16 UNL     1      23.841   6.841  49.366  1.00  0.00     0.023 C 
ENDROOT
BRANCH   1  17
HETATM   17  N1  UNL     1      26.056   6.255  48.489  1.00  0.00    -0.272 N 
HETATM   18  C3  UNL     1      27.348   5.664  48.562  1.00  0.00     0.115 A 
HETATM   19  C2  UNL     1      28.351   6.285  47.986  1.00  0.00    -0.062 A 
HETATM   20  C1  UNL     1      29.699   5.663  48.065  1.00  0.00     0.045 C 
HETATM   21  C18 UNL     1      28.228   7.574  47.259  1.00  0.00     0.083 A 
HETATM   22  C17 UNL     1      26.857   8.090  47.246  1.00  0.00     0.116 A 
HETATM   23  N2  UNL     1      25.864   7.479  47.814  1.00  0.00    -0.189 NA
ENDBRANCH   1  17
TORSDOF 1
ENDMDL
MODEL 5
REMARK VINA RESULT:      -7.9      2.904      5.139
REMARK  1 active torsions:
REMARK  status: ('A' for Active; 'I' for Inactive)
REMARK    1  A    between atoms: N1_4  and  C4_5 
ROOT
HETATM    1  C4  UNL     1      25.429   2.879  51.790  1.00  0.00     0.061 C 
HETATM    2  C5  UNL     1      24.163   3.344  51.971  1.00  0.00     0.101 C 
HETATM    3  C6  UNL     1      23.106   2.946  52.911  1.00  0.00     0.050 C 
HETATM    4  C7  UNL     1      22.125   1.971  52.480  1.00  0.00    -0.011 A 
HETATM    5  C8  UNL     1      21.089   2.432  51.694  1.00  0.00     0.123 A 
HETATM    6  F1  UNL     1      21.074   3.767  51.410  1.00  0.00    -0.206 F 
HETATM    7  C9  UNL     1      20.064   1.683  51.163  1.00  0.00     0.043 A 
HETATM    8  C10 UNL     1      20.099   0.337  51.462  1.00  0.00     0.004 A 
HETATM    9  C11 UNL     1      21.159  -0.122  52.264  1.00  0.00     0.010 A 
HETATM   10  C12 UNL     1      22.236   0.633  52.829  1.00  0.00    -0.025 A 
HETATM   11  C13 UNL     1      23.031  -0.365  53.562  1.00  0.00     0.207 C 
HETATM   12  O1  UNL     1      24.233  -0.779  52.976  1.00  0.00    -0.381 OA
HETATM   13  C14 UNL     1      25.036   0.255  53.120  1.00  0.00     0.219 C 
HETATM   14  C15 UNL     1      26.297   0.691  52.586  1.00  0.00     0.034 C 
HETATM   15 CL1  UNL     1      27.678  -0.336  52.734  1.00  0.00    -0.087 Cl
HETATM   16  C16 UNL     1      26.576   1.875  51.937  1.00  0.00     0.023 C 
ENDROOT
BRANCH   1  17
HETATM   17  N1  UNL     1      25.734   3.830  50.716  1.00  0.00    -0.272 N 
HETATM   18  C3  UNL     1      24.959   4.969  50.364  1.00  0.00     0.115 A 
HETATM   19  C2  UNL     1      25.373   5.724  49.374  1.00  0.00    -0.062 A 
HETATM   20  C1  UNL     1      24.558   6.913  49.011  1.00  0.00     0.045 C 
HETATM   21  C18 UNL     1      26.608   5.468  48.590  1.00  0.00     0.083 A 
HETATM   22  C17 UNL     1      27.327   4.273  49.037  1.00  0.00     0.116 A 
HETATM   23  N2  UNL     1      26.920   3.525  50.014  1.00  0.00    -0.189 NA
ENDBRANCH   1  17
TORSDOF 1
ENDMDL
MODEL 6
REMARK VINA RESULT:      -7.9      2.629      3.795
REMARK  1 active torsions:
REMARK  status: ('A' for Active; 'I' for Inactive)
REMARK    1  A    between atoms: N1_4  and  C4_5 
ROOT
HETATM    1  C4  UNL     1      21.292   0.488  53.220  1.00  0.00     0.061 C 
HETATM    2  C5  UNL     1      21.955   1.538  52.663  1.00  0.00     0.101 C 
HETATM    3  C6  UNL     1      21.483   2.664  51.846  1.00  0.00     0.050 C 
HETATM    4  C7  UNL     1      21.535   2.543  50.403  1.00  0.00    -0.011 A 
HETATM    5  C8  UNL     1      22.754   2.769  49.800  1.00  0.00     0.123 A 
HETATM    6  F1  UNL     1      23.796   3.105  50.616  1.00  0.00    -0.206 F 
HETATM    7  C9  UNL     1      23.033   2.693  48.454  1.00  0.00     0.043 A 
HETATM    8  C10 UNL     1      21.967   2.353  47.648  1.00  0.00     0.004 A 
HETATM    9  C11 UNL     1      20.729   2.125  48.274  1.00  0.00     0.010 A 
HETATM   10  C12 UNL     1      20.410   2.197  49.667  1.00  0.00    -0.025 A 
HETATM   11  C13 UNL     1      18.979   1.861  49.730  1.00  0.00     0.207 C 
HETATM   12  O1  UNL     1      18.643   0.581  50.187  1.00  0.00    -0.381 OA
HETATM   13  C14 UNL     1      18.891   0.625  51.480  1.00  0.00     0.219 C 
HETATM   14  C15 UNL     1      19.035  -0.316  52.556  1.00  0.00     0.034 C 
HETATM   15 CL1  UNL     1      17.751  -1.421  52.893  1.00  0.00    -0.087 Cl
HETATM   16  C16 UNL     1      20.112  -0.471  53.404  1.00  0.00     0.023 C 
ENDROOT
BRANCH   1  17
HETATM   17  N1  UNL     1      22.494  -0.076  53.840  1.00  0.00    -0.272 N 
HETATM   18  C3  UNL     1      23.832   0.122  53.399  1.00  0.00     0.115 A 
HETATM   19  C2  UNL     1      24.801  -0.455  54.069  1.00  0.00    -0.062 A 
HETATM   20  C1  UNL     1      26.198  -0.244  53.604  1.00  0.00     0.045 C 
HETATM   21  C18 UNL     1      24.595  -1.310  55.266  1.00  0.00     0.083 A 
HETATM   22  C17 UNL     1      23.183  -1.445  55.631  1.00  0.00     0.116 A 
HETATM   23  N2  UNL     1      22.222  -0.876  54.971  1.00  0.00    -0.189 NA
ENDBRANCH   1  17
TORSDOF 1
ENDMDL
MODEL 7
REMARK VINA RESULT:      -7.7      8.201      9.781
REMARK  1 active torsions:
REMARK  status: ('A' for Active; 'I' for Inactive)
REMARK    1  A    between atoms: N1_4  and  C4_5 
ROOT
HETATM    1  C4  UNL     1      30.460   8.447  47.978  1.00  0.00     0.061 C 
HETATM    2  C5  UNL     1      29.564   7.478  47.647  1.00  0.00     0.101 C 
HETATM    3  C6  UNL     1      28.137   7.550  47.303  1.00  0.00     0.050 C 
HETATM    4  C7  UNL     1      27.160   7.360  48.356  1.00  0.00    -0.011 A 
HETATM    5  C8  UNL     1      26.885   6.060  48.726  1.00  0.00     0.123 A 
HETATM    6  F1  UNL     1      27.544   5.072  48.055  1.00  0.00    -0.206 F 
HETATM    7  C9  UNL     1      26.010   5.653  49.708  1.00  0.00     0.043 A 
HETATM    8  C10 UNL     1      25.354   6.667  50.373  1.00  0.00     0.004 A 
HETATM    9  C11 UNL     1      25.641   7.988  49.987  1.00  0.00     0.010 A 
HETATM   10  C12 UNL     1      26.544   8.440  48.972  1.00  0.00    -0.025 A 
HETATM   11  C13 UNL     1      26.435   9.907  49.017  1.00  0.00     0.207 C 
HETATM   12  O1  UNL     1      27.485  10.608  49.622  1.00  0.00    -0.381 OA
HETATM   13  C14 UNL     1      28.476  10.512  48.761  1.00  0.00     0.219 C 
HETATM   14  C15 UNL     1      29.895  10.739  48.758  1.00  0.00     0.034 C 
HETATM   15 CL1  UNL     1      30.504  12.291  49.207  1.00  0.00    -0.087 Cl
HETATM   16  C16 UNL     1      30.893   9.845  48.433  1.00  0.00     0.023 C 
ENDROOT
BRANCH   1  17
HETATM   17  N1  UNL     1      31.577   7.509  48.121  1.00  0.00    -0.272 N 
HETATM   18  C3  UNL     1      31.521   6.105  47.903  1.00  0.00     0.115 A 
HETATM   19  C2  UNL     1      32.617   5.403  48.072  1.00  0.00    -0.062 A 
HETATM   20  C1  UNL     1      32.552   3.935  47.843  1.00  0.00     0.045 C 
HETATM   21  C18 UNL     1      33.923   5.980  48.480  1.00  0.00     0.083 A 
HETATM   22  C17 UNL     1      33.866   7.430  48.677  1.00  0.00     0.116 A 
HETATM   23  N2  UNL     1      32.785   8.127  48.510  1.00  0.00    -0.189 NA
ENDBRANCH   1  17
TORSDOF 1
ENDMDL
MODEL 8
REMARK VINA RESULT:      -7.5      4.346      6.117
REMARK  1 active torsions:
REMARK  status: ('A' for Active; 'I' for Inactive)
REMARK    1  A    between atoms: N1_4  and  C4_5 
ROOT
HETATM    1  C4  UNL     1      21.795   3.268  50.058  1.00  0.00     0.061 C 
HETATM    2  C5  UNL     1      22.474   2.149  50.428  1.00  0.00     0.101 C 
HETATM    3  C6  UNL     1      22.030   0.762  50.625  1.00  0.00     0.050 C 
HETATM    4  C7  UNL     1      21.652   0.338  51.958  1.00  0.00    -0.011 A 
HETATM    5  C8  UNL     1      22.674   0.009  52.823  1.00  0.00     0.123 A 
HETATM    6  F1  UNL     1      23.947   0.096  52.339  1.00  0.00    -0.206 F 
HETATM    7  C9  UNL     1      22.544  -0.399  54.131  1.00  0.00     0.043 A 
HETATM    8  C10 UNL     1      21.250  -0.481  54.599  1.00  0.00     0.004 A 
HETATM    9  C11 UNL     1      20.215  -0.144  53.708  1.00  0.00     0.010 A 
HETATM   10  C12 UNL     1      20.320   0.283  52.346  1.00  0.00    -0.025 A 
HETATM   11  C13 UNL     1      18.926   0.492  51.924  1.00  0.00     0.207 C 
HETATM   12  O1  UNL     1      18.480   1.815  51.826  1.00  0.00    -0.381 OA
HETATM   13  C14 UNL     1      19.082   2.281  50.751  1.00  0.00     0.219 C 
HETATM   14  C15 UNL     1      19.329   3.565  50.156  1.00  0.00     0.034 C 
HETATM   15 CL1  UNL     1      17.994   4.599  49.792  1.00  0.00    -0.087 Cl
HETATM   16  C16 UNL     1      20.545   4.120  49.816  1.00  0.00     0.023 C 
ENDROOT
BRANCH   1  17
HETATM   17  N1  UNL     1      22.982   4.126  50.095  1.00  0.00    -0.272 N 
HETATM   18  C3  UNL     1      24.283   3.773  49.640  1.00  0.00     0.115 A 
HETATM   19  C2  UNL     1      25.242   4.662  49.743  1.00  0.00    -0.062 A 
HETATM   20  C1  UNL     1      26.599   4.287  49.265  1.00  0.00     0.045 C 
HETATM   21  C18 UNL     1      25.062   6.023  50.309  1.00  0.00     0.083 A 
HETATM   22  C17 UNL     1      23.688   6.279  50.745  1.00  0.00     0.116 A 
HETATM   23  N2  UNL     1      22.737   5.403  50.645  1.00  0.00    -0.189 NA
ENDBRANCH   1  17
TORSDOF 1
ENDMDL
MODEL 9
REMARK VINA RESULT:      -7.5      9.917     11.286
REMARK  1 active torsions:
REMARK  status: ('A' for Active; 'I' for Inactive)
REMARK    1  A    between atoms: N1_4  and  C4_5 
ROOT
HETATM    1  C4  UNL     1      32.185   6.007  47.752  1.00  0.00     0.061 C 
HETATM    2  C5  UNL     1      33.024   7.074  47.855  1.00  0.00     0.101 C 
HETATM    3  C6  UNL     1      32.885   8.357  48.558  1.00  0.00     0.050 C 
HETATM    4  C7  UNL     1      32.372   9.497  47.828  1.00  0.00    -0.011 A 
HETATM    5  C8  UNL     1      33.261  10.172  47.018  1.00  0.00     0.123 A 
HETATM    6  F1  UNL     1      34.546   9.716  46.994  1.00  0.00    -0.206 F 
HETATM    7  C9  UNL     1      32.986  11.265  46.227  1.00  0.00     0.043 A 
HETATM    8  C10 UNL     1      31.681  11.710  46.266  1.00  0.00     0.004 A 
HETATM    9  C11 UNL     1      30.784  11.014  47.095  1.00  0.00     0.010 A 
HETATM   10  C12 UNL     1      31.041   9.878  47.927  1.00  0.00    -0.025 A 
HETATM   11  C13 UNL     1      29.741   9.586  48.553  1.00  0.00     0.207 C 
HETATM   12  O1  UNL     1      29.027   8.488  48.057  1.00  0.00    -0.381 OA
HETATM   13  C14 UNL     1      29.695   7.442  48.497  1.00  0.00     0.219 C 
HETATM   14  C15 UNL     1      29.745   6.033  48.222  1.00  0.00     0.034 C 
HETATM   15 CL1  UNL     1      28.299   5.096  48.348  1.00  0.00    -0.087 Cl
HETATM   16  C16 UNL     1      30.840   5.282  47.852  1.00  0.00     0.023 C 
ENDROOT
BRANCH   1  17
HETATM   17  N1  UNL     1      33.113   5.227  46.928  1.00  0.00    -0.272 N 
HETATM   18  C3  UNL     1      33.250   5.315  45.515  1.00  0.00     0.115 A 
HETATM   19  C2  UNL     1      34.133   4.544  44.925  1.00  0.00    -0.062 A 
HETATM   20  C1  UNL     1      34.273   4.641  43.448  1.00  0.00     0.045 C 
HETATM   21  C18 UNL     1      35.006   3.577  45.639  1.00  0.00     0.083 A 
HETATM   22  C17 UNL     1      34.781   3.570  47.086  1.00  0.00     0.116 A 
HETATM   23  N2  UNL     1      33.909   4.330  47.672  1.00  0.00    -0.189 NA
ENDBRANCH   1  17
TORSDOF 1
ENDMDL
