MODEL 1
REMARK VINA RESULT:      -8.8      0.000      0.000
REMARK  6 active torsions:
REMARK  status: ('A' for Active; 'I' for Inactive)
REMARK    1  A    between atoms: N1_2  and  C2_3 
REMARK    2  A    between atoms: C5_6  and  C6_7 
REMARK    3  A    between atoms: C7_9  and  C8_10 
REMARK    4  A    between atoms: C8_10  and  C9_11 
REMARK    5  A    between atoms: C9_11  and  N3_12 
REMARK    6  A    between atoms: C13_17  and  O2_18 
ROOT
HETATM    1  C2  UNL     1      21.872   4.504  49.580  1.00  0.00     0.344 C 
HETATM    2  C3  UNL     1      22.561   3.363  48.865  1.00  0.00     0.087 C 
HETATM    3  C4  UNL     1      24.014   3.531  49.200  1.00  0.00    -0.009 C 
HETATM    4  C5  UNL     1      25.124   3.272  49.856  1.00  0.00    -0.017 C 
HETATM    5  C7  UNL     1      25.323   2.425  51.067  1.00  0.00    -0.045 C 
HETATM    6  C14 UNL     1      24.364   1.836  51.719  1.00  0.00     0.009 C 
HETATM    7  C15 UNL     1      23.187   1.260  52.323  1.00  0.00     0.009 C 
HETATM    8  C16 UNL     1      21.843   1.154  52.349  1.00  0.00    -0.043 C 
HETATM    9  C17 UNL     1      21.575   0.171  53.450  1.00  0.00     0.008 C 
HETATM   10  C18 UNL     1      20.387  -0.491  53.422  1.00  0.00     0.000 C 
HETATM   11  C19 UNL     1      19.388  -0.201  52.412  1.00  0.00    -0.003 C 
HETATM   12  C20 UNL     1      19.575   0.781  51.557  1.00  0.00    -0.010 C 
HETATM   13  C21 UNL     1      20.782   1.731  51.576  1.00  0.00     0.037 A 
HETATM   14  C22 UNL     1      20.168   2.925  52.458  1.00  0.00     0.057 A 
HETATM   15  C23 UNL     1      20.726   3.026  51.029  1.00  0.00     0.241 A 
HETATM   16  N4  UNL     1      21.799   3.965  51.001  1.00  0.00     0.114 N 
HETATM   17  H30 UNL     1      21.557   4.806  51.564  1.00  0.00     0.319 HD
ENDROOT
BRANCH   5  18
HETATM   18  C8  UNL     1      26.787   2.362  51.352  1.00  0.00     0.069 C 
BRANCH  18  19
HETATM   19  C9  UNL     1      27.169   2.037  52.750  1.00  0.00     0.280 C 
BRANCH  19  20
HETATM   20  N3  UNL     1      27.727   0.690  52.735  1.00  0.00     0.121 N 
HETATM   21  C10 UNL     1      28.889   0.591  53.596  1.00  0.00     0.301 C 
HETATM   22  C11 UNL     1      28.538   0.147  54.997  1.00  0.00     0.198 C 
HETATM   23  O1  UNL     1      27.246   0.443  55.374  1.00  0.00    -0.385 OA
HETATM   24  C12 UNL     1      26.275  -0.088  54.558  1.00  0.00     0.231 C 
HETATM   25  C13 UNL     1      26.809  -0.328  53.139  1.00  0.00     0.380 C 
BRANCH  25  26
HETATM   26  O2  UNL     1      27.575  -1.513  53.261  1.00  0.00    -0.366 OA
HETATM   27  H20 UNL     1      27.599  -2.027  52.418  1.00  0.00     0.212 HD
ENDBRANCH  25  26
ENDBRANCH  19  20
ENDBRANCH  18  19
ENDBRANCH   5  18
BRANCH   4  28
HETATM   28  C6  UNL     1      26.256   4.107  49.360  1.00  0.00     0.118 C 
HETATM   29  N2  UNL     1      26.399   5.347  49.566  1.00  0.00    -0.311 NA
HETATM   30  H8  UNL     1      27.198   5.886  49.203  1.00  0.00     0.186 HD
ENDBRANCH   4  28
BRANCH   1  31
HETATM   31  N1  UNL     1      20.501   4.640  49.145  1.00  0.00    -0.277 NA
HETATM   32  C1  UNL     1      20.317   5.049  47.938  1.00  0.00     0.145 C 
ENDBRANCH   1  31
TORSDOF 6
ENDMDL
MODEL 2
REMARK VINA RESULT:      -8.8      2.065      4.681
REMARK  6 active torsions:
REMARK  status: ('A' for Active; 'I' for Inactive)
REMARK    1  A    between atoms: N1_2  and  C2_3 
REMARK    2  A    between atoms: C5_6  and  C6_7 
REMARK    3  A    between atoms: C7_9  and  C8_10 
REMARK    4  A    between atoms: C8_10  and  C9_11 
REMARK    5  A    between atoms: C9_11  and  N3_12 
REMARK    6  A    between atoms: C13_17  and  O2_18 
ROOT
HETATM    1  C2  UNL     1      19.781   0.358  51.202  1.00  0.00     0.344 C 
HETATM    2  C3  UNL     1      20.149   1.167  52.426  1.00  0.00     0.087 C 
HETATM    3  C4  UNL     1      21.123   0.303  53.171  1.00  0.00    -0.009 C 
HETATM    4  C5  UNL     1      22.318  -0.090  53.555  1.00  0.00    -0.017 C 
HETATM    5  C7  UNL     1      23.654   0.349  53.059  1.00  0.00    -0.045 C 
HETATM    6  C14 UNL     1      23.838   1.184  52.079  1.00  0.00     0.009 C 
HETATM    7  C15 UNL     1      23.860   2.117  50.978  1.00  0.00     0.009 C 
HETATM    8  C16 UNL     1      23.176   2.815  50.049  1.00  0.00    -0.043 C 
HETATM    9  C17 UNL     1      24.233   3.603  49.332  1.00  0.00     0.008 C 
HETATM   10  C18 UNL     1      23.837   4.726  48.674  1.00  0.00     0.000 C 
HETATM   11  C19 UNL     1      22.439   5.102  48.602  1.00  0.00    -0.003 C 
HETATM   12  C20 UNL     1      21.512   4.309  49.095  1.00  0.00    -0.010 C 
HETATM   13  C21 UNL     1      21.788   2.928  49.707  1.00  0.00     0.037 A 
HETATM   14  C22 UNL     1      21.558   2.009  48.409  1.00  0.00     0.057 A 
HETATM   15  C23 UNL     1      20.810   1.917  49.750  1.00  0.00     0.241 A 
HETATM   16  N4  UNL     1      20.982   0.614  50.305  1.00  0.00     0.114 N 
HETATM   17  H30 UNL     1      20.885  -0.110  49.562  1.00  0.00     0.319 HD
ENDROOT
BRANCH   5  18
HETATM   18  C8  UNL     1      24.698  -0.310  53.897  1.00  0.00     0.069 C 
BRANCH  18  19
HETATM   19  C9  UNL     1      25.871   0.526  54.260  1.00  0.00     0.280 C 
BRANCH  19  20
HETATM   20  N3  UNL     1      26.925   0.217  53.302  1.00  0.00     0.121 N 
HETATM   21  C10 UNL     1      27.467   1.424  52.708  1.00  0.00     0.301 C 
HETATM   22  C11 UNL     1      28.668   1.952  53.457  1.00  0.00     0.198 C 
HETATM   23  O1  UNL     1      28.704   1.590  54.787  1.00  0.00    -0.385 OA
HETATM   24  C12 UNL     1      28.688   0.233  55.012  1.00  0.00     0.231 C 
HETATM   25  C13 UNL     1      28.021  -0.517  53.851  1.00  0.00     0.380 C 
BRANCH  25  26
HETATM   26  O2  UNL     1      29.016  -0.538  52.843  1.00  0.00    -0.366 OA
HETATM   27  H20 UNL     1      28.781  -1.147  52.103  1.00  0.00     0.212 HD
ENDBRANCH  25  26
ENDBRANCH  19  20
ENDBRANCH  18  19
ENDBRANCH   5  18
BRANCH   4  28
HETATM   28  C6  UNL     1      22.236  -1.246  54.493  1.00  0.00     0.118 C 
HETATM   29  N2  UNL     1      21.167  -1.740  54.957  1.00  0.00    -0.311 NA
HETATM   30  H8  UNL     1      21.157  -2.540  55.605  1.00  0.00     0.186 HD
ENDBRANCH   4  28
BRANCH   1  31
HETATM   31  N1  UNL     1      18.651   0.938  50.515  1.00  0.00    -0.277 NA
HETATM   32  C1  UNL     1      17.538   0.294  50.590  1.00  0.00     0.145 C 
ENDBRANCH   1  31
TORSDOF 6
ENDMDL
MODEL 3
REMARK VINA RESULT:      -8.5      1.854      4.731
REMARK  6 active torsions:
REMARK  status: ('A' for Active; 'I' for Inactive)
REMARK    1  A    between atoms: N1_2  and  C2_3 
REMARK    2  A    between atoms: C5_6  and  C6_7 
REMARK    3  A    between atoms: C7_9  and  C8_10 
REMARK    4  A    between atoms: C8_10  and  C9_11 
REMARK    5  A    between atoms: C9_11  and  N3_12 
REMARK    6  A    between atoms: C13_17  and  O2_18 
ROOT
HETATM    1  C2  UNL     1      21.001   2.424  51.007  1.00  0.00     0.344 C 
HETATM    2  C3  UNL     1      21.664   2.755  52.325  1.00  0.00     0.087 C 
HETATM    3  C4  UNL     1      22.267   1.458  52.780  1.00  0.00    -0.009 C 
HETATM    4  C5  UNL     1      23.240   0.592  52.957  1.00  0.00    -0.017 C 
HETATM    5  C7  UNL     1      24.633   0.627  52.426  1.00  0.00    -0.045 C 
HETATM    6  C14 UNL     1      25.093   1.538  51.620  1.00  0.00     0.009 C 
HETATM    7  C15 UNL     1      25.434   2.622  50.731  1.00  0.00     0.009 C 
HETATM    8  C16 UNL     1      25.038   3.706  50.034  1.00  0.00    -0.043 C 
HETATM    9  C17 UNL     1      26.296   4.206  49.388  1.00  0.00     0.008 C 
HETATM   10  C18 UNL     1      26.328   5.512  49.011  1.00  0.00     0.000 C 
HETATM   11  C19 UNL     1      25.166   6.367  49.156  1.00  0.00    -0.003 C 
HETATM   12  C20 UNL     1      24.022   5.866  49.570  1.00  0.00    -0.010 C 
HETATM   13  C21 UNL     1      23.782   4.377  49.863  1.00  0.00     0.037 A 
HETATM   14  C22 UNL     1      23.204   3.914  48.437  1.00  0.00     0.057 A 
HETATM   15  C23 UNL     1      22.502   3.797  49.801  1.00  0.00     0.241 A 
HETATM   16  N4  UNL     1      22.193   2.430  50.063  1.00  0.00     0.114 N 
HETATM   17  H30 UNL     1      21.821   1.973  49.204  1.00  0.00     0.319 HD
ENDROOT
BRANCH   5  18
HETATM   18  C8  UNL     1      25.378  -0.530  53.007  1.00  0.00     0.069 C 
BRANCH  18  19
HETATM   19  C9  UNL     1      26.807  -0.650  52.620  1.00  0.00     0.280 C 
BRANCH  19  20
HETATM   20  N3  UNL     1      27.583  -0.640  53.854  1.00  0.00     0.121 N 
HETATM   21  C10 UNL     1      28.976  -0.956  53.603  1.00  0.00     0.301 C 
HETATM   22  C11 UNL     1      29.819   0.276  53.373  1.00  0.00     0.198 C 
HETATM   23  O1  UNL     1      29.113   1.359  52.896  1.00  0.00    -0.385 OA
HETATM   24  C12 UNL     1      28.071   1.763  53.699  1.00  0.00     0.231 C 
HETATM   25  C13 UNL     1      27.548   0.603  54.557  1.00  0.00     0.380 C 
BRANCH  25  26
HETATM   26  O2  UNL     1      28.508   0.488  55.593  1.00  0.00    -0.366 OA
HETATM   27  H20 UNL     1      28.201   0.910  56.431  1.00  0.00     0.212 HD
ENDBRANCH  25  26
ENDBRANCH  19  20
ENDBRANCH  18  19
ENDBRANCH   5  18
BRANCH   4  28
HETATM   28  C6  UNL     1      22.756  -0.637  53.647  1.00  0.00     0.118 C 
HETATM   29  N2  UNL     1      21.543  -0.953  53.820  1.00  0.00    -0.311 NA
HETATM   30  H8  UNL     1      21.254  -1.814  54.305  1.00  0.00     0.186 HD
ENDBRANCH   4  28
BRANCH   1  31
HETATM   31  N1  UNL     1      20.150   3.504  50.566  1.00  0.00    -0.277 NA
HETATM   32  C1  UNL     1      19.051   3.675  51.215  1.00  0.00     0.145 C 
ENDBRANCH   1  31
TORSDOF 6
ENDMDL
MODEL 4
REMARK VINA RESULT:      -8.2      3.431      6.725
REMARK  6 active torsions:
REMARK  status: ('A' for Active; 'I' for Inactive)
REMARK    1  A    between atoms: N1_2  and  C2_3 
REMARK    2  A    between atoms: C5_6  and  C6_7 
REMARK    3  A    between atoms: C7_9  and  C8_10 
REMARK    4  A    between atoms: C8_10  and  C9_11 
REMARK    5  A    between atoms: C9_11  and  N3_12 
REMARK    6  A    between atoms: C13_17  and  O2_18 
ROOT
HETATM    1  C2  UNL     1      21.748  -0.108  53.336  1.00  0.00     0.344 C 
HETATM    2  C3  UNL     1      21.962   0.233  51.879  1.00  0.00     0.087 C 
HETATM    3  C4  UNL     1      21.625   1.692  51.779  1.00  0.00    -0.009 C 
HETATM    4  C5  UNL     1      21.895   2.977  51.713  1.00  0.00    -0.017 C 
HETATM    5  C7  UNL     1      23.201   3.671  51.904  1.00  0.00    -0.045 C 
HETATM    6  C14 UNL     1      24.308   3.078  52.241  1.00  0.00     0.009 C 
HETATM    7  C15 UNL     1      25.440   2.266  52.618  1.00  0.00     0.009 C 
HETATM    8  C16 UNL     1      25.920   1.056  52.970  1.00  0.00    -0.043 C 
HETATM    9  C17 UNL     1      27.394   1.282  53.137  1.00  0.00     0.008 C 
HETATM   10  C18 UNL     1      28.208   0.197  53.032  1.00  0.00     0.000 C 
HETATM   11  C19 UNL     1      27.667  -1.135  52.845  1.00  0.00    -0.003 C 
HETATM   12  C20 UNL     1      26.366  -1.332  52.869  1.00  0.00    -0.010 C 
HETATM   13  C21 UNL     1      25.328  -0.237  53.155  1.00  0.00     0.037 A 
HETATM   14  C22 UNL     1      25.155  -0.441  54.739  1.00  0.00     0.057 A 
HETATM   15  C23 UNL     1      24.052  -0.529  53.670  1.00  0.00     0.241 A 
HETATM   16  N4  UNL     1      23.031   0.424  53.958  1.00  0.00     0.114 N 
HETATM   17  H30 UNL     1      22.819   0.429  54.977  1.00  0.00     0.319 HD
ENDROOT
BRANCH   5  18
HETATM   18  C8  UNL     1      23.000   5.122  51.613  1.00  0.00     0.069 C 
BRANCH  18  19
HETATM   19  C9  UNL     1      23.531   5.609  50.314  1.00  0.00     0.280 C 
BRANCH  19  20
HETATM   20  N3  UNL     1      24.900   6.048  50.553  1.00  0.00     0.121 N 
HETATM   21  C10 UNL     1      25.764   5.711  49.439  1.00  0.00     0.301 C 
HETATM   22  C11 UNL     1      25.864   6.825  48.423  1.00  0.00     0.198 C 
HETATM   23  O1  UNL     1      24.775   7.669  48.405  1.00  0.00    -0.385 OA
HETATM   24  C12 UNL     1      24.504   8.281  49.607  1.00  0.00     0.231 C 
HETATM   25  C13 UNL     1      25.033   7.452  50.786  1.00  0.00     0.380 C 
BRANCH  25  26
HETATM   26  O2  UNL     1      26.425   7.714  50.788  1.00  0.00    -0.366 OA
HETATM   27  H20 UNL     1      26.908   7.153  50.134  1.00  0.00     0.212 HD
ENDBRANCH  25  26
ENDBRANCH  19  20
ENDBRANCH  18  19
ENDBRANCH   5  18
BRANCH   4  28
HETATM   28  C6  UNL     1      20.651   3.790  51.596  1.00  0.00     0.118 C 
HETATM   29  N2  UNL     1      19.547   3.528  52.156  1.00  0.00    -0.311 NA
HETATM   30  H8  UNL     1      18.711   4.118  52.047  1.00  0.00     0.186 HD
ENDBRANCH   4  28
BRANCH   1  31
HETATM   31  N1  UNL     1      21.777  -1.536  53.547  1.00  0.00    -0.277 NA
HETATM   32  C1  UNL     1      20.927  -2.013  54.389  1.00  0.00     0.145 C 
ENDBRANCH   1  31
TORSDOF 6
ENDMDL
MODEL 5
REMARK VINA RESULT:      -8.2      3.101      6.654
REMARK  6 active torsions:
REMARK  status: ('A' for Active; 'I' for Inactive)
REMARK    1  A    between atoms: N1_2  and  C2_3 
REMARK    2  A    between atoms: C5_6  and  C6_7 
REMARK    3  A    between atoms: C7_9  and  C8_10 
REMARK    4  A    between atoms: C8_10  and  C9_11 
REMARK    5  A    between atoms: C9_11  and  N3_12 
REMARK    6  A    between atoms: C13_17  and  O2_18 
ROOT
HETATM    1  C2  UNL     1      27.691   0.871  52.378  1.00  0.00     0.344 C 
HETATM    2  C3  UNL     1      27.037   2.157  52.830  1.00  0.00     0.087 C 
HETATM    3  C4  UNL     1      26.597   2.823  51.559  1.00  0.00    -0.009 C 
HETATM    4  C5  UNL     1      25.732   3.169  50.631  1.00  0.00    -0.017 C 
HETATM    5  C7  UNL     1      24.327   2.705  50.439  1.00  0.00    -0.045 C 
HETATM    6  C14 UNL     1      23.744   1.799  51.167  1.00  0.00     0.009 C 
HETATM    7  C15 UNL     1      23.257   0.780  52.065  1.00  0.00     0.009 C 
HETATM    8  C16 UNL     1      23.508  -0.085  53.068  1.00  0.00    -0.043 C 
HETATM    9  C17 UNL     1      22.183  -0.736  53.331  1.00  0.00     0.008 C 
HETATM   10  C18 UNL     1      21.993  -1.296  54.556  1.00  0.00     0.000 C 
HETATM   11  C19 UNL     1      23.057  -1.331  55.540  1.00  0.00    -0.003 C 
HETATM   12  C20 UNL     1      24.262  -0.904  55.230  1.00  0.00    -0.010 C 
HETATM   13  C21 UNL     1      24.675  -0.411  53.835  1.00  0.00     0.037 A 
HETATM   14  C22 UNL     1      25.256  -1.780  53.229  1.00  0.00     0.057 A 
HETATM   15  C23 UNL     1      26.010  -0.449  53.390  1.00  0.00     0.241 A 
HETATM   16  N4  UNL     1      26.476  -0.007  52.118  1.00  0.00     0.114 N 
HETATM   17  H30 UNL     1      26.870  -0.807  51.580  1.00  0.00     0.319 HD
ENDROOT
BRANCH   5  18
HETATM   18  C8  UNL     1      23.734   3.482  49.310  1.00  0.00     0.069 C 
BRANCH  18  19
HETATM   19  C9  UNL     1      22.403   4.091  49.561  1.00  0.00     0.280 C 
BRANCH  19  20
HETATM   20  N3  UNL     1      22.621   5.253  50.413  1.00  0.00     0.121 N 
HETATM   21  C10 UNL     1      23.364   6.285  49.716  1.00  0.00     0.301 C 
HETATM   22  C11 UNL     1      22.463   7.287  49.031  1.00  0.00     0.198 C 
HETATM   23  O1  UNL     1      21.219   6.792  48.705  1.00  0.00    -0.385 OA
HETATM   24  C12 UNL     1      20.497   6.307  49.771  1.00  0.00     0.231 C 
HETATM   25  C13 UNL     1      21.422   5.851  50.908  1.00  0.00     0.380 C 
BRANCH  25  26
HETATM   26  O2  UNL     1      21.820   7.061  51.528  1.00  0.00    -0.366 OA
HETATM   27  H20 UNL     1      22.281   6.903  52.387  1.00  0.00     0.212 HD
ENDBRANCH  25  26
ENDBRANCH  19  20
ENDBRANCH  18  19
ENDBRANCH   5  18
BRANCH   4  28
HETATM   28  C6  UNL     1      26.370   4.006  49.576  1.00  0.00     0.118 C 
HETATM   29  N2  UNL     1      27.547   4.469  49.618  1.00  0.00    -0.311 NA
HETATM   30  H8  UNL     1      27.949   5.045  48.865  1.00  0.00     0.186 HD
ENDBRANCH   4  28
BRANCH   1  31
HETATM   31  N1  UNL     1      28.403   0.239  53.464  1.00  0.00    -0.277 NA
HETATM   32  C1  UNL     1      29.401   0.887  53.955  1.00  0.00     0.145 C 
ENDBRANCH   1  31
TORSDOF 6
ENDMDL
MODEL 6
REMARK VINA RESULT:      -8.1      2.156      5.344
REMARK  6 active torsions:
REMARK  status: ('A' for Active; 'I' for Inactive)
REMARK    1  A    between atoms: N1_2  and  C2_3 
REMARK    2  A    between atoms: C5_6  and  C6_7 
REMARK    3  A    between atoms: C7_9  and  C8_10 
REMARK    4  A    between atoms: C8_10  and  C9_11 
REMARK    5  A    between atoms: C9_11  and  N3_12 
REMARK    6  A    between atoms: C13_17  and  O2_18 
ROOT
HETATM    1  C2  UNL     1      21.581   6.196  50.057  1.00  0.00     0.344 C 
HETATM    2  C3  UNL     1      22.243   6.040  51.407  1.00  0.00     0.087 C 
HETATM    3  C4  UNL     1      22.059   4.591  51.752  1.00  0.00    -0.009 C 
HETATM    4  C5  UNL     1      22.431   3.334  51.862  1.00  0.00    -0.017 C 
HETATM    5  C7  UNL     1      23.669   2.675  51.355  1.00  0.00    -0.045 C 
HETATM    6  C14 UNL     1      24.579   3.268  50.640  1.00  0.00     0.009 C 
HETATM    7  C15 UNL     1      25.484   4.075  49.857  1.00  0.00     0.009 C 
HETATM    8  C16 UNL     1      25.747   5.252  49.256  1.00  0.00    -0.043 C 
HETATM    9  C17 UNL     1      27.118   5.068  48.674  1.00  0.00     0.008 C 
HETATM   10  C18 UNL     1      27.844   6.189  48.417  1.00  0.00     0.000 C 
HETATM   11  C19 UNL     1      27.286   7.511  48.623  1.00  0.00    -0.003 C 
HETATM   12  C20 UNL     1      26.026   7.651  48.975  1.00  0.00    -0.010 C 
HETATM   13  C21 UNL     1      25.034   6.489  49.130  1.00  0.00     0.037 A 
HETATM   14  C22 UNL     1      24.383   6.497  47.661  1.00  0.00     0.057 A 
HETATM   15  C23 UNL     1      23.644   6.667  48.999  1.00  0.00     0.241 A 
HETATM   16  N4  UNL     1      22.657   5.647  49.133  1.00  0.00     0.114 N 
HETATM   17  H30 UNL     1      22.153   5.512  48.231  1.00  0.00     0.319 HD
ENDROOT
BRANCH   5  18
HETATM   18  C8  UNL     1      23.672   1.263  51.838  1.00  0.00     0.069 C 
BRANCH  18  19
HETATM   19  C9  UNL     1      24.419   1.002  53.096  1.00  0.00     0.280 C 
BRANCH  19  20
HETATM   20  N3  UNL     1      25.407  -0.027  52.796  1.00  0.00     0.121 N 
HETATM   21  C10 UNL     1      26.590   0.542  52.181  1.00  0.00     0.301 C 
HETATM   22  C11 UNL     1      27.656   0.899  53.191  1.00  0.00     0.198 C 
HETATM   23  O1  UNL     1      27.169   1.157  54.454  1.00  0.00    -0.385 OA
HETATM   24  C12 UNL     1      26.452   0.124  55.014  1.00  0.00     0.231 C 
HETATM   25  C13 UNL     1      25.837  -0.776  53.935  1.00  0.00     0.380 C 
BRANCH  25  26
HETATM   26  O2  UNL     1      26.925  -1.566  53.489  1.00  0.00    -0.366 OA
HETATM   27  H20 UNL     1      27.781  -1.075  53.533  1.00  0.00     0.212 HD
ENDBRANCH  25  26
ENDBRANCH  19  20
ENDBRANCH  18  19
ENDBRANCH   5  18
BRANCH   4  28
HETATM   28  C6  UNL     1      21.341   2.492  52.432  1.00  0.00     0.118 C 
HETATM   29  N2  UNL     1      20.147   2.865  52.621  1.00  0.00    -0.311 NA
HETATM   30  H8  UNL     1      19.425   2.249  53.019  1.00  0.00     0.186 HD
ENDBRANCH   4  28
BRANCH   1  31
HETATM   31  N1  UNL     1      21.440   7.590  49.704  1.00  0.00    -0.277 NA
HETATM   32  C1  UNL     1      20.239   8.025  49.538  1.00  0.00     0.145 C 
ENDBRANCH   1  31
TORSDOF 6
ENDMDL
MODEL 7
REMARK VINA RESULT:      -7.9      3.695      7.515
REMARK  6 active torsions:
REMARK  status: ('A' for Active; 'I' for Inactive)
REMARK    1  A    between atoms: N1_2  and  C2_3 
REMARK    2  A    between atoms: C5_6  and  C6_7 
REMARK    3  A    between atoms: C7_9  and  C8_10 
REMARK    4  A    between atoms: C8_10  and  C9_11 
REMARK    5  A    between atoms: C9_11  and  N3_12 
REMARK    6  A    between atoms: C13_17  and  O2_18 
ROOT
HETATM    1  C2  UNL     1      25.565   8.505  48.518  1.00  0.00     0.344 C 
HETATM    2  C3  UNL     1      25.961   8.022  49.895  1.00  0.00     0.087 C 
HETATM    3  C4  UNL     1      25.245   6.713  50.056  1.00  0.00    -0.009 C 
HETATM    4  C5  UNL     1      25.140   5.402  50.055  1.00  0.00    -0.017 C 
HETATM    5  C7  UNL     1      26.124   4.384  49.587  1.00  0.00    -0.045 C 
HETATM    6  C14 UNL     1      27.264   4.663  49.026  1.00  0.00     0.009 C 
HETATM    7  C15 UNL     1      28.481   5.149  48.422  1.00  0.00     0.009 C 
HETATM    8  C16 UNL     1      29.208   6.196  47.983  1.00  0.00    -0.043 C 
HETATM    9  C17 UNL     1      30.489   5.577  47.506  1.00  0.00     0.008 C 
HETATM   10  C18 UNL     1      31.585   6.380  47.441  1.00  0.00     0.000 C 
HETATM   11  C19 UNL     1      31.501   7.795  47.747  1.00  0.00    -0.003 C 
HETATM   12  C20 UNL     1      30.335   8.350  48.001  1.00  0.00    -0.010 C 
HETATM   13  C21 UNL     1      28.990   7.612  47.935  1.00  0.00     0.037 A 
HETATM   14  C22 UNL     1      28.566   7.962  46.426  1.00  0.00     0.057 A 
HETATM   15  C23 UNL     1      27.776   8.285  47.705  1.00  0.00     0.241 A 
HETATM   16  N4  UNL     1      26.487   7.678  47.635  1.00  0.00     0.114 N 
HETATM   17  H30 UNL     1      26.081   7.800  46.684  1.00  0.00     0.319 HD
ENDROOT
BRANCH   5  18
HETATM   18  C8  UNL     1      25.577   3.032  49.906  1.00  0.00     0.069 C 
BRANCH  18  19
HETATM   19  C9  UNL     1      26.466   2.132  50.685  1.00  0.00     0.280 C 
BRANCH  19  20
HETATM   20  N3  UNL     1      26.513   2.655  52.045  1.00  0.00     0.121 N 
HETATM   21  C10 UNL     1      25.300   2.339  52.773  1.00  0.00     0.301 C 
HETATM   22  C11 UNL     1      25.407   1.047  53.549  1.00  0.00     0.198 C 
HETATM   23  O1  UNL     1      26.324   0.157  53.032  1.00  0.00    -0.385 OA
HETATM   24  C12 UNL     1      27.607   0.645  52.938  1.00  0.00     0.231 C 
HETATM   25  C13 UNL     1      27.613   2.175  52.820  1.00  0.00     0.380 C 
BRANCH  25  26
HETATM   26  O2  UNL     1      27.376   2.618  54.144  1.00  0.00    -0.366 OA
HETATM   27  H20 UNL     1      26.851   3.455  54.167  1.00  0.00     0.212 HD
ENDBRANCH  25  26
ENDBRANCH  19  20
ENDBRANCH  18  19
ENDBRANCH   5  18
BRANCH   4  28
HETATM   28  C6  UNL     1      23.765   4.965  50.429  1.00  0.00     0.118 C 
HETATM   29  N2  UNL     1      23.144   5.312  51.475  1.00  0.00    -0.311 NA
HETATM   30  H8  UNL     1      22.193   4.985  51.695  1.00  0.00     0.186 HD
ENDBRANCH   4  28
BRANCH   1  31
HETATM   31  N1  UNL     1      25.962   9.879  48.315  1.00  0.00    -0.277 NA
HETATM   32  C1  UNL     1      25.034  10.702  47.967  1.00  0.00     0.145 C 
ENDBRANCH   1  31
TORSDOF 6
ENDMDL
MODEL 8
REMARK VINA RESULT:      -7.9      5.796      7.963
REMARK  6 active torsions:
REMARK  status: ('A' for Active; 'I' for Inactive)
REMARK    1  A    between atoms: N1_2  and  C2_3 
REMARK    2  A    between atoms: C5_6  and  C6_7 
REMARK    3  A    between atoms: C7_9  and  C8_10 
REMARK    4  A    between atoms: C8_10  and  C9_11 
REMARK    5  A    between atoms: C9_11  and  N3_12 
REMARK    6  A    between atoms: C13_17  and  O2_18 
ROOT
HETATM    1  C2  UNL     1      26.900   9.175  48.080  1.00  0.00     0.344 C 
HETATM    2  C3  UNL     1      27.225   8.421  46.810  1.00  0.00     0.087 C 
HETATM    3  C4  UNL     1      28.711   8.220  46.859  1.00  0.00    -0.009 C 
HETATM    4  C5  UNL     1      29.816   7.542  47.079  1.00  0.00    -0.017 C 
HETATM    5  C7  UNL     1      29.986   6.209  47.726  1.00  0.00    -0.045 C 
HETATM    6  C14 UNL     1      29.018   5.516  48.250  1.00  0.00     0.009 C 
HETATM    7  C15 UNL     1      27.835   4.885  48.783  1.00  0.00     0.009 C 
HETATM    8  C16 UNL     1      26.516   4.957  49.052  1.00  0.00    -0.043 C 
HETATM    9  C17 UNL     1      26.190   3.618  49.646  1.00  0.00     0.008 C 
HETATM   10  C18 UNL     1      24.894   3.209  49.592  1.00  0.00     0.000 C 
HETATM   11  C19 UNL     1      23.856   4.065  49.052  1.00  0.00    -0.003 C 
HETATM   12  C20 UNL     1      24.136   5.299  48.690  1.00  0.00    -0.010 C 
HETATM   13  C21 UNL     1      25.511   5.961  48.857  1.00  0.00     0.037 A 
HETATM   14  C22 UNL     1      25.293   6.674  50.280  1.00  0.00     0.057 A 
HETATM   15  C23 UNL     1      25.665   7.357  48.953  1.00  0.00     0.241 A 
HETATM   16  N4  UNL     1      26.902   8.050  49.103  1.00  0.00     0.114 N 
HETATM   17  H30 UNL     1      26.925   8.554  50.014  1.00  0.00     0.319 HD
ENDROOT
BRANCH   5  18
HETATM   18  C8  UNL     1      31.426   5.828  47.630  1.00  0.00     0.069 C 
BRANCH  18  19
HETATM   19  C9  UNL     1      31.709   4.445  47.168  1.00  0.00     0.280 C 
BRANCH  19  20
HETATM   20  N3  UNL     1      32.803   3.939  47.988  1.00  0.00     0.121 N 
HETATM   21  C10 UNL     1      33.302   2.676  47.480  1.00  0.00     0.301 C 
HETATM   22  C11 UNL     1      34.455   2.851  46.519  1.00  0.00     0.198 C 
HETATM   23  O1  UNL     1      34.471   4.071  45.878  1.00  0.00    -0.385 OA
HETATM   24  C12 UNL     1      34.515   5.160  46.718  1.00  0.00     0.231 C 
HETATM   25  C13 UNL     1      33.917   4.828  48.092  1.00  0.00     0.380 C 
BRANCH  25  26
HETATM   26  O2  UNL     1      34.940   4.091  48.738  1.00  0.00    -0.366 OA
HETATM   27  H20 UNL     1      34.710   3.882  49.676  1.00  0.00     0.212 HD
ENDBRANCH  25  26
ENDBRANCH  19  20
ENDBRANCH  18  19
ENDBRANCH   5  18
BRANCH   4  28
HETATM   28  C6  UNL     1      31.025   8.354  46.762  1.00  0.00     0.118 C 
HETATM   29  N2  UNL     1      31.018   9.539  46.319  1.00  0.00    -0.311 NA
HETATM   30  H8  UNL     1      31.879  10.065  46.113  1.00  0.00     0.186 HD
ENDBRANCH   4  28
BRANCH   1  31
HETATM   31  N1  UNL     1      25.547   9.677  48.056  1.00  0.00    -0.277 NA
HETATM   32  C1  UNL     1      25.403  10.942  47.857  1.00  0.00     0.145 C 
ENDBRANCH   1  31
TORSDOF 6
ENDMDL
MODEL 9
REMARK VINA RESULT:      -7.6      5.311      9.828
REMARK  6 active torsions:
REMARK  status: ('A' for Active; 'I' for Inactive)
REMARK    1  A    between atoms: N1_2  and  C2_3 
REMARK    2  A    between atoms: C5_6  and  C6_7 
REMARK    3  A    between atoms: C7_9  and  C8_10 
REMARK    4  A    between atoms: C8_10  and  C9_11 
REMARK    5  A    between atoms: C9_11  and  N3_12 
REMARK    6  A    between atoms: C13_17  and  O2_18 
ROOT
HETATM    1  C2  UNL     1      30.733   6.399  49.095  1.00  0.00     0.344 C 
HETATM    2  C3  UNL     1      30.034   5.912  47.846  1.00  0.00     0.087 C 
HETATM    3  C4  UNL     1      28.733   5.347  48.337  1.00  0.00    -0.009 C 
HETATM    4  C5  UNL     1      27.441   5.364  48.580  1.00  0.00    -0.017 C 
HETATM    5  C7  UNL     1      26.484   6.503  48.481  1.00  0.00    -0.045 C 
HETATM    6  C14 UNL     1      26.819   7.724  48.182  1.00  0.00     0.009 C 
HETATM    7  C15 UNL     1      27.363   9.016  47.841  1.00  0.00     0.009 C 
HETATM    8  C16 UNL     1      28.448   9.779  47.596  1.00  0.00    -0.043 C 
HETATM    9  C17 UNL     1      27.880  11.128  47.267  1.00  0.00     0.008 C 
HETATM   10  C18 UNL     1      28.656  11.972  46.537  1.00  0.00     0.000 C 
HETATM   11  C19 UNL     1      30.009  11.613  46.158  1.00  0.00    -0.003 C 
HETATM   12  C20 UNL     1      30.546  10.495  46.598  1.00  0.00    -0.010 C 
HETATM   13  C21 UNL     1      29.859   9.528  47.573  1.00  0.00     0.037 A 
HETATM   14  C22 UNL     1      30.447  10.085  48.961  1.00  0.00     0.057 A 
HETATM   15  C23 UNL     1      30.588   8.657  48.405  1.00  0.00     0.241 A 
HETATM   16  N4  UNL     1      30.029   7.727  49.330  1.00  0.00     0.114 N 
HETATM   17  H30 UNL     1      30.306   7.976  50.303  1.00  0.00     0.319 HD
ENDROOT
BRANCH   5  18
HETATM   18  C8  UNL     1      25.112   5.980  48.752  1.00  0.00     0.069 C 
BRANCH  18  19
HETATM   19  C9  UNL     1      24.457   6.467  49.992  1.00  0.00     0.280 C 
BRANCH  19  20
HETATM   20  N3  UNL     1      23.142   5.841  50.052  1.00  0.00     0.121 N 
HETATM   21  C10 UNL     1      23.171   4.500  49.501  1.00  0.00     0.301 C 
HETATM   22  C11 UNL     1      23.429   3.445  50.551  1.00  0.00     0.198 C 
HETATM   23  O1  UNL     1      24.115   3.907  51.654  1.00  0.00    -0.385 OA
HETATM   24  C12 UNL     1      23.506   4.950  52.312  1.00  0.00     0.231 C 
HETATM   25  C13 UNL     1      22.596   5.748  51.369  1.00  0.00     0.380 C 
BRANCH  25  26
HETATM   26  O2  UNL     1      21.437   4.941  51.252  1.00  0.00    -0.366 OA
HETATM   27  H20 UNL     1      21.095   4.917  50.326  1.00  0.00     0.212 HD
ENDBRANCH  25  26
ENDBRANCH  19  20
ENDBRANCH  18  19
ENDBRANCH   5  18
BRANCH   4  28
HETATM   28  C6  UNL     1      26.984   4.083  49.190  1.00  0.00     0.118 C 
HETATM   29  N2  UNL     1      27.053   3.789  50.419  1.00  0.00    -0.311 NA
HETATM   30  H8  UNL     1      26.726   2.890  50.798  1.00  0.00     0.186 HD
ENDBRANCH   4  28
BRANCH   1  31
HETATM   31  N1  UNL     1      32.112   6.732  48.824  1.00  0.00    -0.277 NA
HETATM   32  C1  UNL     1      32.954   5.758  48.837  1.00  0.00     0.145 C 
ENDBRANCH   1  31
TORSDOF 6
ENDMDL
