MODEL 1
REMARK VINA RESULT:      -8.6      0.000      0.000
REMARK  2 active torsions:
REMARK  status: ('A' for Active; 'I' for Inactive)
REMARK    1  A    between atoms: C6_11  and  N3_12 
REMARK    2  A    between atoms: N3_12  and  C7_13 
ROOT
HETATM    1  F1  UNL     1      30.300  -0.930  53.651  1.00  0.00    -0.204 F 
HETATM    2  C1  UNL     1      29.045  -0.454  53.821  1.00  0.00     0.138 A 
HETATM    3  C2  UNL     1      29.062   0.431  54.800  1.00  0.00     0.180 A 
HETATM    4  O1  UNL     1      27.857   0.997  55.084  1.00  0.00    -0.325 OA
HETATM    5  C3  UNL     1      26.617   0.758  54.510  1.00  0.00     0.306 A 
HETATM    6  O2  UNL     1      26.075   2.009  54.080  1.00  0.00    -0.296 OA
HETATM    7  C4  UNL     1      24.916   2.203  53.335  1.00  0.00     0.199 A 
HETATM    8  N1  UNL     1      24.575   3.503  53.382  1.00  0.00    -0.216 NA
HETATM    9  C5  UNL     1      23.455   3.893  52.708  1.00  0.00     0.238 A 
HETATM   10  N2  UNL     1      22.755   2.971  52.035  1.00  0.00    -0.222 NA
HETATM   11  C6  UNL     1      23.100   1.672  51.990  1.00  0.00     0.160 A 
HETATM   12  C13 UNL     1      24.205   1.227  52.645  1.00  0.00     0.128 A 
HETATM   13  N4  UNL     1      24.415  -0.169  52.498  1.00  0.00    -0.379 N 
HETATM   14  C14 UNL     1      25.704  -0.828  52.489  1.00  0.00     0.159 C 
HETATM   15  C15 UNL     1      26.668  -0.234  53.413  1.00  0.00    -0.004 A 
HETATM   16  C16 UNL     1      27.831  -0.796  53.111  1.00  0.00     0.053 A 
HETATM   17  H9  UNL     1      23.484  -0.636  52.402  1.00  0.00     0.160 HD
ENDROOT
BRANCH  11  18
HETATM   18  N3  UNL     1      22.260   0.830  51.221  1.00  0.00    -0.339 N 
HETATM   19  H4  UNL     1      22.313   0.421  50.266  1.00  0.00     0.167 HD
BRANCH  18  20
HETATM   20  C7  UNL     1      21.012   0.351  51.747  1.00  0.00     0.035 A 
HETATM   21  C8  UNL     1      20.833  -0.179  53.031  1.00  0.00     0.029 A 
HETATM   22  C9  UNL     1      19.647  -0.621  53.538  1.00  0.00     0.004 A 
HETATM   23  C10 UNL     1      18.546  -0.545  52.743  1.00  0.00     0.019 A 
HETATM   24  C11 UNL     1      18.629  -0.031  51.445  1.00  0.00     0.013 A 
HETATM   25 BR1  UNL     1      17.015   0.024  50.432  1.00  0.00    -0.051 Br
HETATM   26  C12 UNL     1      19.857   0.403  50.980  1.00  0.00     0.048 A 
ENDBRANCH  18  20
ENDBRANCH  11  18
TORSDOF 2
ENDMDL
MODEL 2
REMARK VINA RESULT:      -8.4      2.857      4.539
REMARK  2 active torsions:
REMARK  status: ('A' for Active; 'I' for Inactive)
REMARK    1  A    between atoms: C6_11  and  N3_12 
REMARK    2  A    between atoms: N3_12  and  C7_13 
ROOT
HETATM    1  F1  UNL     1      30.687  -1.264  54.345  1.00  0.00    -0.204 F 
HETATM    2  C1  UNL     1      29.543  -0.894  53.723  1.00  0.00     0.138 A 
HETATM    3  C2  UNL     1      28.918  -1.982  53.316  1.00  0.00     0.180 A 
HETATM    4  O1  UNL     1      27.741  -1.759  52.668  1.00  0.00    -0.325 OA
HETATM    5  C3  UNL     1      27.124  -0.557  52.356  1.00  0.00     0.306 A 
HETATM    6  O2  UNL     1      25.787  -0.597  52.858  1.00  0.00    -0.296 OA
HETATM    7  C4  UNL     1      24.872   0.451  52.880  1.00  0.00     0.199 A 
HETATM    8  N1  UNL     1      23.648  -0.038  53.144  1.00  0.00    -0.216 NA
HETATM    9  C5  UNL     1      22.609   0.845  53.206  1.00  0.00     0.238 A 
HETATM   10  N2  UNL     1      22.855   2.145  53.003  1.00  0.00    -0.222 NA
HETATM   11  C6  UNL     1      24.082   2.630  52.739  1.00  0.00     0.160 A 
HETATM   12  C13 UNL     1      25.153   1.797  52.664  1.00  0.00     0.128 A 
HETATM   13  N4  UNL     1      26.365   2.474  52.370  1.00  0.00    -0.379 N 
HETATM   14  C14 UNL     1      27.682   2.072  52.819  1.00  0.00     0.159 C 
HETATM   15  C15 UNL     1      27.870   0.623  52.850  1.00  0.00    -0.004 A 
HETATM   16  C16 UNL     1      29.016   0.434  53.491  1.00  0.00     0.053 A 
HETATM   17  H9  UNL     1      26.145   3.305  51.775  1.00  0.00     0.160 HD
ENDROOT
BRANCH  11  18
HETATM   18  N3  UNL     1      24.174   4.033  52.565  1.00  0.00    -0.339 N 
HETATM   19  H4  UNL     1      24.500   4.822  53.159  1.00  0.00     0.167 HD
BRANCH  18  20
HETATM   20  C7  UNL     1      23.756   4.654  51.339  1.00  0.00     0.035 A 
HETATM   21  C8  UNL     1      24.180   4.271  50.060  1.00  0.00     0.029 A 
HETATM   22  C9  UNL     1      23.774   4.851  48.894  1.00  0.00     0.004 A 
HETATM   23  C10 UNL     1      22.888   5.879  48.968  1.00  0.00     0.019 A 
HETATM   24  C11 UNL     1      22.409   6.331  50.202  1.00  0.00     0.013 A 
HETATM   25 BR1  UNL     1      21.169   7.778  50.173  1.00  0.00    -0.051 Br
HETATM   26  C12 UNL     1      22.854   5.708  51.355  1.00  0.00     0.048 A 
ENDBRANCH  18  20
ENDBRANCH  11  18
TORSDOF 2
ENDMDL
MODEL 3
REMARK VINA RESULT:      -8.3      2.628      3.541
REMARK  2 active torsions:
REMARK  status: ('A' for Active; 'I' for Inactive)
REMARK    1  A    between atoms: C6_11  and  N3_12 
REMARK    2  A    between atoms: N3_12  and  C7_13 
ROOT
HETATM    1  F1  UNL     1      30.646   0.295  53.827  1.00  0.00    -0.204 F 
HETATM    2  C1  UNL     1      29.363   0.015  53.500  1.00  0.00     0.138 A 
HETATM    3  C2  UNL     1      29.137  -1.261  53.746  1.00  0.00     0.180 A 
HETATM    4  O1  UNL     1      27.875  -1.686  53.460  1.00  0.00    -0.325 OA
HETATM    5  C3  UNL     1      26.808  -0.977  52.929  1.00  0.00     0.306 A 
HETATM    6  O2  UNL     1      25.686  -1.139  53.798  1.00  0.00    -0.296 OA
HETATM    7  C4  UNL     1      24.460  -0.488  53.708  1.00  0.00     0.199 A 
HETATM    8  N1  UNL     1      23.570  -1.110  54.501  1.00  0.00    -0.216 NA
HETATM    9  C5  UNL     1      22.300  -0.613  54.547  1.00  0.00     0.238 A 
HETATM   10  N2  UNL     1      22.002   0.461  53.805  1.00  0.00    -0.222 NA
HETATM   11  C6  UNL     1      22.895   1.081  53.013  1.00  0.00     0.160 A 
HETATM   12  C13 UNL     1      24.174   0.629  52.928  1.00  0.00     0.128 A 
HETATM   13  N4  UNL     1      24.976   1.393  52.042  1.00  0.00    -0.379 N 
HETATM   14  C14 UNL     1      26.402   1.613  52.176  1.00  0.00     0.159 C 
HETATM   15  C15 UNL     1      27.124   0.450  52.688  1.00  0.00    -0.004 A 
HETATM   16  C16 UNL     1      28.344   0.892  52.963  1.00  0.00     0.053 A 
HETATM   17  H9  UNL     1      24.366   1.765  51.278  1.00  0.00     0.160 HD
ENDROOT
BRANCH  11  18
HETATM   18  N3  UNL     1      22.421   2.214  52.307  1.00  0.00    -0.339 N 
HETATM   19  H4  UNL     1      22.190   3.193  52.570  1.00  0.00     0.167 HD
BRANCH  18  20
HETATM   20  C7  UNL     1      22.150   2.146  50.898  1.00  0.00     0.035 A 
HETATM   21  C8  UNL     1      21.637   1.025  50.233  1.00  0.00     0.029 A 
HETATM   22  C9  UNL     1      21.365   0.962  48.898  1.00  0.00     0.004 A 
HETATM   23  C10 UNL     1      21.606   2.070  48.147  1.00  0.00     0.019 A 
HETATM   24  C11 UNL     1      22.119   3.236  48.724  1.00  0.00     0.013 A 
HETATM   25 BR1  UNL     1      22.410   4.720  47.564  1.00  0.00    -0.051 Br
HETATM   26  C12 UNL     1      22.377   3.245  50.083  1.00  0.00     0.048 A 
ENDBRANCH  18  20
ENDBRANCH  11  18
TORSDOF 2
ENDMDL
MODEL 4
REMARK VINA RESULT:      -8.1      2.027      2.742
REMARK  2 active torsions:
REMARK  status: ('A' for Active; 'I' for Inactive)
REMARK    1  A    between atoms: C6_11  and  N3_12 
REMARK    2  A    between atoms: N3_12  and  C7_13 
ROOT
HETATM    1  F1  UNL     1      29.904   1.245  54.066  1.00  0.00    -0.204 F 
HETATM    2  C1  UNL     1      28.681   0.759  53.754  1.00  0.00     0.138 A 
HETATM    3  C2  UNL     1      28.621  -0.503  54.137  1.00  0.00     0.180 A 
HETATM    4  O1  UNL     1      27.437  -1.124  53.883  1.00  0.00    -0.325 OA
HETATM    5  C3  UNL     1      26.301  -0.630  53.260  1.00  0.00     0.306 A 
HETATM    6  O2  UNL     1      25.185  -0.850  54.125  1.00  0.00    -0.296 OA
HETATM    7  C4  UNL     1      23.886  -0.386  53.945  1.00  0.00     0.199 A 
HETATM    8  N1  UNL     1      23.065  -1.034  54.790  1.00  0.00    -0.216 NA
HETATM    9  C5  UNL     1      21.739  -0.714  54.761  1.00  0.00     0.238 A 
HETATM   10  N2  UNL     1      21.321   0.222  53.900  1.00  0.00    -0.222 NA
HETATM   11  C6  UNL     1      22.145   0.868  53.057  1.00  0.00     0.160 A 
HETATM   12  C13 UNL     1      23.476   0.589  53.041  1.00  0.00     0.128 A 
HETATM   13  N4  UNL     1      24.194   1.355  52.087  1.00  0.00    -0.379 N 
HETATM   14  C14 UNL     1      25.572   1.782  52.216  1.00  0.00     0.159 C 
HETATM   15  C15 UNL     1      26.428   0.791  52.865  1.00  0.00    -0.004 A 
HETATM   16  C16 UNL     1      27.569   1.423  53.107  1.00  0.00     0.053 A 
HETATM   17  H9  UNL     1      23.562   1.554  51.278  1.00  0.00     0.160 HD
ENDROOT
BRANCH  11  18
HETATM   18  N3  UNL     1      21.545   1.842  52.221  1.00  0.00    -0.339 N 
HETATM   19  H4  UNL     1      21.850   2.757  51.831  1.00  0.00     0.167 HD
BRANCH  18  20
HETATM   20  C7  UNL     1      20.210   1.665  51.722  1.00  0.00     0.035 A 
HETATM   21  C8  UNL     1      19.746   0.522  51.059  1.00  0.00     0.029 A 
HETATM   22  C9  UNL     1      18.476   0.346  50.596  1.00  0.00     0.004 A 
HETATM   23  C10 UNL     1      17.582   1.352  50.789  1.00  0.00     0.019 A 
HETATM   24  C11 UNL     1      17.955   2.533  51.440  1.00  0.00     0.013 A 
HETATM   25 BR1  UNL     1      16.610   3.867  51.650  1.00  0.00    -0.051 Br
HETATM   26  C12 UNL     1      19.257   2.659  51.889  1.00  0.00     0.048 A 
ENDBRANCH  18  20
ENDBRANCH  11  18
TORSDOF 2
ENDMDL
MODEL 5
REMARK VINA RESULT:      -7.9      2.772      3.131
REMARK  2 active torsions:
REMARK  status: ('A' for Active; 'I' for Inactive)
REMARK    1  A    between atoms: C6_11  and  N3_12 
REMARK    2  A    between atoms: N3_12  and  C7_13 
ROOT
HETATM    1  F1  UNL     1      29.734  -2.763  53.549  1.00  0.00    -0.204 F 
HETATM    2  C1  UNL     1      29.043  -1.605  53.438  1.00  0.00     0.138 A 
HETATM    3  C2  UNL     1      29.898  -0.601  53.481  1.00  0.00     0.180 A 
HETATM    4  O1  UNL     1      29.337   0.636  53.379  1.00  0.00    -0.325 OA
HETATM    5  C3  UNL     1      28.001   0.988  53.263  1.00  0.00     0.306 A 
HETATM    6  O2  UNL     1      27.859   1.831  52.117  1.00  0.00    -0.296 OA
HETATM    7  C4  UNL     1      26.669   2.294  51.565  1.00  0.00     0.199 A 
HETATM    8  N1  UNL     1      26.941   3.284  50.697  1.00  0.00    -0.216 NA
HETATM    9  C5  UNL     1      25.893   3.871  50.050  1.00  0.00     0.238 A 
HETATM   10  N2  UNL     1      24.653   3.436  50.307  1.00  0.00    -0.222 NA
HETATM   11  C6  UNL     1      24.385   2.445  51.175  1.00  0.00     0.160 A 
HETATM   12  C13 UNL     1      25.390   1.825  51.849  1.00  0.00     0.128 A 
HETATM   13  N4  UNL     1      24.928   0.811  52.728  1.00  0.00    -0.379 N 
HETATM   14  C14 UNL     1      25.655  -0.391  53.079  1.00  0.00     0.159 C 
HETATM   15  C15 UNL     1      27.096  -0.183  53.208  1.00  0.00    -0.004 A 
HETATM   16  C16 UNL     1      27.616  -1.400  53.298  1.00  0.00     0.053 A 
HETATM   17  H9  UNL     1      23.981   1.082  53.078  1.00  0.00     0.160 HD
ENDROOT
BRANCH  11  18
HETATM   18  N3  UNL     1      23.020   2.094  51.319  1.00  0.00    -0.339 N 
HETATM   19  H4  UNL     1      22.457   1.647  52.071  1.00  0.00     0.167 HD
BRANCH  18  20
HETATM   20  C7  UNL     1      22.075   2.352  50.268  1.00  0.00     0.035 A 
HETATM   21  C8  UNL     1      21.953   1.594  49.096  1.00  0.00     0.029 A 
HETATM   22  C9  UNL     1      21.048   1.829  48.103  1.00  0.00     0.004 A 
HETATM   23  C10 UNL     1      20.193   2.875  48.254  1.00  0.00     0.019 A 
HETATM   24  C11 UNL     1      20.242   3.689  49.391  1.00  0.00     0.013 A 
HETATM   25 BR1  UNL     1      18.989   5.122  49.485  1.00  0.00    -0.051 Br
HETATM   26  C12 UNL     1      21.180   3.407  50.367  1.00  0.00     0.048 A 
ENDBRANCH  18  20
ENDBRANCH  11  18
TORSDOF 2
ENDMDL
MODEL 6
REMARK VINA RESULT:      -7.7      4.007      5.167
REMARK  2 active torsions:
REMARK  status: ('A' for Active; 'I' for Inactive)
REMARK    1  A    between atoms: C6_11  and  N3_12 
REMARK    2  A    between atoms: N3_12  and  C7_13 
ROOT
HETATM    1  F1  UNL     1      27.635   8.014  48.217  1.00  0.00    -0.204 F 
HETATM    2  C1  UNL     1      27.249   6.769  48.579  1.00  0.00     0.138 A 
HETATM    3  C2  UNL     1      28.252   5.939  48.364  1.00  0.00     0.180 A 
HETATM    4  O1  UNL     1      28.002   4.640  48.686  1.00  0.00    -0.325 OA
HETATM    5  C3  UNL     1      26.841   4.065  49.180  1.00  0.00     0.306 A 
HETATM    6  O2  UNL     1      27.171   3.342  50.368  1.00  0.00    -0.296 OA
HETATM    7  C4  UNL     1      26.282   2.733  51.248  1.00  0.00     0.199 A 
HETATM    8  N1  UNL     1      26.964   1.912  52.065  1.00  0.00    -0.216 NA
HETATM    9  C5  UNL     1      26.258   1.218  53.005  1.00  0.00     0.238 A 
HETATM   10  N2  UNL     1      24.931   1.388  53.069  1.00  0.00    -0.222 NA
HETATM   11  C6  UNL     1      24.254   2.211  52.250  1.00  0.00     0.160 A 
HETATM   12  C13 UNL     1      24.905   2.926  51.294  1.00  0.00     0.128 A 
HETATM   13  N4  UNL     1      24.037   3.735  50.516  1.00  0.00    -0.379 N 
HETATM   14  C14 UNL     1      24.387   5.004  49.912  1.00  0.00     0.159 C 
HETATM   15  C15 UNL     1      25.759   5.049  49.409  1.00  0.00    -0.004 A 
HETATM   16  C16 UNL     1      25.978   6.323  49.111  1.00  0.00     0.053 A 
HETATM   17  H9  UNL     1      23.108   3.258  50.452  1.00  0.00     0.160 HD
ENDROOT
BRANCH  11  18
HETATM   18  N3  UNL     1      22.855   2.288  52.461  1.00  0.00    -0.339 N 
HETATM   19  H4  UNL     1      22.143   3.040  52.366  1.00  0.00     0.167 HD
BRANCH  18  20
HETATM   20  C7  UNL     1      22.111   1.145  52.911  1.00  0.00     0.035 A 
HETATM   21  C8  UNL     1      22.585   0.186  53.817  1.00  0.00     0.029 A 
HETATM   22  C9  UNL     1      21.876  -0.893  54.257  1.00  0.00     0.004 A 
HETATM   23  C10 UNL     1      20.611  -1.059  53.787  1.00  0.00     0.019 A 
HETATM   24  C11 UNL     1      20.054  -0.153  52.879  1.00  0.00     0.013 A 
HETATM   25 BR1  UNL     1      18.271  -0.495  52.297  1.00  0.00    -0.051 Br
HETATM   26  C12 UNL     1      20.817   0.924  52.464  1.00  0.00     0.048 A 
ENDBRANCH  18  20
ENDBRANCH  11  18
TORSDOF 2
ENDMDL
MODEL 7
REMARK VINA RESULT:      -7.7      5.277      7.323
REMARK  2 active torsions:
REMARK  status: ('A' for Active; 'I' for Inactive)
REMARK    1  A    between atoms: C6_11  and  N3_12 
REMARK    2  A    between atoms: N3_12  and  C7_13 
ROOT
HETATM    1  F1  UNL     1      26.477   9.085  46.877  1.00  0.00    -0.204 F 
HETATM    2  C1  UNL     1      26.180   8.367  47.985  1.00  0.00     0.138 A 
HETATM    3  C2  UNL     1      25.637   9.176  48.875  1.00  0.00     0.180 A 
HETATM    4  O1  UNL     1      25.286   8.584  50.050  1.00  0.00    -0.325 OA
HETATM    5  C3  UNL     1      25.440   7.265  50.450  1.00  0.00     0.306 A 
HETATM    6  O2  UNL     1      24.167   6.776  50.877  1.00  0.00    -0.296 OA
HETATM    7  C4  UNL     1      23.851   5.467  51.226  1.00  0.00     0.199 A 
HETATM    8  N1  UNL     1      22.660   5.452  51.850  1.00  0.00    -0.216 NA
HETATM    9  C5  UNL     1      22.177   4.248  52.273  1.00  0.00     0.238 A 
HETATM   10  N2  UNL     1      22.905   3.147  52.048  1.00  0.00    -0.222 NA
HETATM   11  C6  UNL     1      24.095   3.166  51.423  1.00  0.00     0.160 A 
HETATM   12  C13 UNL     1      24.626   4.338  50.982  1.00  0.00     0.128 A 
HETATM   13  N4  UNL     1      25.889   4.175  50.355  1.00  0.00    -0.379 N 
HETATM   14  C14 UNL     1      26.406   4.998  49.281  1.00  0.00     0.159 C 
HETATM   15  C15 UNL     1      26.044   6.409  49.404  1.00  0.00    -0.004 A 
HETATM   16  C16 UNL     1      26.389   6.959  48.247  1.00  0.00     0.053 A 
HETATM   17  H9  UNL     1      26.379   3.367  50.801  1.00  0.00     0.160 HD
ENDROOT
BRANCH  11  18
HETATM   18  N3  UNL     1      24.730   1.911  51.251  1.00  0.00    -0.339 N 
HETATM   19  H4  UNL     1      24.890   1.280  50.440  1.00  0.00     0.167 HD
BRANCH  18  20
HETATM   20  C7  UNL     1      25.335   1.230  52.362  1.00  0.00     0.035 A 
HETATM   21  C8  UNL     1      24.688   0.289  53.174  1.00  0.00     0.029 A 
HETATM   22  C9  UNL     1      25.264  -0.369  54.220  1.00  0.00     0.004 A 
HETATM   23  C10 UNL     1      26.566  -0.099  54.504  1.00  0.00     0.019 A 
HETATM   24  C11 UNL     1      27.292   0.828  53.749  1.00  0.00     0.013 A 
HETATM   25 BR1  UNL     1      29.109   1.117  54.246  1.00  0.00    -0.051 Br
HETATM   26  C12 UNL     1      26.659   1.468  52.698  1.00  0.00     0.048 A 
ENDBRANCH  18  20
ENDBRANCH  11  18
TORSDOF 2
ENDMDL
MODEL 8
REMARK VINA RESULT:      -7.6      5.890      7.735
REMARK  2 active torsions:
REMARK  status: ('A' for Active; 'I' for Inactive)
REMARK    1  A    between atoms: C6_11  and  N3_12 
REMARK    2  A    between atoms: N3_12  and  C7_13 
ROOT
HETATM    1  F1  UNL     1      28.511  10.634  46.929  1.00  0.00    -0.204 F 
HETATM    2  C1  UNL     1      27.969   9.839  47.880  1.00  0.00     0.138 A 
HETATM    3  C2  UNL     1      27.547  10.600  48.872  1.00  0.00     0.180 A 
HETATM    4  O1  UNL     1      26.974   9.927  49.907  1.00  0.00    -0.325 OA
HETATM    5  C3  UNL     1      26.795   8.563  50.078  1.00  0.00     0.306 A 
HETATM    6  O2  UNL     1      25.413   8.324  50.353  1.00  0.00    -0.296 OA
HETATM    7  C4  UNL     1      24.784   7.087  50.454  1.00  0.00     0.199 A 
HETATM    8  N1  UNL     1      23.571   7.253  51.010  1.00  0.00    -0.216 NA
HETATM    9  C5  UNL     1      22.797   6.144  51.194  1.00  0.00     0.238 A 
HETATM   10  N2  UNL     1      23.278   4.953  50.814  1.00  0.00    -0.222 NA
HETATM   11  C6  UNL     1      24.491   4.792  50.256  1.00  0.00     0.160 A 
HETATM   12  C13 UNL     1      25.305   5.861  50.052  1.00  0.00     0.128 A 
HETATM   13  N4  UNL     1      26.548   5.509  49.464  1.00  0.00    -0.379 N 
HETATM   14  C14 UNL     1      27.325   6.349  48.576  1.00  0.00     0.159 C 
HETATM   15  C15 UNL     1      27.278   7.767  48.926  1.00  0.00    -0.004 A 
HETATM   16  C16 UNL     1      27.835   8.398  47.900  1.00  0.00     0.053 A 
HETATM   17  H9  UNL     1      26.806   4.548  49.784  1.00  0.00     0.160 HD
ENDROOT
BRANCH  11  18
HETATM   18  N3  UNL     1      24.841   3.467  49.897  1.00  0.00    -0.339 N 
HETATM   19  H4  UNL     1      24.886   2.942  49.000  1.00  0.00     0.167 HD
BRANCH  18  20
HETATM   20  C7  UNL     1      25.247   2.514  50.892  1.00  0.00     0.035 A 
HETATM   21  C8  UNL     1      26.570   2.286  51.292  1.00  0.00     0.029 A 
HETATM   22  C9  UNL     1      26.956   1.391  52.246  1.00  0.00     0.004 A 
HETATM   23  C10 UNL     1      25.990   0.661  52.864  1.00  0.00     0.019 A 
HETATM   24  C11 UNL     1      24.641   0.819  52.529  1.00  0.00     0.013 A 
HETATM   25 BR1  UNL     1      23.383  -0.262  53.467  1.00  0.00    -0.051 Br
HETATM   26  C12 UNL     1      24.304   1.740  51.553  1.00  0.00     0.048 A 
ENDBRANCH  18  20
ENDBRANCH  11  18
TORSDOF 2
ENDMDL
MODEL 9
REMARK VINA RESULT:      -7.6      4.240      5.206
REMARK  2 active torsions:
REMARK  status: ('A' for Active; 'I' for Inactive)
REMARK    1  A    between atoms: C6_11  and  N3_12 
REMARK    2  A    between atoms: N3_12  and  C7_13 
ROOT
HETATM    1  F1  UNL     1      28.706   6.352  47.779  1.00  0.00    -0.204 F 
HETATM    2  C1  UNL     1      27.604   6.052  48.506  1.00  0.00     0.138 A 
HETATM    3  C2  UNL     1      27.016   7.179  48.859  1.00  0.00     0.180 A 
HETATM    4  O1  UNL     1      25.885   7.027  49.602  1.00  0.00    -0.325 OA
HETATM    5  C3  UNL     1      25.282   5.864  50.057  1.00  0.00     0.306 A 
HETATM    6  O2  UNL     1      23.914   5.879  49.644  1.00  0.00    -0.296 OA
HETATM    7  C4  UNL     1      22.992   4.845  49.774  1.00  0.00     0.199 A 
HETATM    8  N1  UNL     1      21.756   5.325  49.552  1.00  0.00    -0.216 NA
HETATM    9  C5  UNL     1      20.709   4.455  49.637  1.00  0.00     0.238 A 
HETATM   10  N2  UNL     1      20.960   3.173  49.934  1.00  0.00    -0.222 NA
HETATM   11  C6  UNL     1      22.197   2.697  50.155  1.00  0.00     0.160 A 
HETATM   12  C13 UNL     1      23.278   3.519  50.086  1.00  0.00     0.128 A 
HETATM   13  N4  UNL     1      24.502   2.854  50.355  1.00  0.00    -0.379 N 
HETATM   14  C14 UNL     1      25.788   3.198  49.785  1.00  0.00     0.159 C 
HETATM   15  C15 UNL     1      25.983   4.637  49.617  1.00  0.00    -0.004 A 
HETATM   16  C16 UNL     1      27.084   4.756  48.887  1.00  0.00     0.053 A 
HETATM   17  H9  UNL     1      24.317   2.080  51.033  1.00  0.00     0.160 HD
ENDROOT
BRANCH  11  18
HETATM   18  N3  UNL     1      22.291   1.313  50.443  1.00  0.00    -0.339 N 
HETATM   19  H4  UNL     1      22.706   0.493  49.956  1.00  0.00     0.167 HD
BRANCH  18  20
HETATM   20  C7  UNL     1      21.727   0.768  51.647  1.00  0.00     0.035 A 
HETATM   21  C8  UNL     1      22.383   0.703  52.882  1.00  0.00     0.029 A 
HETATM   22  C9  UNL     1      21.845   0.199  54.030  1.00  0.00     0.004 A 
HETATM   23  C10 UNL     1      20.573  -0.277  53.981  1.00  0.00     0.019 A 
HETATM   24  C11 UNL     1      19.839  -0.254  52.790  1.00  0.00     0.013 A 
HETATM   25 BR1  UNL     1      18.065  -0.949  52.853  1.00  0.00    -0.051 Br
HETATM   26  C12 UNL     1      20.433   0.267  51.655  1.00  0.00     0.048 A 
ENDBRANCH  18  20
ENDBRANCH  11  18
TORSDOF 2
ENDMDL
