MODEL 1
REMARK VINA RESULT:      -8.2      0.000      0.000
REMARK  6 active torsions:
REMARK  status: ('A' for Active; 'I' for Inactive)
REMARK    1  A    between atoms: C2_2  and  C3_3 
REMARK       I    between atoms: C3_3  and  N1_5 
REMARK    2  A    between atoms: N1_5  and  C4_6 
REMARK    3  A    between atoms: C9_13  and  N4_14 
REMARK    4  A    between atoms: N4_14  and  C10_15 
REMARK    5  A    between atoms: S1_18  and  C13_19 
REMARK    6  A    between atoms: C13_19  and  C14_20 
ROOT
HETATM    1  C4  UNL     1      25.268  -0.741  54.452  1.00  0.00     0.036 A 
HETATM    2  C5  UNL     1      24.639  -1.302  55.530  1.00  0.00     0.032 A 
HETATM    3  C6  UNL     1      23.275  -1.406  55.705  1.00  0.00     0.035 A 
HETATM    4  C7  UNL     1      22.474  -0.901  54.702  1.00  0.00     0.072 A 
HETATM    5  N2  UNL     1      21.118  -0.964  54.792  1.00  0.00    -0.241 NA
HETATM    6  C8  UNL     1      20.380  -0.448  53.765  1.00  0.00     0.236 A 
HETATM    7  N3  UNL     1      20.974   0.107  52.697  1.00  0.00    -0.224 NA
HETATM    8  C9  UNL     1      22.287   0.204  52.541  1.00  0.00     0.142 A 
HETATM    9  C20 UNL     1      23.056  -0.323  53.588  1.00  0.00     0.041 A 
HETATM   10  C21 UNL     1      24.426  -0.250  53.477  1.00  0.00     0.047 A 
ENDROOT
BRANCH   8  11
HETATM   11  N4  UNL     1      22.821   0.810  51.372  1.00  0.00    -0.340 N 
HETATM   12  H8  UNL     1      23.368   0.429  50.600  1.00  0.00     0.167 HD
BRANCH  11  13
HETATM   13  C10 UNL     1      22.560   2.209  51.221  1.00  0.00     0.034 A 
HETATM   14  C11 UNL     1      23.258   3.042  51.997  1.00  0.00     0.036 A 
HETATM   15  C12 UNL     1      23.143   4.518  51.999  1.00  0.00     0.041 A 
HETATM   16  S1  UNL     1      22.054   5.096  50.941  1.00  0.00    -0.172 SA
HETATM   17  C18 UNL     1      21.200   3.846  49.971  1.00  0.00     0.041 A 
HETATM   18  C19 UNL     1      21.565   2.613  50.242  1.00  0.00     0.036 A 
BRANCH  16  19
HETATM   19  C13 UNL     1      21.778   6.862  50.803  1.00  0.00     0.080 C 
BRANCH  19  20
HETATM   20  C14 UNL     1      22.740   7.622  49.933  1.00  0.00    -0.043 C 
HETATM   21  C15 UNL     1      23.966   8.076  50.648  1.00  0.00     0.015 C 
HETATM   22  C16 UNL     1      23.120   6.744  48.748  1.00  0.00     0.015 C 
HETATM   23  C17 UNL     1      22.007   8.818  49.367  1.00  0.00     0.015 C 
ENDBRANCH  19  20
ENDBRANCH  16  19
ENDBRANCH  11  13
ENDBRANCH   8  11
BRANCH   1  24
HETATM   24  N1  UNL     1      26.664  -0.627  54.246  1.00  0.00    -0.324 N 
HETATM   25  C3  UNL     1      27.540   0.480  54.370  1.00  0.00     0.244 C 
HETATM   26  O1  UNL     1      26.997   1.558  54.723  1.00  0.00    -0.268 OA
HETATM   27  H4  UNL     1      27.194  -1.492  53.945  1.00  0.00     0.169 HD
BRANCH  25  28
HETATM   28  C2  UNL     1      28.983   0.376  54.101  1.00  0.00     0.064 C 
HETATM   29  C1  UNL     1      29.846  -0.506  53.554  1.00  0.00     0.017 C 
ENDBRANCH  25  28
ENDBRANCH   1  24
TORSDOF 6
ENDMDL
MODEL 2
REMARK VINA RESULT:      -7.7      2.629      3.696
REMARK  6 active torsions:
REMARK  status: ('A' for Active; 'I' for Inactive)
REMARK    1  A    between atoms: C2_2  and  C3_3 
REMARK       I    between atoms: C3_3  and  N1_5 
REMARK    2  A    between atoms: N1_5  and  C4_6 
REMARK    3  A    between atoms: C9_13  and  N4_14 
REMARK    4  A    between atoms: N4_14  and  C10_15 
REMARK    5  A    between atoms: S1_18  and  C13_19 
REMARK    6  A    between atoms: C13_19  and  C14_20 
ROOT
HETATM    1  C4  UNL     1      25.134   1.035  53.114  1.00  0.00     0.036 A 
HETATM    2  C5  UNL     1      24.135   0.098  53.080  1.00  0.00     0.032 A 
HETATM    3  C6  UNL     1      22.798   0.353  52.866  1.00  0.00     0.035 A 
HETATM    4  C7  UNL     1      22.432   1.668  52.667  1.00  0.00     0.072 A 
HETATM    5  N2  UNL     1      21.134   2.007  52.445  1.00  0.00    -0.241 NA
HETATM    6  C8  UNL     1      20.837   3.327  52.253  1.00  0.00     0.236 A 
HETATM    7  N3  UNL     1      21.798   4.262  52.282  1.00  0.00    -0.224 NA
HETATM    8  C9  UNL     1      23.082   4.007  52.492  1.00  0.00     0.142 A 
HETATM    9  C20 UNL     1      23.401   2.656  52.690  1.00  0.00     0.041 A 
HETATM   10  C21 UNL     1      24.720   2.333  52.910  1.00  0.00     0.047 A 
ENDROOT
BRANCH   8  11
HETATM   11  N4  UNL     1      24.026   5.069  52.503  1.00  0.00    -0.340 N 
HETATM   12  H8  UNL     1      24.578   5.479  53.257  1.00  0.00     0.167 HD
BRANCH  11  13
HETATM   13  C10 UNL     1      24.271   5.698  51.241  1.00  0.00     0.034 A 
HETATM   14  C11 UNL     1      23.991   7.002  51.150  1.00  0.00     0.036 A 
HETATM   15  C12 UNL     1      24.170   7.840  49.943  1.00  0.00     0.041 A 
HETATM   16  S1  UNL     1      24.761   7.032  48.662  1.00  0.00    -0.172 SA
HETATM   17  C18 UNL     1      25.085   5.287  48.948  1.00  0.00     0.041 A 
HETATM   18  C19 UNL     1      24.801   4.880  50.165  1.00  0.00     0.036 A 
BRANCH  16  19
HETATM   19  C13 UNL     1      25.044   7.884  47.110  1.00  0.00     0.080 C 
BRANCH  19  20
HETATM   20  C14 UNL     1      26.389   8.534  46.941  1.00  0.00    -0.043 C 
HETATM   21  C15 UNL     1      26.494   9.873  47.587  1.00  0.00     0.015 C 
HETATM   22  C16 UNL     1      27.452   7.598  47.500  1.00  0.00     0.015 C 
HETATM   23  C17 UNL     1      26.660   8.659  45.459  1.00  0.00     0.015 C 
ENDBRANCH  19  20
ENDBRANCH  16  19
ENDBRANCH  11  13
ENDBRANCH   8  11
BRANCH   1  24
HETATM   24  N1  UNL     1      26.513   0.800  53.326  1.00  0.00    -0.324 N 
HETATM   25  C3  UNL     1      27.201   0.163  54.389  1.00  0.00     0.244 C 
HETATM   26  O1  UNL     1      26.471  -0.274  55.314  1.00  0.00    -0.268 OA
HETATM   27  H4  UNL     1      27.194   1.141  52.591  1.00  0.00     0.169 HD
BRANCH  25  28
HETATM   28  C2  UNL     1      28.666   0.027  54.409  1.00  0.00     0.064 C 
HETATM   29  C1  UNL     1      29.617  -0.729  53.822  1.00  0.00     0.017 C 
ENDBRANCH  25  28
ENDBRANCH   1  24
TORSDOF 6
ENDMDL
MODEL 3
REMARK VINA RESULT:      -7.6      2.200      4.767
REMARK  6 active torsions:
REMARK  status: ('A' for Active; 'I' for Inactive)
REMARK    1  A    between atoms: C2_2  and  C3_3 
REMARK       I    between atoms: C3_3  and  N1_5 
REMARK    2  A    between atoms: N1_5  and  C4_6 
REMARK    3  A    between atoms: C9_13  and  N4_14 
REMARK    4  A    between atoms: N4_14  and  C10_15 
REMARK    5  A    between atoms: S1_18  and  C13_19 
REMARK    6  A    between atoms: C13_19  and  C14_20 
ROOT
HETATM    1  C4  UNL     1      24.186  -0.443  53.796  1.00  0.00     0.036 A 
HETATM    2  C5  UNL     1      24.936  -0.657  54.922  1.00  0.00     0.032 A 
HETATM    3  C6  UNL     1      26.174  -0.111  55.182  1.00  0.00     0.035 A 
HETATM    4  C7  UNL     1      26.706   0.726  54.224  1.00  0.00     0.072 A 
HETATM    5  N2  UNL     1      27.921   1.310  54.401  1.00  0.00    -0.241 NA
HETATM    6  C8  UNL     1      28.392   2.131  53.416  1.00  0.00     0.236 A 
HETATM    7  N3  UNL     1      27.675   2.357  52.304  1.00  0.00    -0.224 NA
HETATM    8  C9  UNL     1      26.485   1.824  52.062  1.00  0.00     0.142 A 
HETATM    9  C20 UNL     1      25.991   0.979  53.066  1.00  0.00     0.041 A 
HETATM   10  C21 UNL     1      24.758   0.401  52.868  1.00  0.00     0.047 A 
ENDROOT
BRANCH   8  11
HETATM   11  N4  UNL     1      25.803   2.125  50.852  1.00  0.00    -0.340 N 
HETATM   12  H8  UNL     1      25.591   1.556  50.033  1.00  0.00     0.167 HD
BRANCH  11  13
HETATM   13  C10 UNL     1      25.311   3.464  50.731  1.00  0.00     0.034 A 
HETATM   14  C11 UNL     1      24.248   3.786  51.474  1.00  0.00     0.036 A 
HETATM   15  C12 UNL     1      23.585   5.110  51.500  1.00  0.00     0.041 A 
HETATM   16  S1  UNL     1      24.266   6.209  50.516  1.00  0.00    -0.172 SA
HETATM   17  C18 UNL     1      25.688   5.617  49.586  1.00  0.00     0.041 A 
HETATM   18  C19 UNL     1      25.999   4.362  49.821  1.00  0.00     0.036 A 
BRANCH  16  19
HETATM   19  C13 UNL     1      23.598   7.869  50.415  1.00  0.00     0.080 C 
BRANCH  19  20
HETATM   20  C14 UNL     1      22.360   8.041  49.580  1.00  0.00    -0.043 C 
HETATM   21  C15 UNL     1      21.092   7.924  50.354  1.00  0.00     0.015 C 
HETATM   22  C16 UNL     1      22.428   9.396  48.887  1.00  0.00     0.015 C 
HETATM   23  C17 UNL     1      22.390   6.995  48.487  1.00  0.00     0.015 C 
ENDBRANCH  19  20
ENDBRANCH  16  19
ENDBRANCH  11  13
ENDBRANCH   8  11
BRANCH   1  24
HETATM   24  N1  UNL     1      22.911  -0.985  53.507  1.00  0.00    -0.324 N 
HETATM   25  C3  UNL     1      21.638  -0.739  54.079  1.00  0.00     0.244 C 
HETATM   26  O1  UNL     1      21.623   0.108  55.009  1.00  0.00    -0.268 OA
HETATM   27  H4  UNL     1      22.841  -1.708  52.737  1.00  0.00     0.169 HD
BRANCH  25  28
HETATM   28  C2  UNL     1      20.422  -1.427  53.620  1.00  0.00     0.064 C 
HETATM   29  C1  UNL     1      19.109  -1.157  53.461  1.00  0.00     0.017 C 
ENDBRANCH  25  28
ENDBRANCH   1  24
TORSDOF 6
ENDMDL
MODEL 4
REMARK VINA RESULT:      -7.5      5.702      9.106
REMARK  6 active torsions:
REMARK  status: ('A' for Active; 'I' for Inactive)
REMARK    1  A    between atoms: C2_2  and  C3_3 
REMARK       I    between atoms: C3_3  and  N1_5 
REMARK    2  A    between atoms: N1_5  and  C4_6 
REMARK    3  A    between atoms: C9_13  and  N4_14 
REMARK    4  A    between atoms: N4_14  and  C10_15 
REMARK    5  A    between atoms: S1_18  and  C13_19 
REMARK    6  A    between atoms: C13_19  and  C14_20 
ROOT
HETATM    1  C4  UNL     1      29.921   7.158  48.113  1.00  0.00     0.036 A 
HETATM    2  C5  UNL     1      30.329   8.326  48.701  1.00  0.00     0.032 A 
HETATM    3  C6  UNL     1      29.518   9.216  49.373  1.00  0.00     0.035 A 
HETATM    4  C7  UNL     1      28.178   8.902  49.463  1.00  0.00     0.072 A 
HETATM    5  N2  UNL     1      27.310   9.723  50.111  1.00  0.00    -0.241 NA
HETATM    6  C8  UNL     1      25.995   9.354  50.167  1.00  0.00     0.236 A 
HETATM    7  N3  UNL     1      25.572   8.215  49.599  1.00  0.00    -0.224 NA
HETATM    8  C9  UNL     1      26.360   7.367  48.951  1.00  0.00     0.142 A 
HETATM    9  C20 UNL     1      27.711   7.733  48.887  1.00  0.00     0.041 A 
HETATM   10  C21 UNL     1      28.575   6.888  48.229  1.00  0.00     0.047 A 
ENDROOT
BRANCH   8  11
HETATM   11  N4  UNL     1      25.816   6.183  48.382  1.00  0.00    -0.340 N 
HETATM   12  H8  UNL     1      25.553   5.949  47.425  1.00  0.00     0.167 HD
BRANCH  11  13
HETATM   13  C10 UNL     1      25.585   5.104  49.294  1.00  0.00     0.034 A 
HETATM   14  C11 UNL     1      24.477   5.167  50.038  1.00  0.00     0.036 A 
HETATM   15  C12 UNL     1      24.052   4.160  51.036  1.00  0.00     0.041 A 
HETATM   16  S1  UNL     1      25.072   2.903  51.181  1.00  0.00    -0.172 SA
HETATM   17  C18 UNL     1      26.514   2.968  50.110  1.00  0.00     0.041 A 
HETATM   18  C19 UNL     1      26.564   4.031  49.339  1.00  0.00     0.036 A 
BRANCH  16  19
HETATM   19  C13 UNL     1      24.720   1.584  52.343  1.00  0.00     0.080 C 
BRANCH  19  20
HETATM   20  C14 UNL     1      25.910   0.892  52.947  1.00  0.00    -0.043 C 
HETATM   21  C15 UNL     1      26.672   0.052  51.980  1.00  0.00     0.015 C 
HETATM   22  C16 UNL     1      26.824   1.945  53.558  1.00  0.00     0.015 C 
HETATM   23  C17 UNL     1      25.416   0.033  54.090  1.00  0.00     0.015 C 
ENDBRANCH  19  20
ENDBRANCH  16  19
ENDBRANCH  11  13
ENDBRANCH   8  11
BRANCH   1  24
HETATM   24  N1  UNL     1      30.732   6.226  47.422  1.00  0.00    -0.324 N 
HETATM   25  C3  UNL     1      31.547   5.167  47.893  1.00  0.00     0.244 C 
HETATM   26  O1  UNL     1      31.565   5.018  49.141  1.00  0.00    -0.268 OA
HETATM   27  H4  UNL     1      30.773   6.289  46.367  1.00  0.00     0.169 HD
BRANCH  25  28
HETATM   28  C2  UNL     1      32.321   4.306  46.985  1.00  0.00     0.064 C 
HETATM   29  C1  UNL     1      32.242   3.066  46.459  1.00  0.00     0.017 C 
ENDBRANCH  25  28
ENDBRANCH   1  24
TORSDOF 6
ENDMDL
MODEL 5
REMARK VINA RESULT:      -7.5      4.738      6.403
REMARK  6 active torsions:
REMARK  status: ('A' for Active; 'I' for Inactive)
REMARK    1  A    between atoms: C2_2  and  C3_3 
REMARK       I    between atoms: C3_3  and  N1_5 
REMARK    2  A    between atoms: N1_5  and  C4_6 
REMARK    3  A    between atoms: C9_13  and  N4_14 
REMARK    4  A    between atoms: N4_14  and  C10_15 
REMARK    5  A    between atoms: S1_18  and  C13_19 
REMARK    6  A    between atoms: C13_19  and  C14_20 
ROOT
HETATM    1  C4  UNL     1      26.351   2.046  52.397  1.00  0.00     0.036 A 
HETATM    2  C5  UNL     1      25.123   2.237  52.972  1.00  0.00     0.032 A 
HETATM    3  C6  UNL     1      24.130   3.066  52.497  1.00  0.00     0.035 A 
HETATM    4  C7  UNL     1      24.397   3.765  51.338  1.00  0.00     0.072 A 
HETATM    5  N2  UNL     1      23.471   4.603  50.799  1.00  0.00    -0.241 NA
HETATM    6  C8  UNL     1      23.795   5.265  49.648  1.00  0.00     0.236 A 
HETATM    7  N3  UNL     1      24.992   5.094  49.065  1.00  0.00    -0.224 NA
HETATM    8  C9  UNL     1      25.941   4.296  49.533  1.00  0.00     0.142 A 
HETATM    9  C20 UNL     1      25.622   3.610  50.713  1.00  0.00     0.041 A 
HETATM   10  C21 UNL     1      26.571   2.765  51.242  1.00  0.00     0.047 A 
ENDROOT
BRANCH   8  11
HETATM   11  N4  UNL     1      27.179   4.182  48.843  1.00  0.00    -0.340 N 
HETATM   12  H8  UNL     1      27.715   3.368  48.542  1.00  0.00     0.167 HD
BRANCH  11  13
HETATM   13  C10 UNL     1      27.811   5.417  48.490  1.00  0.00     0.034 A 
HETATM   14  C11 UNL     1      27.040   6.508  48.476  1.00  0.00     0.036 A 
HETATM   15  C12 UNL     1      27.492   7.878  48.142  1.00  0.00     0.041 A 
HETATM   16  S1  UNL     1      29.071   7.979  47.772  1.00  0.00    -0.172 SA
HETATM   17  C18 UNL     1      29.968   6.422  47.837  1.00  0.00     0.041 A 
HETATM   18  C19 UNL     1      29.229   5.390  48.179  1.00  0.00     0.036 A 
BRANCH  16  19
HETATM   19  C13 UNL     1      29.798   9.560  47.340  1.00  0.00     0.080 C 
BRANCH  19  20
HETATM   20  C14 UNL     1      30.141  10.472  48.485  1.00  0.00    -0.043 C 
HETATM   21  C15 UNL     1      31.231  11.440  48.175  1.00  0.00     0.015 C 
HETATM   22  C16 UNL     1      28.881  11.218  48.904  1.00  0.00     0.015 C 
HETATM   23  C17 UNL     1      30.543   9.609  49.660  1.00  0.00     0.015 C 
ENDBRANCH  19  20
ENDBRANCH  16  19
ENDBRANCH  11  13
ENDBRANCH   8  11
BRANCH   1  24
HETATM   24  N1  UNL     1      27.385   1.198  52.860  1.00  0.00    -0.324 N 
HETATM   25  C3  UNL     1      28.505   1.455  53.689  1.00  0.00     0.244 C 
HETATM   26  O1  UNL     1      28.614   2.642  54.090  1.00  0.00    -0.268 OA
HETATM   27  H4  UNL     1      27.365   0.182  52.563  1.00  0.00     0.169 HD
BRANCH  25  28
HETATM   28  C2  UNL     1      29.473   0.408  54.051  1.00  0.00     0.064 C 
HETATM   29  C1  UNL     1      29.923  -0.765  53.558  1.00  0.00     0.017 C 
ENDBRANCH  25  28
ENDBRANCH   1  24
TORSDOF 6
ENDMDL
MODEL 6
REMARK VINA RESULT:      -7.4      2.228      3.310
REMARK  6 active torsions:
REMARK  status: ('A' for Active; 'I' for Inactive)
REMARK    1  A    between atoms: C2_2  and  C3_3 
REMARK       I    between atoms: C3_3  and  N1_5 
REMARK    2  A    between atoms: N1_5  and  C4_6 
REMARK    3  A    between atoms: C9_13  and  N4_14 
REMARK    4  A    between atoms: N4_14  and  C10_15 
REMARK    5  A    between atoms: S1_18  and  C13_19 
REMARK    6  A    between atoms: C13_19  and  C14_20 
ROOT
HETATM    1  C4  UNL     1      25.112   0.451  53.055  1.00  0.00     0.036 A 
HETATM    2  C5  UNL     1      24.080  -0.426  53.255  1.00  0.00     0.032 A 
HETATM    3  C6  UNL     1      22.737  -0.116  53.206  1.00  0.00     0.035 A 
HETATM    4  C7  UNL     1      22.405   1.194  52.929  1.00  0.00     0.072 A 
HETATM    5  N2  UNL     1      21.104   1.585  52.858  1.00  0.00    -0.241 NA
HETATM    6  C8  UNL     1      20.840   2.896  52.577  1.00  0.00     0.236 A 
HETATM    7  N3  UNL     1      21.835   3.773  52.377  1.00  0.00    -0.224 NA
HETATM    8  C9  UNL     1      23.123   3.465  52.430  1.00  0.00     0.142 A 
HETATM    9  C20 UNL     1      23.408   2.123  52.717  1.00  0.00     0.041 A 
HETATM   10  C21 UNL     1      24.730   1.747  52.782  1.00  0.00     0.047 A 
ENDROOT
BRANCH   8  11
HETATM   11  N4  UNL     1      24.105   4.468  52.203  1.00  0.00    -0.340 N 
HETATM   12  H8  UNL     1      24.920   4.755  52.744  1.00  0.00     0.167 HD
BRANCH  11  13
HETATM   13  C10 UNL     1      23.948   5.231  51.002  1.00  0.00     0.034 A 
HETATM   14  C11 UNL     1      23.990   4.558  49.848  1.00  0.00     0.036 A 
HETATM   15  C12 UNL     1      23.849   5.151  48.499  1.00  0.00     0.041 A 
HETATM   16  S1  UNL     1      23.629   6.762  48.507  1.00  0.00    -0.172 SA
HETATM   17  C18 UNL     1      23.597   7.516  50.139  1.00  0.00     0.041 A 
HETATM   18  C19 UNL     1      23.756   6.665  51.127  1.00  0.00     0.036 A 
BRANCH  16  19
HETATM   19  C13 UNL     1      23.438   7.654  46.964  1.00  0.00     0.080 C 
BRANCH  19  20
HETATM   20  C14 UNL     1      24.643   8.410  46.477  1.00  0.00    -0.043 C 
HETATM   21  C15 UNL     1      24.841   8.340  45.002  1.00  0.00     0.015 C 
HETATM   22  C16 UNL     1      24.514   9.862  46.920  1.00  0.00     0.015 C 
HETATM   23  C17 UNL     1      25.858   7.850  47.183  1.00  0.00     0.015 C 
ENDBRANCH  19  20
ENDBRANCH  16  19
ENDBRANCH  11  13
ENDBRANCH   8  11
BRANCH   1  24
HETATM   24  N1  UNL     1      26.496   0.158  53.095  1.00  0.00    -0.324 N 
HETATM   25  C3  UNL     1      27.348  -0.193  54.172  1.00  0.00     0.244 C 
HETATM   26  O1  UNL     1      26.789  -0.259  55.297  1.00  0.00    -0.268 OA
HETATM   27  H4  UNL     1      27.039   0.196  52.187  1.00  0.00     0.169 HD
BRANCH  25  28
HETATM   28  C2  UNL     1      28.783  -0.458  53.987  1.00  0.00     0.064 C 
HETATM   29  C1  UNL     1      29.571  -1.414  53.452  1.00  0.00     0.017 C 
ENDBRANCH  25  28
ENDBRANCH   1  24
TORSDOF 6
ENDMDL
MODEL 7
REMARK VINA RESULT:      -7.4      2.805      3.638
REMARK  6 active torsions:
REMARK  status: ('A' for Active; 'I' for Inactive)
REMARK    1  A    between atoms: C2_2  and  C3_3 
REMARK       I    between atoms: C3_3  and  N1_5 
REMARK    2  A    between atoms: N1_5  and  C4_6 
REMARK    3  A    between atoms: C9_13  and  N4_14 
REMARK    4  A    between atoms: N4_14  and  C10_15 
REMARK    5  A    between atoms: S1_18  and  C13_19 
REMARK    6  A    between atoms: C13_19  and  C14_20 
ROOT
HETATM    1  C4  UNL     1      24.905   0.154  53.157  1.00  0.00     0.036 A 
HETATM    2  C5  UNL     1      24.056  -0.616  53.908  1.00  0.00     0.032 A 
HETATM    3  C6  UNL     1      22.701  -0.412  54.056  1.00  0.00     0.035 A 
HETATM    4  C7  UNL     1      22.150   0.661  53.387  1.00  0.00     0.072 A 
HETATM    5  N2  UNL     1      20.821   0.933  53.475  1.00  0.00    -0.241 NA
HETATM    6  C8  UNL     1      20.335   2.009  52.787  1.00  0.00     0.236 A 
HETATM    7  N3  UNL     1      21.147   2.777  52.045  1.00  0.00    -0.224 NA
HETATM    8  C9  UNL     1      22.451   2.574  51.912  1.00  0.00     0.142 A 
HETATM    9  C20 UNL     1      22.961   1.473  52.613  1.00  0.00     0.041 A 
HETATM   10  C21 UNL     1      24.309   1.214  52.509  1.00  0.00     0.047 A 
ENDROOT
BRANCH   8  11
HETATM   11  N4  UNL     1      23.228   3.446  51.101  1.00  0.00    -0.340 N 
HETATM   12  H8  UNL     1      24.030   4.038  51.317  1.00  0.00     0.167 HD
BRANCH  11  13
HETATM   13  C10 UNL     1      22.839   3.528  49.726  1.00  0.00     0.034 A 
HETATM   14  C11 UNL     1      22.637   4.750  49.226  1.00  0.00     0.036 A 
HETATM   15  C12 UNL     1      22.234   5.056  47.835  1.00  0.00     0.041 A 
HETATM   16  S1  UNL     1      22.040   3.741  46.900  1.00  0.00    -0.172 SA
HETATM   17  C18 UNL     1      22.350   2.172  47.722  1.00  0.00     0.041 A 
HETATM   18  C19 UNL     1      22.697   2.287  48.985  1.00  0.00     0.036 A 
BRANCH  16  19
HETATM   19  C13 UNL     1      21.553   3.917  45.184  1.00  0.00     0.080 C 
BRANCH  19  20
HETATM   20  C14 UNL     1      20.102   4.215  44.929  1.00  0.00    -0.043 C 
HETATM   21  C15 UNL     1      19.786   5.671  44.886  1.00  0.00     0.015 C 
HETATM   22  C16 UNL     1      19.694   3.552  43.620  1.00  0.00     0.015 C 
HETATM   23  C17 UNL     1      19.294   3.550  46.021  1.00  0.00     0.015 C 
ENDBRANCH  19  20
ENDBRANCH  16  19
ENDBRANCH  11  13
ENDBRANCH   8  11
BRANCH   1  24
HETATM   24  N1  UNL     1      26.297  -0.036  52.985  1.00  0.00    -0.324 N 
HETATM   25  C3  UNL     1      27.394   0.270  53.827  1.00  0.00     0.244 C 
HETATM   26  O1  UNL     1      27.094   0.806  54.924  1.00  0.00    -0.268 OA
HETATM   27  H4  UNL     1      26.630  -0.481  52.084  1.00  0.00     0.169 HD
BRANCH  25  28
HETATM   28  C2  UNL     1      28.785  -0.016  53.444  1.00  0.00     0.064 C 
HETATM   29  C1  UNL     1      29.787  -0.838  53.821  1.00  0.00     0.017 C 
ENDBRANCH  25  28
ENDBRANCH   1  24
TORSDOF 6
ENDMDL
MODEL 8
REMARK VINA RESULT:      -7.1      2.903      5.474
REMARK  6 active torsions:
REMARK  status: ('A' for Active; 'I' for Inactive)
REMARK    1  A    between atoms: C2_2  and  C3_3 
REMARK       I    between atoms: C3_3  and  N1_5 
REMARK    2  A    between atoms: N1_5  and  C4_6 
REMARK    3  A    between atoms: C9_13  and  N4_14 
REMARK    4  A    between atoms: N4_14  and  C10_15 
REMARK    5  A    between atoms: S1_18  and  C13_19 
REMARK    6  A    between atoms: C13_19  and  C14_20 
ROOT
HETATM    1  C4  UNL     1      20.499  -0.481  53.316  1.00  0.00     0.036 A 
HETATM    2  C5  UNL     1      21.055  -1.161  54.367  1.00  0.00     0.032 A 
HETATM    3  C6  UNL     1      22.395  -1.193  54.689  1.00  0.00     0.035 A 
HETATM    4  C7  UNL     1      23.252  -0.474  53.883  1.00  0.00     0.072 A 
HETATM    5  N2  UNL     1      24.589  -0.448  54.131  1.00  0.00    -0.241 NA
HETATM    6  C8  UNL     1      25.385   0.285  53.297  1.00  0.00     0.236 A 
HETATM    7  N3  UNL     1      24.864   0.961  52.261  1.00  0.00    -0.224 NA
HETATM    8  C9  UNL     1      23.573   0.982  51.958  1.00  0.00     0.142 A 
HETATM    9  C20 UNL     1      22.745   0.234  52.807  1.00  0.00     0.041 A 
HETATM   10  C21 UNL     1      21.395   0.222  52.540  1.00  0.00     0.047 A 
ENDROOT
BRANCH   8  11
HETATM   11  N4  UNL     1      23.117   1.729  50.838  1.00  0.00    -0.340 N 
HETATM   12  H8  UNL     1      22.414   1.526  50.127  1.00  0.00     0.167 HD
BRANCH  11  13
HETATM   13  C10 UNL     1      23.736   3.006  50.648  1.00  0.00     0.034 A 
HETATM   14  C11 UNL     1      23.240   4.029  51.350  1.00  0.00     0.036 A 
HETATM   15  C12 UNL     1      23.732   5.425  51.303  1.00  0.00     0.041 A 
HETATM   16  S1  UNL     1      24.982   5.649  50.289  1.00  0.00    -0.172 SA
HETATM   17  C18 UNL     1      25.531   4.173  49.421  1.00  0.00     0.041 A 
HETATM   18  C19 UNL     1      24.848   3.090  49.717  1.00  0.00     0.036 A 
BRANCH  16  19
HETATM   19  C13 UNL     1      25.711   7.276  50.100  1.00  0.00     0.080 C 
BRANCH  19  20
HETATM   20  C14 UNL     1      25.663   7.873  48.722  1.00  0.00    -0.043 C 
HETATM   21  C15 UNL     1      25.697   9.363  48.711  1.00  0.00     0.015 C 
HETATM   22  C16 UNL     1      26.827   7.318  47.913  1.00  0.00     0.015 C 
HETATM   23  C17 UNL     1      24.399   7.387  48.050  1.00  0.00     0.015 C 
ENDBRANCH  19  20
ENDBRANCH  16  19
ENDBRANCH  11  13
ENDBRANCH   8  11
BRANCH   1  24
HETATM   24  N1  UNL     1      19.129  -0.428  52.967  1.00  0.00    -0.324 N 
HETATM   25  C3  UNL     1      18.076  -1.355  53.168  1.00  0.00     0.244 C 
HETATM   26  O1  UNL     1      18.402  -2.417  53.757  1.00  0.00    -0.268 OA
HETATM   27  H4  UNL     1      18.777   0.435  52.465  1.00  0.00     0.169 HD
BRANCH  25  28
HETATM   28  C2  UNL     1      16.701  -1.094  52.715  1.00  0.00     0.064 C 
HETATM   29  C1  UNL     1      16.026  -0.979  51.552  1.00  0.00     0.017 C 
ENDBRANCH  25  28
ENDBRANCH   1  24
TORSDOF 6
ENDMDL
MODEL 9
REMARK VINA RESULT:      -7.1      8.057     11.762
REMARK  6 active torsions:
REMARK  status: ('A' for Active; 'I' for Inactive)
REMARK    1  A    between atoms: C2_2  and  C3_3 
REMARK       I    between atoms: C3_3  and  N1_5 
REMARK    2  A    between atoms: N1_5  and  C4_6 
REMARK    3  A    between atoms: C9_13  and  N4_14 
REMARK    4  A    between atoms: N4_14  and  C10_15 
REMARK    5  A    between atoms: S1_18  and  C13_19 
REMARK    6  A    between atoms: C13_19  and  C14_20 
ROOT
HETATM    1  C4  UNL     1      26.939   7.307  48.441  1.00  0.00     0.036 A 
HETATM    2  C5  UNL     1      26.208   7.995  47.510  1.00  0.00     0.032 A 
HETATM    3  C6  UNL     1      26.550   9.208  46.951  1.00  0.00     0.035 A 
HETATM    4  C7  UNL     1      27.736   9.778  47.366  1.00  0.00     0.072 A 
HETATM    5  N2  UNL     1      28.151  10.971  46.863  1.00  0.00    -0.241 NA
HETATM    6  C8  UNL     1      29.336  11.482  47.313  1.00  0.00     0.236 A 
HETATM    7  N3  UNL     1      30.070  10.826  48.224  1.00  0.00    -0.224 NA
HETATM    8  C9  UNL     1      29.729   9.661  48.758  1.00  0.00     0.142 A 
HETATM    9  C20 UNL     1      28.516   9.125  48.305  1.00  0.00     0.041 A 
HETATM   10  C21 UNL     1      28.114   7.916  48.824  1.00  0.00     0.047 A 
ENDROOT
BRANCH   8  11
HETATM   11  N4  UNL     1      30.576   9.044  49.718  1.00  0.00    -0.340 N 
HETATM   12  H8  UNL     1      30.630   9.134  50.733  1.00  0.00     0.167 HD
BRANCH  11  13
HETATM   13  C10 UNL     1      31.538   8.120  49.198  1.00  0.00     0.034 A 
HETATM   14  C11 UNL     1      31.490   6.869  49.666  1.00  0.00     0.036 A 
HETATM   15  C12 UNL     1      32.388   5.763  49.262  1.00  0.00     0.041 A 
HETATM   16  S1  UNL     1      33.497   6.186  48.152  1.00  0.00    -0.172 SA
HETATM   17  C18 UNL     1      33.427   7.904  47.625  1.00  0.00     0.041 A 
HETATM   18  C19 UNL     1      32.482   8.607  48.208  1.00  0.00     0.036 A 
BRANCH  16  19
HETATM   19  C13 UNL     1      34.671   4.977  47.543  1.00  0.00     0.080 C 
BRANCH  19  20
HETATM   20  C14 UNL     1      34.149   3.986  46.540  1.00  0.00    -0.043 C 
HETATM   21  C15 UNL     1      35.178   3.511  45.573  1.00  0.00     0.015 C 
HETATM   22  C16 UNL     1      33.553   2.803  47.293  1.00  0.00     0.015 C 
HETATM   23  C17 UNL     1      33.009   4.640  45.792  1.00  0.00     0.015 C 
ENDBRANCH  19  20
ENDBRANCH  16  19
ENDBRANCH  11  13
ENDBRANCH   8  11
BRANCH   1  24
HETATM   24  N1  UNL     1      26.612   6.060  49.026  1.00  0.00    -0.324 N 
HETATM   25  C3  UNL     1      27.275   4.808  48.990  1.00  0.00     0.244 C 
HETATM   26  O1  UNL     1      28.343   4.785  48.325  1.00  0.00    -0.268 OA
HETATM   27  H4  UNL     1      25.726   5.997  49.600  1.00  0.00     0.169 HD
BRANCH  25  28
HETATM   28  C2  UNL     1      26.751   3.619  49.679  1.00  0.00     0.064 C 
HETATM   29  C1  UNL     1      25.688   3.280  50.439  1.00  0.00     0.017 C 
ENDBRANCH  25  28
ENDBRANCH   1  24
TORSDOF 6
ENDMDL
