MODEL 1
REMARK VINA RESULT:      -7.5      0.000      0.000
REMARK  6 active torsions:
REMARK  status: ('A' for Active; 'I' for Inactive)
REMARK    1  A    between atoms: C2_2  and  C3_3 
REMARK       I    between atoms: C3_3  and  N1_5 
REMARK    2  A    between atoms: C5_7  and  C6_8 
REMARK    3  A    between atoms: C6_8  and  C7_9 
REMARK    4  A    between atoms: C8_11  and  N3_12 
REMARK    5  A    between atoms: N3_12  and  C9_13 
REMARK    6  A    between atoms: C14_21  and  O2_22 
ROOT
HETATM    1  C7  UNL     1      26.517   4.127  49.545  1.00  0.00     0.052 A 
HETATM    2  N2  UNL     1      27.630   4.323  48.913  1.00  0.00    -0.070 NA
HETATM    3  C8  UNL     1      27.786   5.657  48.485  1.00  0.00     0.722 A 
HETATM    4  N6  UNL     1      26.768   6.342  48.838  1.00  0.00    -0.100 NA
HETATM    5  C13 UNL     1      25.864   5.453  49.541  1.00  0.00     0.224 A 
ENDROOT
BRANCH   1   6
HETATM    6  C6  UNL     1      26.283   2.745  50.027  1.00  0.00     0.066 C 
BRANCH   6   7
HETATM    7  C5  UNL     1      26.613   2.503  51.455  1.00  0.00     0.040 C 
HETATM    8  C4  UNL     1      26.980   1.015  51.609  1.00  0.00     0.133 C 
HETATM    9  N1  UNL     1      26.869   0.904  53.077  1.00  0.00    -0.346 N 
HETATM   10  C3  UNL     1      27.569  -0.053  53.883  1.00  0.00     0.239 C 
HETATM   11  C16 UNL     1      25.944   1.906  53.592  1.00  0.00     0.158 C 
HETATM   12  O1  UNL     1      27.465  -0.137  55.139  1.00  0.00    -0.269 OA
HETATM   13  C14 UNL     1      25.333   2.476  52.301  1.00  0.00     0.144 C 
BRANCH  10  14
HETATM   14  C2  UNL     1      28.467  -1.006  53.264  1.00  0.00     0.048 C 
HETATM   15  C1  UNL     1      29.733  -0.791  53.570  1.00  0.00     0.037 C 
ENDBRANCH  10  14
BRANCH  13  16
HETATM   16  O2  UNL     1      24.473   1.574  51.738  1.00  0.00    -0.389 OA
HETATM   17  C15 UNL     1      23.294   1.341  52.382  1.00  0.00     0.202 C 
ENDBRANCH  13  16
ENDBRANCH   6   7
ENDBRANCH   1   6
BRANCH   3  18
HETATM   18  N3  UNL     1      28.901   6.186  47.766  1.00  0.00    -0.186 N 
HETATM   19  H9  UNL     1      28.752   6.859  46.982  1.00  0.00     0.184 HD
BRANCH  18  20
HETATM   20  C9  UNL     1      30.223   5.797  48.115  1.00  0.00     0.085 A 
HETATM   21  C10 UNL     1      31.017   6.329  49.103  1.00  0.00     0.170 A 
HETATM   22  N4  UNL     1      32.192   5.640  49.064  1.00  0.00    -0.183 NA
HETATM   23  N5  UNL     1      32.173   4.728  48.122  1.00  0.00    -0.283 N 
HETATM   24  C11 UNL     1      33.247   3.800  47.780  1.00  0.00     0.179 C 
HETATM   25  C12 UNL     1      30.967   4.805  47.521  1.00  0.00     0.143 A 
ENDBRANCH  18  20
ENDBRANCH   3  18
TORSDOF 6
ENDMDL
MODEL 2
REMARK VINA RESULT:      -7.4      1.350      2.020
REMARK  6 active torsions:
REMARK  status: ('A' for Active; 'I' for Inactive)
REMARK    1  A    between atoms: C2_2  and  C3_3 
REMARK       I    between atoms: C3_3  and  N1_5 
REMARK    2  A    between atoms: C5_7  and  C6_8 
REMARK    3  A    between atoms: C6_8  and  C7_9 
REMARK    4  A    between atoms: C8_11  and  N3_12 
REMARK    5  A    between atoms: N3_12  and  C9_13 
REMARK    6  A    between atoms: C14_21  and  O2_22 
ROOT
HETATM    1  C7  UNL     1      26.413   4.058  49.644  1.00  0.00     0.052 A 
HETATM    2  N2  UNL     1      27.523   4.222  48.998  1.00  0.00    -0.070 NA
HETATM    3  C8  UNL     1      27.698   5.544  48.540  1.00  0.00     0.722 A 
HETATM    4  N6  UNL     1      26.696   6.253  48.889  1.00  0.00    -0.100 NA
HETATM    5  C13 UNL     1      25.784   5.395  49.619  1.00  0.00     0.224 A 
ENDROOT
BRANCH   1   6
HETATM    6  C6  UNL     1      26.160   2.691  50.158  1.00  0.00     0.066 C 
BRANCH   6   7
HETATM    7  C5  UNL     1      26.566   2.453  51.567  1.00  0.00     0.040 C 
HETATM    8  C4  UNL     1      26.967   0.972  51.698  1.00  0.00     0.133 C 
HETATM    9  N1  UNL     1      26.932   0.857  53.170  1.00  0.00    -0.346 N 
HETATM   10  C3  UNL     1      27.689  -0.088  53.938  1.00  0.00     0.239 C 
HETATM   11  C16 UNL     1      26.016   1.841  53.733  1.00  0.00     0.158 C 
HETATM   12  O1  UNL     1      27.649  -0.175  55.198  1.00  0.00    -0.269 OA
HETATM   13  C14 UNL     1      25.331   2.402  52.475  1.00  0.00     0.144 C 
BRANCH  10  14
HETATM   14  C2  UNL     1      28.572  -1.023  53.272  1.00  0.00     0.048 C 
HETATM   15  C1  UNL     1      29.848  -0.779  53.507  1.00  0.00     0.037 C 
ENDBRANCH  10  14
BRANCH  13  16
HETATM   16  O2  UNL     1      24.460   1.485  51.953  1.00  0.00    -0.389 OA
HETATM   17  C15 UNL     1      23.302   1.256  52.636  1.00  0.00     0.202 C 
ENDBRANCH  13  16
ENDBRANCH   6   7
ENDBRANCH   1   6
BRANCH   3  18
HETATM   18  N3  UNL     1      28.814   6.038  47.799  1.00  0.00    -0.186 N 
HETATM   19  H9  UNL     1      28.993   5.702  46.827  1.00  0.00     0.184 HD
BRANCH  18  20
HETATM   20  C9  UNL     1      29.692   6.993  48.384  1.00  0.00     0.085 A 
HETATM   21  C10 UNL     1      30.932   6.762  48.930  1.00  0.00     0.170 A 
HETATM   22  N4  UNL     1      31.391   7.971  49.361  1.00  0.00    -0.183 NA
HETATM   23  N5  UNL     1      30.520   8.920  49.119  1.00  0.00    -0.283 N 
HETATM   24  C11 UNL     1      30.660  10.338  49.437  1.00  0.00     0.179 C 
HETATM   25  C12 UNL     1      29.461   8.341  48.516  1.00  0.00     0.143 A 
ENDBRANCH  18  20
ENDBRANCH   3  18
TORSDOF 6
ENDMDL
MODEL 3
REMARK VINA RESULT:      -6.9      2.549      3.497
REMARK  6 active torsions:
REMARK  status: ('A' for Active; 'I' for Inactive)
REMARK    1  A    between atoms: C2_2  and  C3_3 
REMARK       I    between atoms: C3_3  and  N1_5 
REMARK    2  A    between atoms: C5_7  and  C6_8 
REMARK    3  A    between atoms: C6_8  and  C7_9 
REMARK    4  A    between atoms: C8_11  and  N3_12 
REMARK    5  A    between atoms: N3_12  and  C9_13 
REMARK    6  A    between atoms: C14_21  and  O2_22 
ROOT
HETATM    1  C7  UNL     1      25.881   3.864  49.645  1.00  0.00     0.052 A 
HETATM    2  N2  UNL     1      26.967   4.557  49.507  1.00  0.00    -0.070 NA
HETATM    3  C8  UNL     1      26.722   5.876  49.075  1.00  0.00     0.722 A 
HETATM    4  N6  UNL     1      25.466   6.052  48.929  1.00  0.00    -0.100 NA
HETATM    5  C13 UNL     1      24.806   4.807  49.272  1.00  0.00     0.224 A 
ENDROOT
BRANCH   1   6
HETATM    6  C6  UNL     1      26.060   2.465  50.098  1.00  0.00     0.066 C 
BRANCH   6   7
HETATM    7  C5  UNL     1      26.529   2.302  51.499  1.00  0.00     0.040 C 
HETATM    8  C4  UNL     1      26.919   0.826  51.697  1.00  0.00     0.133 C 
HETATM    9  N1  UNL     1      26.951   0.796  53.173  1.00  0.00    -0.346 N 
HETATM   10  C3  UNL     1      27.733  -0.114  53.958  1.00  0.00     0.239 C 
HETATM   11  C16 UNL     1      26.073   1.823  53.720  1.00  0.00     0.158 C 
HETATM   12  O1  UNL     1      27.751  -0.129  55.222  1.00  0.00    -0.269 OA
HETATM   13  C14 UNL     1      25.337   2.320  52.464  1.00  0.00     0.144 C 
BRANCH  10  14
HETATM   14  C2  UNL     1      28.573  -1.098  53.308  1.00  0.00     0.048 C 
HETATM   15  C1  UNL     1      29.861  -0.876  53.495  1.00  0.00     0.037 C 
ENDBRANCH  10  14
BRANCH  13  16
HETATM   16  O2  UNL     1      24.432   1.387  52.037  1.00  0.00    -0.389 OA
HETATM   17  C15 UNL     1      23.168   1.458  52.542  1.00  0.00     0.202 C 
ENDBRANCH  13  16
ENDBRANCH   6   7
ENDBRANCH   1   6
BRANCH   3  18
HETATM   18  N3  UNL     1      27.708   6.880  48.832  1.00  0.00    -0.186 N 
HETATM   19  H9  UNL     1      28.668   6.612  48.523  1.00  0.00     0.184 HD
BRANCH  18  20
HETATM   20  C9  UNL     1      27.387   8.253  49.011  1.00  0.00     0.085 A 
HETATM   21  C10 UNL     1      27.072   8.891  50.188  1.00  0.00     0.170 A 
HETATM   22  N4  UNL     1      26.841  10.195  49.867  1.00  0.00    -0.183 NA
HETATM   23  N5  UNL     1      26.990  10.398  48.580  1.00  0.00    -0.283 N 
HETATM   24  C11 UNL     1      26.825  11.662  47.869  1.00  0.00     0.179 C 
HETATM   25  C12 UNL     1      27.327   9.213  48.029  1.00  0.00     0.143 A 
ENDBRANCH  18  20
ENDBRANCH   3  18
TORSDOF 6
ENDMDL
MODEL 4
REMARK VINA RESULT:      -6.7      5.033      7.869
REMARK  6 active torsions:
REMARK  status: ('A' for Active; 'I' for Inactive)
REMARK    1  A    between atoms: C2_2  and  C3_3 
REMARK       I    between atoms: C3_3  and  N1_5 
REMARK    2  A    between atoms: C5_7  and  C6_8 
REMARK    3  A    between atoms: C6_8  and  C7_9 
REMARK    4  A    between atoms: C8_11  and  N3_12 
REMARK    5  A    between atoms: N3_12  and  C9_13 
REMARK    6  A    between atoms: C14_21  and  O2_22 
ROOT
HETATM    1  C7  UNL     1      21.875  -0.129  53.637  1.00  0.00     0.052 A 
HETATM    2  N2  UNL     1      23.169  -0.135  53.677  1.00  0.00    -0.070 NA
HETATM    3  C8  UNL     1      23.680  -0.931  54.722  1.00  0.00     0.722 A 
HETATM    4  N6  UNL     1      22.714  -1.452  55.374  1.00  0.00    -0.100 NA
HETATM    5  C13 UNL     1      21.479  -1.004  54.761  1.00  0.00     0.224 A 
ENDROOT
BRANCH   1   6
HETATM    6  C6  UNL     1      21.265   0.687  52.561  1.00  0.00     0.066 C 
BRANCH   6   7
HETATM    7  C5  UNL     1      22.217   1.259  51.576  1.00  0.00     0.040 C 
HETATM    8  C4  UNL     1      22.239   2.786  51.773  1.00  0.00     0.133 C 
HETATM    9  N1  UNL     1      22.882   3.171  50.501  1.00  0.00    -0.346 N 
HETATM   10  C3  UNL     1      23.644   4.368  50.296  1.00  0.00     0.239 C 
HETATM   11  C16 UNL     1      22.632   2.160  49.481  1.00  0.00     0.158 C 
HETATM   12  O1  UNL     1      24.189   4.685  49.201  1.00  0.00    -0.269 OA
HETATM   13  C14 UNL     1      21.599   1.253  50.171  1.00  0.00     0.144 C 
BRANCH  10  14
HETATM   14  C2  UNL     1      23.830   5.307  51.383  1.00  0.00     0.048 C 
HETATM   15  C1  UNL     1      23.617   6.559  51.022  1.00  0.00     0.037 C 
ENDBRANCH  10  14
BRANCH  13  16
HETATM   16  O2  UNL     1      20.384   1.877  50.242  1.00  0.00    -0.389 OA
HETATM   17  C15 UNL     1      19.714   2.085  49.073  1.00  0.00     0.202 C 
ENDBRANCH  13  16
ENDBRANCH   6   7
ENDBRANCH   1   6
BRANCH   3  18
HETATM   18  N3  UNL     1      25.060  -1.138  55.026  1.00  0.00    -0.186 N 
HETATM   19  H9  UNL     1      25.339  -1.774  55.805  1.00  0.00     0.184 HD
BRANCH  18  20
HETATM   20  C9  UNL     1      26.064  -0.476  54.267  1.00  0.00     0.085 A 
HETATM   21  C10 UNL     1      26.691  -0.935  53.134  1.00  0.00     0.170 A 
HETATM   22  N4  UNL     1      27.573   0.036  52.763  1.00  0.00    -0.183 NA
HETATM   23  N5  UNL     1      27.528   1.053  53.590  1.00  0.00    -0.283 N 
HETATM   24  C11 UNL     1      28.324   2.275  53.518  1.00  0.00     0.179 C 
HETATM   25  C12 UNL     1      26.604   0.760  54.528  1.00  0.00     0.143 A 
ENDBRANCH  18  20
ENDBRANCH   3  18
TORSDOF 6
ENDMDL
MODEL 5
REMARK VINA RESULT:      -6.6      2.176      3.397
REMARK  6 active torsions:
REMARK  status: ('A' for Active; 'I' for Inactive)
REMARK    1  A    between atoms: C2_2  and  C3_3 
REMARK       I    between atoms: C3_3  and  N1_5 
REMARK    2  A    between atoms: C5_7  and  C6_8 
REMARK    3  A    between atoms: C6_8  and  C7_9 
REMARK    4  A    between atoms: C8_11  and  N3_12 
REMARK    5  A    between atoms: N3_12  and  C9_13 
REMARK    6  A    between atoms: C14_21  and  O2_22 
ROOT
HETATM    1  C7  UNL     1      23.316   4.259  51.360  1.00  0.00     0.052 A 
HETATM    2  N2  UNL     1      23.821   4.423  50.179  1.00  0.00    -0.070 NA
HETATM    3  C8  UNL     1      24.481   5.659  50.033  1.00  0.00     0.722 A 
HETATM    4  N6  UNL     1      24.409   6.313  51.127  1.00  0.00    -0.100 NA
HETATM    5  C13 UNL     1      23.671   5.503  52.075  1.00  0.00     0.224 A 
ENDROOT
BRANCH   1   6
HETATM    6  C6  UNL     1      22.606   2.978  51.588  1.00  0.00     0.066 C 
BRANCH   6   7
HETATM    7  C5  UNL     1      23.200   2.095  52.624  1.00  0.00     0.040 C 
HETATM    8  C4  UNL     1      24.320   1.275  51.958  1.00  0.00     0.133 C 
HETATM    9  N1  UNL     1      24.481   0.231  52.990  1.00  0.00    -0.346 N 
HETATM   10  C3  UNL     1      25.683  -0.516  53.222  1.00  0.00     0.239 C 
HETATM   11  C16 UNL     1      23.242   0.064  53.740  1.00  0.00     0.158 C 
HETATM   12  O1  UNL     1      25.807  -1.407  54.110  1.00  0.00    -0.269 OA
HETATM   13  C14 UNL     1      22.257   0.924  52.931  1.00  0.00     0.144 C 
BRANCH  10  14
HETATM   14  C2  UNL     1      26.859  -0.267  52.415  1.00  0.00     0.048 C 
HETATM   15  C1  UNL     1      27.976  -0.278  53.119  1.00  0.00     0.037 C 
ENDBRANCH  10  14
BRANCH  13  16
HETATM   16  O2  UNL     1      21.944   0.312  51.748  1.00  0.00    -0.389 OA
HETATM   17  C15 UNL     1      20.624   0.175  51.439  1.00  0.00     0.202 C 
ENDBRANCH  13  16
ENDBRANCH   6   7
ENDBRANCH   1   6
BRANCH   3  18
HETATM   18  N3  UNL     1      25.136   6.131  48.855  1.00  0.00    -0.186 N 
HETATM   19  H9  UNL     1      24.604   6.671  48.137  1.00  0.00     0.184 HD
BRANCH  18  20
HETATM   20  C9  UNL     1      26.518   5.867  48.653  1.00  0.00     0.085 A 
HETATM   21  C10 UNL     1      27.184   4.687  48.883  1.00  0.00     0.170 A 
HETATM   22  N4  UNL     1      28.486   4.909  48.546  1.00  0.00    -0.183 NA
HETATM   23  N5  UNL     1      28.661   6.141  48.130  1.00  0.00    -0.283 N 
HETATM   24  C11 UNL     1      29.914   6.744  47.687  1.00  0.00     0.179 C 
HETATM   25  C12 UNL     1      27.460   6.752  48.187  1.00  0.00     0.143 A 
ENDBRANCH  18  20
ENDBRANCH   3  18
TORSDOF 6
ENDMDL
MODEL 6
REMARK VINA RESULT:      -6.6      3.892      6.171
REMARK  6 active torsions:
REMARK  status: ('A' for Active; 'I' for Inactive)
REMARK    1  A    between atoms: C2_2  and  C3_3 
REMARK       I    between atoms: C3_3  and  N1_5 
REMARK    2  A    between atoms: C5_7  and  C6_8 
REMARK    3  A    between atoms: C6_8  and  C7_9 
REMARK    4  A    between atoms: C8_11  and  N3_12 
REMARK    5  A    between atoms: N3_12  and  C9_13 
REMARK    6  A    between atoms: C14_21  and  O2_22 
ROOT
HETATM    1  C7  UNL     1      24.664   3.152  50.279  1.00  0.00     0.052 A 
HETATM    2  N2  UNL     1      25.145   2.796  51.428  1.00  0.00    -0.070 NA
HETATM    3  C8  UNL     1      26.554   2.838  51.466  1.00  0.00     0.722 A 
HETATM    4  N6  UNL     1      27.001   3.223  50.333  1.00  0.00    -0.100 NA
HETATM    5  C13 UNL     1      25.861   3.461  49.470  1.00  0.00     0.224 A 
ENDROOT
BRANCH   1   6
HETATM    6  C6  UNL     1      23.186   3.135  50.165  1.00  0.00     0.066 C 
BRANCH   6   7
HETATM    7  C5  UNL     1      22.451   2.844  51.423  1.00  0.00     0.040 C 
HETATM    8  C4  UNL     1      22.328   1.315  51.553  1.00  0.00     0.133 C 
HETATM    9  N1  UNL     1      21.269   1.259  52.581  1.00  0.00    -0.346 N 
HETATM   10  C3  UNL     1      21.070   0.174  53.497  1.00  0.00     0.239 C 
HETATM   11  C16 UNL     1      20.453   2.466  52.533  1.00  0.00     0.158 C 
HETATM   12  O1  UNL     1      20.159   0.140  54.372  1.00  0.00    -0.269 OA
HETATM   13  C14 UNL     1      20.957   3.146  51.249  1.00  0.00     0.144 C 
BRANCH  10  14
HETATM   14  C2  UNL     1      21.944  -0.980  53.457  1.00  0.00     0.048 C 
HETATM   15  C1  UNL     1      21.841  -1.739  54.533  1.00  0.00     0.037 C 
ENDBRANCH  10  14
BRANCH  13  16
HETATM   16  O2  UNL     1      20.515   2.472  50.143  1.00  0.00    -0.389 OA
HETATM   17  C15 UNL     1      19.335   2.873  49.591  1.00  0.00     0.202 C 
ENDBRANCH  13  16
ENDBRANCH   6   7
ENDBRANCH   1   6
BRANCH   3  18
HETATM   18  N3  UNL     1      27.376   2.504  52.584  1.00  0.00    -0.186 N 
HETATM   19  H9  UNL     1      27.875   3.253  53.114  1.00  0.00     0.184 HD
BRANCH  18  20
HETATM   20  C9  UNL     1      27.522   1.147  52.983  1.00  0.00     0.085 A 
HETATM   21  C10 UNL     1      28.085   0.674  54.144  1.00  0.00     0.170 A 
HETATM   22  N4  UNL     1      28.001  -0.685  54.085  1.00  0.00    -0.183 NA
HETATM   23  N5  UNL     1      27.429  -1.074  52.971  1.00  0.00    -0.283 N 
HETATM   24  C11 UNL     1      27.167  -2.449  52.556  1.00  0.00     0.179 C 
HETATM   25  C12 UNL     1      27.124   0.039  52.273  1.00  0.00     0.143 A 
ENDBRANCH  18  20
ENDBRANCH   3  18
TORSDOF 6
ENDMDL
MODEL 7
REMARK VINA RESULT:      -6.6      3.528      4.324
REMARK  6 active torsions:
REMARK  status: ('A' for Active; 'I' for Inactive)
REMARK    1  A    between atoms: C2_2  and  C3_3 
REMARK       I    between atoms: C3_3  and  N1_5 
REMARK    2  A    between atoms: C5_7  and  C6_8 
REMARK    3  A    between atoms: C6_8  and  C7_9 
REMARK    4  A    between atoms: C8_11  and  N3_12 
REMARK    5  A    between atoms: N3_12  and  C9_13 
REMARK    6  A    between atoms: C14_21  and  O2_22 
ROOT
HETATM    1  C7  UNL     1      23.920   4.686  50.893  1.00  0.00     0.052 A 
HETATM    2  N2  UNL     1      25.017   4.943  50.256  1.00  0.00    -0.070 NA
HETATM    3  C8  UNL     1      25.382   6.303  50.325  1.00  0.00     0.722 A 
HETATM    4  N6  UNL     1      24.517   6.943  51.012  1.00  0.00    -0.100 NA
HETATM    5  C13 UNL     1      23.509   5.995  51.442  1.00  0.00     0.224 A 
ENDROOT
BRANCH   1   6
HETATM    6  C6  UNL     1      23.473   3.273  50.866  1.00  0.00     0.066 C 
BRANCH   6   7
HETATM    7  C5  UNL     1      23.813   2.472  52.070  1.00  0.00     0.040 C 
HETATM    8  C4  UNL     1      24.853   1.415  51.655  1.00  0.00     0.133 C 
HETATM    9  N1  UNL     1      24.743   0.517  52.822  1.00  0.00    -0.346 N 
HETATM   10  C3  UNL     1      25.784  -0.350  53.292  1.00  0.00     0.239 C 
HETATM   11  C16 UNL     1      23.424   0.637  53.431  1.00  0.00     0.158 C 
HETATM   12  O1  UNL     1      25.676  -1.113  54.293  1.00  0.00    -0.269 OA
HETATM   13  C14 UNL     1      22.673   1.502  52.405  1.00  0.00     0.144 C 
BRANCH  10  14
HETATM   14  C2  UNL     1      27.061  -0.388  52.609  1.00  0.00     0.048 C 
HETATM   15  C1  UNL     1      28.070  -0.047  53.389  1.00  0.00     0.037 C 
ENDBRANCH  10  14
BRANCH  13  16
HETATM   16  O2  UNL     1      22.390   0.777  51.280  1.00  0.00    -0.389 OA
HETATM   17  C15 UNL     1      21.093   0.408  51.078  1.00  0.00     0.202 C 
ENDBRANCH  13  16
ENDBRANCH   6   7
ENDBRANCH   1   6
BRANCH   3  18
HETATM   18  N3  UNL     1      26.534   6.898  49.727  1.00  0.00    -0.186 N 
HETATM   19  H9  UNL     1      27.330   6.302  49.408  1.00  0.00     0.184 HD
BRANCH  18  20
HETATM   20  C9  UNL     1      26.604   8.308  49.561  1.00  0.00     0.085 A 
HETATM   21  C10 UNL     1      27.380   9.194  50.270  1.00  0.00     0.170 A 
HETATM   22  N4  UNL     1      27.113  10.430  49.761  1.00  0.00    -0.183 NA
HETATM   23  N5  UNL     1      26.230  10.361  48.794  1.00  0.00    -0.283 N 
HETATM   24  C11 UNL     1      25.698  11.474  48.014  1.00  0.00     0.179 C 
HETATM   25  C12 UNL     1      25.900   9.061  48.652  1.00  0.00     0.143 A 
ENDBRANCH  18  20
ENDBRANCH   3  18
TORSDOF 6
ENDMDL
MODEL 8
REMARK VINA RESULT:      -6.5      5.053      8.073
REMARK  6 active torsions:
REMARK  status: ('A' for Active; 'I' for Inactive)
REMARK    1  A    between atoms: C2_2  and  C3_3 
REMARK       I    between atoms: C3_3  and  N1_5 
REMARK    2  A    between atoms: C5_7  and  C6_8 
REMARK    3  A    between atoms: C6_8  and  C7_9 
REMARK    4  A    between atoms: C8_11  and  N3_12 
REMARK    5  A    between atoms: N3_12  and  C9_13 
REMARK    6  A    between atoms: C14_21  and  O2_22 
ROOT
HETATM    1  C7  UNL     1      23.225   2.820  52.079  1.00  0.00     0.052 A 
HETATM    2  N2  UNL     1      24.023   2.984  53.086  1.00  0.00    -0.070 NA
HETATM    3  C8  UNL     1      25.326   2.509  52.832  1.00  0.00     0.722 A 
HETATM    4  N6  UNL     1      25.384   2.030  51.650  1.00  0.00    -0.100 NA
HETATM    5  C13 UNL     1      24.071   2.176  51.053  1.00  0.00     0.224 A 
ENDROOT
BRANCH   1   6
HETATM    6  C6  UNL     1      21.835   3.298  52.272  1.00  0.00     0.066 C 
BRANCH   6   7
HETATM    7  C5  UNL     1      20.791   2.536  51.540  1.00  0.00     0.040 C 
HETATM    8  C4  UNL     1      19.420   3.110  51.942  1.00  0.00     0.133 C 
HETATM    9  N1  UNL     1      18.563   2.008  51.460  1.00  0.00    -0.346 N 
HETATM   10  C3  UNL     1      17.190   2.147  51.069  1.00  0.00     0.239 C 
HETATM   11  C16 UNL     1      19.310   0.757  51.441  1.00  0.00     0.158 C 
HETATM   12  O1  UNL     1      16.468   1.195  50.658  1.00  0.00    -0.269 OA
HETATM   13  C14 UNL     1      20.611   1.145  52.163  1.00  0.00     0.144 C 
BRANCH  10  14
HETATM   14  C2  UNL     1      16.546   3.442  51.128  1.00  0.00     0.048 C 
HETATM   15  C1  UNL     1      15.673   3.535  52.115  1.00  0.00     0.037 C 
ENDBRANCH  10  14
BRANCH  13  16
HETATM   16  O2  UNL     1      20.386   1.308  53.503  1.00  0.00    -0.389 OA
HETATM   17  C15 UNL     1      20.842   0.335  54.341  1.00  0.00     0.202 C 
ENDBRANCH  13  16
ENDBRANCH   6   7
ENDBRANCH   1   6
BRANCH   3  18
HETATM   18  N3  UNL     1      26.428   2.546  53.740  1.00  0.00    -0.186 N 
HETATM   19  H9  UNL     1      26.690   3.438  54.215  1.00  0.00     0.184 HD
BRANCH  18  20
HETATM   20  C9  UNL     1      27.175   1.365  54.003  1.00  0.00     0.085 A 
HETATM   21  C10 UNL     1      26.812   0.309  54.803  1.00  0.00     0.170 A 
HETATM   22  N4  UNL     1      27.840  -0.585  54.749  1.00  0.00    -0.183 NA
HETATM   23  N5  UNL     1      28.804  -0.147  53.974  1.00  0.00    -0.283 N 
HETATM   24  C11 UNL     1      30.061  -0.826  53.674  1.00  0.00     0.179 C 
HETATM   25  C12 UNL     1      28.417   1.056  53.502  1.00  0.00     0.143 A 
ENDBRANCH  18  20
ENDBRANCH   3  18
TORSDOF 6
ENDMDL
MODEL 9
REMARK VINA RESULT:      -6.4      3.840      7.984
REMARK  6 active torsions:
REMARK  status: ('A' for Active; 'I' for Inactive)
REMARK    1  A    between atoms: C2_2  and  C3_3 
REMARK       I    between atoms: C3_3  and  N1_5 
REMARK    2  A    between atoms: C5_7  and  C6_8 
REMARK    3  A    between atoms: C6_8  and  C7_9 
REMARK    4  A    between atoms: C8_11  and  N3_12 
REMARK    5  A    between atoms: N3_12  and  C9_13 
REMARK    6  A    between atoms: C14_21  and  O2_22 
ROOT
HETATM    1  C7  UNL     1      23.830   2.347  51.192  1.00  0.00     0.052 A 
HETATM    2  N2  UNL     1      24.552   1.330  51.543  1.00  0.00    -0.070 NA
HETATM    3  C8  UNL     1      24.100   0.724  52.733  1.00  0.00     0.722 A 
HETATM    4  N6  UNL     1      23.074   1.347  53.167  1.00  0.00    -0.100 NA
HETATM    5  C13 UNL     1      22.797   2.431  52.245  1.00  0.00     0.224 A 
ENDROOT
BRANCH   1   6
HETATM    6  C6  UNL     1      24.245   3.036  49.947  1.00  0.00     0.066 C 
BRANCH   6   7
HETATM    7  C5  UNL     1      24.290   4.518  50.023  1.00  0.00     0.040 C 
HETATM    8  C4  UNL     1      23.896   5.073  48.642  1.00  0.00     0.133 C 
HETATM    9  N1  UNL     1      24.383   6.457  48.805  1.00  0.00    -0.346 N 
HETATM   10  C3  UNL     1      23.869   7.597  48.104  1.00  0.00     0.239 C 
HETATM   11  C16 UNL     1      25.465   6.501  49.781  1.00  0.00     0.158 C 
HETATM   12  O1  UNL     1      24.296   8.777  48.253  1.00  0.00    -0.269 OA
HETATM   13  C14 UNL     1      25.744   5.008  50.021  1.00  0.00     0.144 C 
BRANCH  10  14
HETATM   14  C2  UNL     1      22.788   7.438  47.153  1.00  0.00     0.048 C 
HETATM   15  C1  UNL     1      23.205   7.429  45.900  1.00  0.00     0.037 C 
ENDBRANCH  10  14
BRANCH  13  16
HETATM   16  O2  UNL     1      26.375   4.457  48.939  1.00  0.00    -0.389 OA
HETATM   17  C15 UNL     1      27.642   4.879  48.666  1.00  0.00     0.202 C 
ENDBRANCH  13  16
ENDBRANCH   6   7
ENDBRANCH   1   6
BRANCH   3  18
HETATM   18  N3  UNL     1      24.683  -0.411  53.373  1.00  0.00    -0.186 N 
HETATM   19  H9  UNL     1      24.118  -1.275  53.533  1.00  0.00     0.184 HD
BRANCH  18  20
HETATM   20  C9  UNL     1      26.039  -0.372  53.798  1.00  0.00     0.085 A 
HETATM   21  C10 UNL     1      26.530   0.132  54.978  1.00  0.00     0.170 A 
HETATM   22  N4  UNL     1      27.881  -0.048  54.940  1.00  0.00    -0.183 NA
HETATM   23  N5  UNL     1      28.248  -0.626  53.821  1.00  0.00    -0.283 N 
HETATM   24  C11 UNL     1      29.608  -0.978  53.424  1.00  0.00     0.179 C 
HETATM   25  C12 UNL     1      27.128  -0.836  53.098  1.00  0.00     0.143 A 
ENDBRANCH  18  20
ENDBRANCH   3  18
TORSDOF 6
ENDMDL
