MODEL 1
REMARK VINA RESULT:      -7.4      0.000      0.000
REMARK  4 active torsions:
REMARK  status: ('A' for Active; 'I' for Inactive)
REMARK    1  A    between atoms: O1_2  and  C2_3 
REMARK    2  A    between atoms: C5_6  and  C6_7 
REMARK       I    between atoms: C6_7  and  N1_9 
REMARK    3  A    between atoms: N1_9  and  S1_10 
REMARK    4  A    between atoms: S1_10  and  C7_13 
ROOT
HETATM    1  C6  UNL     1      24.833   2.344  52.138  1.00  0.00     0.265 C 
HETATM    2  O2  UNL     1      24.344   2.785  53.208  1.00  0.00    -0.267 OA
HETATM    3  N1  UNL     1      26.174   1.891  52.039  1.00  0.00    -0.248 N 
HETATM    4  H6  UNL     1      26.571   1.526  51.145  1.00  0.00     0.182 HD
ENDROOT
BRANCH   3   5
HETATM    5  S1  UNL     1      27.440   1.790  53.170  1.00  0.00     0.260 S 
HETATM    6  O3  UNL     1      28.662   2.498  52.599  1.00  0.00    -0.203 OA
HETATM    7  O4  UNL     1      27.127   2.504  54.449  1.00  0.00    -0.203 OA
BRANCH   5   8
HETATM    8  C7  UNL     1      27.925   0.128  53.555  1.00  0.00     0.274 C 
HETATM    9  C8  UNL     1      27.305  -0.833  52.608  1.00  0.00     0.019 C 
HETATM   10  C9  UNL     1      26.047  -1.223  52.878  1.00  0.00     0.025 C 
HETATM   11  C10 UNL     1      25.361  -0.687  54.075  1.00  0.00     0.064 C 
HETATM   12 CL1  UNL     1      23.636  -0.815  54.360  1.00  0.00    -0.082 Cl
HETATM   13  C11 UNL     1      26.107  -0.080  54.968  1.00  0.00     0.104 C 
HETATM   14  N2  UNL     1      27.389  -0.192  54.889  1.00  0.00    -0.259 NA
ENDBRANCH   5   8
ENDBRANCH   3   5
BRANCH   1  15
HETATM   15  C5  UNL     1      23.949   2.317  50.984  1.00  0.00     0.033 A 
HETATM   16  C4  UNL     1      22.881   1.449  51.002  1.00  0.00     0.020 A 
HETATM   17  C3  UNL     1      21.987   1.367  49.930  1.00  0.00     0.038 A 
HETATM   18  C2  UNL     1      22.137   2.142  48.820  1.00  0.00     0.068 A 
HETATM   19  C13 UNL     1      23.200   3.014  48.791  1.00  0.00     0.038 A 
HETATM   20  C12 UNL     1      24.075   3.089  49.848  1.00  0.00     0.020 A 
BRANCH  18  21
HETATM   21  O1  UNL     1      21.264   2.080  47.741  1.00  0.00    -0.356 OA
HETATM   22  C1  UNL     1      20.137   2.913  47.649  1.00  0.00     0.210 C 
ENDBRANCH  18  21
ENDBRANCH   1  15
TORSDOF 4
ENDMDL
MODEL 2
REMARK VINA RESULT:      -7.2      3.748      4.409
REMARK  4 active torsions:
REMARK  status: ('A' for Active; 'I' for Inactive)
REMARK    1  A    between atoms: O1_2  and  C2_3 
REMARK    2  A    between atoms: C5_6  and  C6_7 
REMARK       I    between atoms: C6_7  and  N1_9 
REMARK    3  A    between atoms: N1_9  and  S1_10 
REMARK    4  A    between atoms: S1_10  and  C7_13 
ROOT
HETATM    1  C6  UNL     1      22.949  -0.526  53.637  1.00  0.00     0.265 C 
HETATM    2  O2  UNL     1      23.096  -1.033  54.777  1.00  0.00    -0.267 OA
HETATM    3  N1  UNL     1      24.042  -0.086  52.849  1.00  0.00    -0.248 N 
HETATM    4  H6  UNL     1      23.909   0.334  51.902  1.00  0.00     0.182 HD
ENDROOT
BRANCH   3   5
HETATM    5  S1  UNL     1      25.722  -0.078  53.113  1.00  0.00     0.260 S 
HETATM    6  O3  UNL     1      26.109  -1.364  53.831  1.00  0.00    -0.203 OA
HETATM    7  O4  UNL     1      26.505  -0.082  51.837  1.00  0.00    -0.203 OA
BRANCH   5   8
HETATM    8  C7  UNL     1      26.282   1.274  54.115  1.00  0.00     0.274 C 
HETATM    9  C8  UNL     1      27.170   2.174  53.336  1.00  0.00     0.019 C 
HETATM   10  C9  UNL     1      28.462   1.815  53.240  1.00  0.00     0.025 C 
HETATM   11  C10 UNL     1      28.922   0.572  53.900  1.00  0.00     0.064 C 
HETATM   12 CL1  UNL     1      30.459  -0.204  53.574  1.00  0.00    -0.082 Cl
HETATM   13  C11 UNL     1      28.113   0.030  54.780  1.00  0.00     0.104 C 
HETATM   14  N2  UNL     1      27.103   0.712  55.201  1.00  0.00    -0.259 NA
ENDBRANCH   5   8
ENDBRANCH   3   5
BRANCH   1  15
HETATM   15  C5  UNL     1      21.583  -0.409  53.151  1.00  0.00     0.033 A 
HETATM   16  C4  UNL     1      20.574  -0.959  53.908  1.00  0.00     0.020 A 
HETATM   17  C3  UNL     1      19.235  -0.886  53.507  1.00  0.00     0.038 A 
HETATM   18  C2  UNL     1      18.875  -0.268  52.348  1.00  0.00     0.068 A 
HETATM   19  C13 UNL     1      19.875   0.286  51.584  1.00  0.00     0.038 A 
HETATM   20  C12 UNL     1      21.188   0.210  51.985  1.00  0.00     0.020 A 
BRANCH  18  21
HETATM   21  O1  UNL     1      17.554  -0.182  51.926  1.00  0.00    -0.356 OA
HETATM   22  C1  UNL     1      16.525  -0.900  52.556  1.00  0.00     0.210 C 
ENDBRANCH  18  21
ENDBRANCH   1  15
TORSDOF 4
ENDMDL
MODEL 3
REMARK VINA RESULT:      -7.2      3.684      4.840
REMARK  4 active torsions:
REMARK  status: ('A' for Active; 'I' for Inactive)
REMARK    1  A    between atoms: O1_2  and  C2_3 
REMARK    2  A    between atoms: C5_6  and  C6_7 
REMARK       I    between atoms: C6_7  and  N1_9 
REMARK    3  A    between atoms: N1_9  and  S1_10 
REMARK    4  A    between atoms: S1_10  and  C7_13 
ROOT
HETATM    1  C6  UNL     1      23.777  -0.725  54.090  1.00  0.00     0.265 C 
HETATM    2  O2  UNL     1      24.179  -1.123  55.212  1.00  0.00    -0.267 OA
HETATM    3  N1  UNL     1      24.658  -0.253  53.084  1.00  0.00    -0.248 N 
HETATM    4  H6  UNL     1      24.314   0.075  52.154  1.00  0.00     0.182 HD
ENDROOT
BRANCH   3   5
HETATM    5  S1  UNL     1      26.349  -0.074  53.027  1.00  0.00     0.260 S 
HETATM    6  O3  UNL     1      26.971  -0.973  54.087  1.00  0.00    -0.203 OA
HETATM    7  O4  UNL     1      26.932  -0.528  51.725  1.00  0.00    -0.203 OA
BRANCH   5   8
HETATM    8  C7  UNL     1      26.903   1.580  53.347  1.00  0.00     0.274 C 
HETATM    9  C8  UNL     1      25.781   2.429  53.822  1.00  0.00     0.019 C 
HETATM   10  C9  UNL     1      24.985   2.964  52.879  1.00  0.00     0.025 C 
HETATM   11  C10 UNL     1      25.262   2.685  51.451  1.00  0.00     0.064 C 
HETATM   12 CL1  UNL     1      24.132   3.005  50.151  1.00  0.00    -0.082 Cl
HETATM   13  C11 UNL     1      26.432   2.166  51.161  1.00  0.00     0.104 C 
HETATM   14  N2  UNL     1      27.350   2.153  52.065  1.00  0.00    -0.259 NA
ENDBRANCH   5   8
ENDBRANCH   3   5
BRANCH   1  15
HETATM   15  C5  UNL     1      22.341  -0.771  53.863  1.00  0.00     0.033 A 
HETATM   16  C4  UNL     1      21.783   0.181  53.039  1.00  0.00     0.020 A 
HETATM   17  C3  UNL     1      20.410   0.201  52.772  1.00  0.00     0.038 A 
HETATM   18  C2  UNL     1      19.567  -0.719  53.317  1.00  0.00     0.068 A 
HETATM   19  C13 UNL     1      20.114  -1.675  54.141  1.00  0.00     0.038 A 
HETATM   20  C12 UNL     1      21.464  -1.689  54.399  1.00  0.00     0.020 A 
BRANCH  18  21
HETATM   21  O1  UNL     1      18.200  -0.721  53.069  1.00  0.00    -0.356 OA
HETATM   22  C1  UNL     1      17.425  -1.886  53.189  1.00  0.00     0.210 C 
ENDBRANCH  18  21
ENDBRANCH   1  15
TORSDOF 4
ENDMDL
MODEL 4
REMARK VINA RESULT:      -6.9      3.364      6.788
REMARK  4 active torsions:
REMARK  status: ('A' for Active; 'I' for Inactive)
REMARK    1  A    between atoms: O1_2  and  C2_3 
REMARK    2  A    between atoms: C5_6  and  C6_7 
REMARK       I    between atoms: C6_7  and  N1_9 
REMARK    3  A    between atoms: N1_9  and  S1_10 
REMARK    4  A    between atoms: S1_10  and  C7_13 
ROOT
HETATM    1  C6  UNL     1      24.224   2.360  52.738  1.00  0.00     0.265 C 
HETATM    2  O2  UNL     1      23.060   1.908  52.867  1.00  0.00    -0.267 OA
HETATM    3  N1  UNL     1      24.487   3.677  52.281  1.00  0.00    -0.248 N 
HETATM    4  H6  UNL     1      25.459   4.044  52.177  1.00  0.00     0.182 HD
ENDROOT
BRANCH   3   5
HETATM    5  S1  UNL     1      23.469   4.954  51.805  1.00  0.00     0.260 S 
HETATM    6  O3  UNL     1      22.211   4.921  52.662  1.00  0.00    -0.203 OA
HETATM    7  O4  UNL     1      24.082   6.299  52.048  1.00  0.00    -0.203 OA
BRANCH   5   8
HETATM    8  C7  UNL     1      22.957   4.866  50.109  1.00  0.00     0.274 C 
HETATM    9  C8  UNL     1      23.315   3.552  49.519  1.00  0.00     0.019 C 
HETATM   10  C9  UNL     1      24.573   3.416  49.062  1.00  0.00     0.025 C 
HETATM   11  C10 UNL     1      25.511   4.555  49.169  1.00  0.00     0.064 C 
HETATM   12 CL1  UNL     1      27.246   4.423  48.955  1.00  0.00    -0.082 Cl
HETATM   13  C11 UNL     1      24.994   5.730  49.443  1.00  0.00     0.104 C 
HETATM   14  N2  UNL     1      23.717   5.883  49.363  1.00  0.00    -0.259 NA
ENDBRANCH   5   8
ENDBRANCH   3   5
BRANCH   1  15
HETATM   15  C5  UNL     1      25.312   1.459  53.083  1.00  0.00     0.033 A 
HETATM   16  C4  UNL     1      26.388   1.973  53.772  1.00  0.00     0.020 A 
HETATM   17  C3  UNL     1      27.472   1.168  54.140  1.00  0.00     0.038 A 
HETATM   18  C2  UNL     1      27.509  -0.157  53.830  1.00  0.00     0.068 A 
HETATM   19  C13 UNL     1      26.439  -0.681  53.143  1.00  0.00     0.038 A 
HETATM   20  C12 UNL     1      25.378   0.115  52.785  1.00  0.00     0.020 A 
BRANCH  18  21
HETATM   21  O1  UNL     1      28.573  -0.978  54.183  1.00  0.00    -0.356 OA
HETATM   22  C1  UNL     1      29.827  -0.878  53.559  1.00  0.00     0.210 C 
ENDBRANCH  18  21
ENDBRANCH   1  15
TORSDOF 4
ENDMDL
MODEL 5
REMARK VINA RESULT:      -6.9      2.121      2.465
REMARK  4 active torsions:
REMARK  status: ('A' for Active; 'I' for Inactive)
REMARK    1  A    between atoms: O1_2  and  C2_3 
REMARK    2  A    between atoms: C5_6  and  C6_7 
REMARK       I    between atoms: C6_7  and  N1_9 
REMARK    3  A    between atoms: N1_9  and  S1_10 
REMARK    4  A    between atoms: S1_10  and  C7_13 
ROOT
HETATM    1  C6  UNL     1      24.034   2.638  52.391  1.00  0.00     0.265 C 
HETATM    2  O2  UNL     1      24.266   3.865  52.260  1.00  0.00    -0.267 OA
HETATM    3  N1  UNL     1      25.051   1.693  52.680  1.00  0.00    -0.248 N 
HETATM    4  H6  UNL     1      24.848   0.674  52.788  1.00  0.00     0.182 HD
ENDROOT
BRANCH   3   5
HETATM    5  S1  UNL     1      26.728   1.846  52.920  1.00  0.00     0.260 S 
HETATM    6  O3  UNL     1      27.336   2.522  51.699  1.00  0.00    -0.203 OA
HETATM    7  O4  UNL     1      27.065   2.734  54.078  1.00  0.00    -0.203 OA
BRANCH   5   8
HETATM    8  C7  UNL     1      27.564   0.296  53.136  1.00  0.00     0.274 C 
HETATM    9  C8  UNL     1      26.825  -0.799  52.458  1.00  0.00     0.019 C 
HETATM   10  C9  UNL     1      25.801  -1.348  53.135  1.00  0.00     0.025 C 
HETATM   11  C10 UNL     1      25.471  -0.845  54.488  1.00  0.00     0.064 C 
HETATM   12 CL1  UNL     1      23.977  -1.202  55.332  1.00  0.00    -0.082 Cl
HETATM   13  C11 UNL     1      26.366  -0.085  55.075  1.00  0.00     0.104 C 
HETATM   14  N2  UNL     1      27.552  -0.017  54.576  1.00  0.00    -0.259 NA
ENDBRANCH   5   8
ENDBRANCH   3   5
BRANCH   1  15
HETATM   15  C5  UNL     1      22.650   2.219  52.233  1.00  0.00     0.033 A 
HETATM   16  C4  UNL     1      22.393   0.879  52.052  1.00  0.00     0.020 A 
HETATM   17  C3  UNL     1      21.088   0.400  51.894  1.00  0.00     0.038 A 
HETATM   18  C2  UNL     1      20.017   1.241  51.911  1.00  0.00     0.068 A 
HETATM   19  C13 UNL     1      20.261   2.582  52.092  1.00  0.00     0.038 A 
HETATM   20  C12 UNL     1      21.546   3.045  52.246  1.00  0.00     0.020 A 
BRANCH  18  21
HETATM   21  O1  UNL     1      18.711   0.791  51.755  1.00  0.00    -0.356 OA
HETATM   22  C1  UNL     1      18.296  -0.463  52.232  1.00  0.00     0.210 C 
ENDBRANCH  18  21
ENDBRANCH   1  15
TORSDOF 4
ENDMDL
MODEL 6
REMARK VINA RESULT:      -6.8      3.324      6.778
REMARK  4 active torsions:
REMARK  status: ('A' for Active; 'I' for Inactive)
REMARK    1  A    between atoms: O1_2  and  C2_3 
REMARK    2  A    between atoms: C5_6  and  C6_7 
REMARK       I    between atoms: C6_7  and  N1_9 
REMARK    3  A    between atoms: N1_9  and  S1_10 
REMARK    4  A    between atoms: S1_10  and  C7_13 
ROOT
HETATM    1  C6  UNL     1      23.155   1.342  52.379  1.00  0.00     0.265 C 
HETATM    2  O2  UNL     1      22.167   0.575  52.267  1.00  0.00    -0.267 OA
HETATM    3  N1  UNL     1      23.056   2.747  52.213  1.00  0.00    -0.248 N 
HETATM    4  H6  UNL     1      23.884   3.377  52.308  1.00  0.00     0.182 HD
ENDROOT
BRANCH   3   5
HETATM    5  S1  UNL     1      21.749   3.774  51.850  1.00  0.00     0.260 S 
HETATM    6  O3  UNL     1      20.526   3.296  52.621  1.00  0.00    -0.203 OA
HETATM    7  O4  UNL     1      21.982   5.182  52.303  1.00  0.00    -0.203 OA
BRANCH   5   8
HETATM    8  C7  UNL     1      21.314   3.798  50.131  1.00  0.00     0.274 C 
HETATM    9  C8  UNL     1      22.001   2.704  49.399  1.00  0.00     0.019 C 
HETATM   10  C9  UNL     1      23.263   2.941  49.000  1.00  0.00     0.025 C 
HETATM   11  C10 UNL     1      23.888   4.248  49.305  1.00  0.00     0.064 C 
HETATM   12 CL1  UNL     1      25.605   4.571  49.174  1.00  0.00    -0.082 Cl
HETATM   13  C11 UNL     1      23.090   5.213  49.697  1.00  0.00     0.104 C 
HETATM   14  N2  UNL     1      21.816   5.062  49.565  1.00  0.00    -0.259 NA
ENDBRANCH   5   8
ENDBRANCH   3   5
BRANCH   1  15
HETATM   15  C5  UNL     1      24.430   0.716  52.693  1.00  0.00     0.033 A 
HETATM   16  C4  UNL     1      24.481  -0.158  53.755  1.00  0.00     0.020 A 
HETATM   17  C3  UNL     1      25.670  -0.800  54.117  1.00  0.00     0.038 A 
HETATM   18  C2  UNL     1      26.828  -0.585  53.434  1.00  0.00     0.068 A 
HETATM   19  C13 UNL     1      26.789   0.285  52.370  1.00  0.00     0.038 A 
HETATM   20  C12 UNL     1      25.617   0.912  52.020  1.00  0.00     0.020 A 
BRANCH  18  21
HETATM   21  O1  UNL     1      28.023  -1.209  53.772  1.00  0.00    -0.356 OA
HETATM   22  C1  UNL     1      29.228  -0.496  53.880  1.00  0.00     0.210 C 
ENDBRANCH  18  21
ENDBRANCH   1  15
TORSDOF 4
ENDMDL
MODEL 7
REMARK VINA RESULT:      -6.7      4.080      5.615
REMARK  4 active torsions:
REMARK  status: ('A' for Active; 'I' for Inactive)
REMARK    1  A    between atoms: O1_2  and  C2_3 
REMARK    2  A    between atoms: C5_6  and  C6_7 
REMARK       I    between atoms: C6_7  and  N1_9 
REMARK    3  A    between atoms: N1_9  and  S1_10 
REMARK    4  A    between atoms: S1_10  and  C7_13 
ROOT
HETATM    1  C6  UNL     1      25.247   4.419  49.789  1.00  0.00     0.265 C 
HETATM    2  O2  UNL     1      24.259   4.184  49.050  1.00  0.00    -0.267 OA
HETATM    3  N1  UNL     1      25.334   3.945  51.123  1.00  0.00    -0.248 N 
HETATM    4  H6  UNL     1      26.161   4.145  51.729  1.00  0.00     0.182 HD
ENDROOT
BRANCH   3   5
HETATM    5  S1  UNL     1      24.284   3.015  52.085  1.00  0.00     0.260 S 
HETATM    6  O3  UNL     1      24.320   3.554  53.509  1.00  0.00    -0.203 OA
HETATM    7  O4  UNL     1      22.855   3.128  51.651  1.00  0.00    -0.203 OA
BRANCH   5   8
HETATM    8  C7  UNL     1      24.716   1.296  52.160  1.00  0.00     0.274 C 
HETATM    9  C8  UNL     1      24.959   0.875  53.563  1.00  0.00     0.019 C 
HETATM   10  C9  UNL     1      26.181   1.122  54.067  1.00  0.00     0.025 C 
HETATM   11  C10 UNL     1      27.196   1.784  53.217  1.00  0.00     0.064 C 
HETATM   12 CL1  UNL     1      28.683   2.483  53.827  1.00  0.00    -0.082 Cl
HETATM   13  C11 UNL     1      26.950   1.842  51.929  1.00  0.00     0.104 C 
HETATM   14  N2  UNL     1      25.993   1.128  51.444  1.00  0.00    -0.259 NA
ENDBRANCH   5   8
ENDBRANCH   3   5
BRANCH   1  15
HETATM   15  C5  UNL     1      26.318   5.212  49.207  1.00  0.00     0.033 A 
HETATM   16  C4  UNL     1      26.117   6.566  49.059  1.00  0.00     0.020 A 
HETATM   17  C3  UNL     1      27.101   7.395  48.508  1.00  0.00     0.038 A 
HETATM   18  C2  UNL     1      28.298   6.896  48.095  1.00  0.00     0.068 A 
HETATM   19  C13 UNL     1      28.511   5.545  48.239  1.00  0.00     0.038 A 
HETATM   20  C12 UNL     1      27.539   4.737  48.781  1.00  0.00     0.020 A 
BRANCH  18  21
HETATM   21  O1  UNL     1      29.292   7.696  47.544  1.00  0.00    -0.356 OA
HETATM   22  C1  UNL     1      30.655   7.465  47.794  1.00  0.00     0.210 C 
ENDBRANCH  18  21
ENDBRANCH   1  15
TORSDOF 4
ENDMDL
MODEL 8
REMARK VINA RESULT:      -6.6      3.102      6.857
REMARK  4 active torsions:
REMARK  status: ('A' for Active; 'I' for Inactive)
REMARK    1  A    between atoms: O1_2  and  C2_3 
REMARK    2  A    between atoms: C5_6  and  C6_7 
REMARK       I    between atoms: C6_7  and  N1_9 
REMARK    3  A    between atoms: N1_9  and  S1_10 
REMARK    4  A    between atoms: S1_10  and  C7_13 
ROOT
HETATM    1  C6  UNL     1      22.845   1.128  52.001  1.00  0.00     0.265 C 
HETATM    2  O2  UNL     1      21.885   1.357  52.779  1.00  0.00    -0.267 OA
HETATM    3  N1  UNL     1      22.766   1.349  50.602  1.00  0.00    -0.248 N 
HETATM    4  H6  UNL     1      23.570   1.155  49.964  1.00  0.00     0.182 HD
ENDROOT
BRANCH   3   5
HETATM    5  S1  UNL     1      21.520   1.923  49.597  1.00  0.00     0.260 S 
HETATM    6  O3  UNL     1      21.305   0.925  48.467  1.00  0.00    -0.203 OA
HETATM    7  O4  UNL     1      20.204   2.012  50.306  1.00  0.00    -0.203 OA
BRANCH   5   8
HETATM    8  C7  UNL     1      21.868   3.496  48.854  1.00  0.00     0.274 C 
HETATM    9  C8  UNL     1      23.325   3.779  48.878  1.00  0.00     0.019 C 
HETATM   10  C9  UNL     1      23.822   4.296  50.016  1.00  0.00     0.025 C 
HETATM   11  C10 UNL     1      22.913   4.550  51.156  1.00  0.00     0.064 C 
HETATM   12 CL1  UNL     1      23.455   4.877  52.791  1.00  0.00    -0.082 Cl
HETATM   13  C11 UNL     1      21.625   4.526  50.909  1.00  0.00     0.104 C 
HETATM   14  N2  UNL     1      21.225   4.530  49.683  1.00  0.00    -0.259 NA
ENDBRANCH   5   8
ENDBRANCH   3   5
BRANCH   1  15
HETATM   15  C5  UNL     1      24.064   0.617  52.608  1.00  0.00     0.033 A 
HETATM   16  C4  UNL     1      25.271   1.032  52.091  1.00  0.00     0.020 A 
HETATM   17  C3  UNL     1      26.485   0.586  52.622  1.00  0.00     0.038 A 
HETATM   18  C2  UNL     1      26.525  -0.280  53.672  1.00  0.00     0.068 A 
HETATM   19  C13 UNL     1      25.325  -0.701  54.197  1.00  0.00     0.038 A 
HETATM   20  C12 UNL     1      24.136  -0.258  53.670  1.00  0.00     0.020 A 
BRANCH  18  21
HETATM   21  O1  UNL     1      27.717  -0.740  54.218  1.00  0.00    -0.356 OA
HETATM   22  C1  UNL     1      28.627   0.125  54.848  1.00  0.00     0.210 C 
ENDBRANCH  18  21
ENDBRANCH   1  15
TORSDOF 4
ENDMDL
MODEL 9
REMARK VINA RESULT:      -6.6      3.473      6.930
REMARK  4 active torsions:
REMARK  status: ('A' for Active; 'I' for Inactive)
REMARK    1  A    between atoms: O1_2  and  C2_3 
REMARK    2  A    between atoms: C5_6  and  C6_7 
REMARK       I    between atoms: C6_7  and  N1_9 
REMARK    3  A    between atoms: N1_9  and  S1_10 
REMARK    4  A    between atoms: S1_10  and  C7_13 
ROOT
HETATM    1  C6  UNL     1      22.504   0.695  53.141  1.00  0.00     0.265 C 
HETATM    2  O2  UNL     1      21.844   0.289  54.131  1.00  0.00    -0.267 OA
HETATM    3  N1  UNL     1      21.918   1.436  52.083  1.00  0.00    -0.248 N 
HETATM    4  H6  UNL     1      22.476   1.769  51.265  1.00  0.00     0.182 HD
ENDROOT
BRANCH   3   5
HETATM    5  S1  UNL     1      20.331   1.976  51.797  1.00  0.00     0.260 S 
HETATM    6  O3  UNL     1      19.358   0.942  52.347  1.00  0.00    -0.203 OA
HETATM    7  O4  UNL     1      20.017   3.247  52.524  1.00  0.00    -0.203 OA
BRANCH   5   8
HETATM    8  C7  UNL     1      19.950   2.199  50.079  1.00  0.00     0.274 C 
HETATM    9  C8  UNL     1      20.725   1.249  49.240  1.00  0.00     0.019 C 
HETATM   10  C9  UNL     1      21.983   1.607  48.926  1.00  0.00     0.025 C 
HETATM   11  C10 UNL     1      22.516   2.897  49.419  1.00  0.00     0.064 C 
HETATM   12 CL1  UNL     1      24.214   3.330  49.397  1.00  0.00    -0.082 Cl
HETATM   13  C11 UNL     1      21.649   3.756  49.899  1.00  0.00     0.104 C 
HETATM   14  N2  UNL     1      20.392   3.552  49.699  1.00  0.00    -0.259 NA
ENDBRANCH   5   8
ENDBRANCH   3   5
BRANCH   1  15
HETATM   15  C5  UNL     1      23.920   0.366  53.128  1.00  0.00     0.033 A 
HETATM   16  C4  UNL     1      24.719   0.969  52.183  1.00  0.00     0.020 A 
HETATM   17  C3  UNL     1      26.090   0.704  52.108  1.00  0.00     0.038 A 
HETATM   18  C2  UNL     1      26.693  -0.164  52.966  1.00  0.00     0.068 A 
HETATM   19  C13 UNL     1      25.905  -0.773  53.915  1.00  0.00     0.038 A 
HETATM   20  C12 UNL     1      24.558  -0.507  53.982  1.00  0.00     0.020 A 
BRANCH  18  21
HETATM   21  O1  UNL     1      28.053  -0.446  52.913  1.00  0.00    -0.356 OA
HETATM   22  C1  UNL     1      28.993   0.293  53.649  1.00  0.00     0.210 C 
ENDBRANCH  18  21
ENDBRANCH   1  15
TORSDOF 4
ENDMDL
