MODEL 1
REMARK VINA RESULT:      -7.7      0.000      0.000
REMARK  5 active torsions:
REMARK  status: ('A' for Active; 'I' for Inactive)
REMARK    1  A    between atoms: S1_2  and  N1_4 
REMARK    2  A    between atoms: S1_2  and  C8_14 
REMARK    3  A    between atoms: N1_4  and  C1_5 
REMARK    4  A    between atoms: C1_5  and  C2_6 
REMARK    5  A    between atoms: C7_12  and  O3_13 
ROOT
HETATM    1  N1  UNL     1      25.657   2.894  52.821  1.00  0.00    -0.211 NA
HETATM    2  H1  UNL     1      26.062   3.752  53.234  1.00  0.00     0.140 HD
ENDROOT
BRANCH   1   3
HETATM    3  S1  UNL     1      24.082   3.121  52.187  1.00  0.00     0.241 S 
HETATM    4  O1  UNL     1      23.521   4.411  52.684  1.00  0.00    -0.206 OA
HETATM    5  O2  UNL     1      24.109   3.185  50.686  1.00  0.00    -0.206 OA
BRANCH   3   6
HETATM    6  C8  UNL     1      22.994   1.827  52.715  1.00  0.00     0.074 A 
HETATM    7  C9  UNL     1      21.621   1.815  52.587  1.00  0.00     0.026 A 
HETATM    8  C10 UNL     1      20.937   0.713  53.052  1.00  0.00     0.025 A 
HETATM    9  C11 UNL     1      21.526  -0.386  53.640  1.00  0.00     0.034 A 
HETATM   10 CL1  UNL     1      20.600  -1.758  54.212  1.00  0.00    -0.084 Cl
HETATM   11  C12 UNL     1      22.919  -0.381  53.774  1.00  0.00     0.025 A 
HETATM   12  C13 UNL     1      23.626   0.728  53.308  1.00  0.00     0.026 A 
ENDBRANCH   3   6
ENDBRANCH   1   3
BRANCH   1  13
HETATM   13  C1  UNL     1      26.496   2.258  51.822  1.00  0.00     0.145 C 
BRANCH  13  14
HETATM   14  C2  UNL     1      27.389   1.235  52.449  1.00  0.00    -0.011 A 
HETATM   15  C3  UNL     1      27.078  -0.122  52.408  1.00  0.00     0.014 A 
HETATM   16  C4  UNL     1      27.894  -1.089  52.999  1.00  0.00     0.043 A 
HETATM   17  C5  UNL     1      29.035  -0.618  53.632  1.00  0.00     0.119 A 
HETATM   18  F1  UNL     1      29.879  -1.522  54.234  1.00  0.00    -0.206 F 
HETATM   19  C6  UNL     1      29.416   0.723  53.717  1.00  0.00     0.079 A 
HETATM   20  C7  UNL     1      28.539   1.621  53.096  1.00  0.00     0.076 A 
BRANCH  20  21
HETATM   21  O3  UNL     1      28.938   2.959  53.191  1.00  0.00    -0.360 OA
HETATM   22  H7  UNL     1      29.778   3.110  53.769  1.00  0.00     0.217 HD
ENDBRANCH  20  21
ENDBRANCH  13  14
ENDBRANCH   1  13
TORSDOF 5
ENDMDL
MODEL 2
REMARK VINA RESULT:      -7.5      3.619      4.896
REMARK  5 active torsions:
REMARK  status: ('A' for Active; 'I' for Inactive)
REMARK    1  A    between atoms: S1_2  and  N1_4 
REMARK    2  A    between atoms: S1_2  and  C8_14 
REMARK    3  A    between atoms: N1_4  and  C1_5 
REMARK    4  A    between atoms: C1_5  and  C2_6 
REMARK    5  A    between atoms: C7_12  and  O3_13 
ROOT
HETATM    1  N1  UNL     1      24.786   1.296  51.892  1.00  0.00    -0.211 NA
HETATM    2  H1  UNL     1      24.143   0.535  52.171  1.00  0.00     0.140 HD
ENDROOT
BRANCH   1   3
HETATM    3  S1  UNL     1      24.000   2.598  51.104  1.00  0.00     0.241 S 
HETATM    4  O1  UNL     1      23.030   2.069  50.103  1.00  0.00    -0.206 OA
HETATM    5  O2  UNL     1      23.230   3.436  52.086  1.00  0.00    -0.206 OA
BRANCH   3   6
HETATM    6  C8  UNL     1      25.167   3.610  50.236  1.00  0.00     0.074 A 
HETATM    7  C9  UNL     1      26.360   3.189  49.688  1.00  0.00     0.026 A 
HETATM    8  C10 UNL     1      27.139   4.122  49.040  1.00  0.00     0.025 A 
HETATM    9  C11 UNL     1      26.814   5.454  48.897  1.00  0.00     0.034 A 
HETATM   10 CL1  UNL     1      27.849   6.593  48.061  1.00  0.00    -0.084 Cl
HETATM   11  C12 UNL     1      25.605   5.889  49.451  1.00  0.00     0.025 A 
HETATM   12  C13 UNL     1      24.804   4.956  50.111  1.00  0.00     0.026 A 
ENDBRANCH   3   6
ENDBRANCH   1   3
BRANCH   1  13
HETATM   13  C1  UNL     1      25.611   1.806  52.971  1.00  0.00     0.145 C 
BRANCH  13  14
HETATM   14  C2  UNL     1      26.829   0.958  53.158  1.00  0.00    -0.011 A 
HETATM   15  C3  UNL     1      26.831  -0.393  52.820  1.00  0.00     0.014 A 
HETATM   16  C4  UNL     1      27.955  -1.202  53.001  1.00  0.00     0.043 A 
HETATM   17  C5  UNL     1      29.073  -0.579  53.537  1.00  0.00     0.119 A 
HETATM   18  F1  UNL     1      30.212  -1.323  53.738  1.00  0.00    -0.206 F 
HETATM   19  C6  UNL     1      29.151   0.767  53.901  1.00  0.00     0.079 A 
HETATM   20  C7  UNL     1      27.977   1.500  53.685  1.00  0.00     0.076 A 
BRANCH  20  21
HETATM   21  O3  UNL     1      28.075   2.847  54.054  1.00  0.00    -0.360 OA
HETATM   22  H7  UNL     1      27.897   3.024  55.054  1.00  0.00     0.217 HD
ENDBRANCH  20  21
ENDBRANCH  13  14
ENDBRANCH   1  13
TORSDOF 5
ENDMDL
MODEL 3
REMARK VINA RESULT:      -7.4      3.898      5.247
REMARK  5 active torsions:
REMARK  status: ('A' for Active; 'I' for Inactive)
REMARK    1  A    between atoms: S1_2  and  N1_4 
REMARK    2  A    between atoms: S1_2  and  C8_14 
REMARK    3  A    between atoms: N1_4  and  C1_5 
REMARK    4  A    between atoms: C1_5  and  C2_6 
REMARK    5  A    between atoms: C7_12  and  O3_13 
ROOT
HETATM    1  N1  UNL     1      27.302   2.928  51.604  1.00  0.00    -0.211 NA
HETATM    2  H1  UNL     1      27.171   3.924  51.854  1.00  0.00     0.140 HD
ENDROOT
BRANCH   1   3
HETATM    3  S1  UNL     1      26.998   1.853  52.902  1.00  0.00     0.241 S 
HETATM    4  O1  UNL     1      27.775   0.595  52.707  1.00  0.00    -0.206 OA
HETATM    5  O2  UNL     1      27.426   2.454  54.211  1.00  0.00    -0.206 OA
BRANCH   3   6
HETATM    6  C8  UNL     1      25.283   1.416  52.975  1.00  0.00     0.074 A 
HETATM    7  C9  UNL     1      24.217   2.289  52.912  1.00  0.00     0.026 A 
HETATM    8  C10 UNL     1      22.945   1.763  52.978  1.00  0.00     0.025 A 
HETATM    9  C11 UNL     1      22.656   0.421  53.103  1.00  0.00     0.034 A 
HETATM   10 CL1  UNL     1      21.015  -0.187  53.181  1.00  0.00    -0.084 Cl
HETATM   11  C12 UNL     1      23.732  -0.472  53.167  1.00  0.00     0.025 A 
HETATM   12  C13 UNL     1      25.027   0.045  53.101  1.00  0.00     0.026 A 
ENDBRANCH   3   6
ENDBRANCH   1   3
BRANCH   1  13
HETATM   13  C1  UNL     1      26.553   2.503  50.435  1.00  0.00     0.145 C 
BRANCH  13  14
HETATM   14  C2  UNL     1      25.879   3.668  49.782  1.00  0.00    -0.011 A 
HETATM   15  C3  UNL     1      24.496   3.708  49.619  1.00  0.00     0.014 A 
HETATM   16  C4  UNL     1      23.853   4.782  48.999  1.00  0.00     0.043 A 
HETATM   17  C5  UNL     1      24.674   5.809  48.554  1.00  0.00     0.119 A 
HETATM   18  F1  UNL     1      24.098   6.895  47.936  1.00  0.00    -0.206 F 
HETATM   19  C6  UNL     1      26.064   5.843  48.680  1.00  0.00     0.079 A 
HETATM   20  C7  UNL     1      26.622   4.726  49.313  1.00  0.00     0.076 A 
BRANCH  20  21
HETATM   21  O3  UNL     1      28.016   4.778  49.430  1.00  0.00    -0.360 OA
HETATM   22  H7  UNL     1      28.413   5.723  49.321  1.00  0.00     0.217 HD
ENDBRANCH  20  21
ENDBRANCH  13  14
ENDBRANCH   1  13
TORSDOF 5
ENDMDL
MODEL 4
REMARK VINA RESULT:      -7.3      4.103      6.195
REMARK  5 active torsions:
REMARK  status: ('A' for Active; 'I' for Inactive)
REMARK    1  A    between atoms: S1_2  and  N1_4 
REMARK    2  A    between atoms: S1_2  and  C8_14 
REMARK    3  A    between atoms: N1_4  and  C1_5 
REMARK    4  A    between atoms: C1_5  and  C2_6 
REMARK    5  A    between atoms: C7_12  and  O3_13 
ROOT
HETATM    1  N1  UNL     1      25.685  -0.108  52.887  1.00  0.00    -0.211 NA
HETATM    2  H1  UNL     1      25.105  -0.231  52.039  1.00  0.00     0.140 HD
ENDROOT
BRANCH   1   3
HETATM    3  S1  UNL     1      26.471   1.413  52.959  1.00  0.00     0.241 S 
HETATM    4  O1  UNL     1      26.163   2.077  54.259  1.00  0.00    -0.206 OA
HETATM    5  O2  UNL     1      27.962   1.253  52.872  1.00  0.00    -0.206 OA
BRANCH   3   6
HETATM    6  C8  UNL     1      25.904   2.481  51.665  1.00  0.00     0.074 A 
HETATM    7  C9  UNL     1      26.560   2.745  50.482  1.00  0.00     0.026 A 
HETATM    8  C10 UNL     1      25.959   3.603  49.586  1.00  0.00     0.025 A 
HETATM    9  C11 UNL     1      24.743   4.221  49.786  1.00  0.00     0.034 A 
HETATM   10 CL1  UNL     1      24.031   5.302  48.606  1.00  0.00    -0.084 Cl
HETATM   11  C12 UNL     1      24.071   3.959  50.985  1.00  0.00     0.025 A 
HETATM   12  C13 UNL     1      24.666   3.092  51.903  1.00  0.00     0.026 A 
ENDBRANCH   3   6
ENDBRANCH   1   3
BRANCH   1  13
HETATM   13  C1  UNL     1      24.981  -0.351  54.133  1.00  0.00     0.145 C 
BRANCH  13  14
HETATM   14  C2  UNL     1      23.508  -0.470  53.898  1.00  0.00    -0.011 A 
HETATM   15  C3  UNL     1      22.901   0.115  52.789  1.00  0.00     0.014 A 
HETATM   16  C4  UNL     1      21.526   0.024  52.563  1.00  0.00     0.043 A 
HETATM   17  C5  UNL     1      20.798  -0.685  53.508  1.00  0.00     0.119 A 
HETATM   18  F1  UNL     1      19.439  -0.810  53.339  1.00  0.00    -0.206 F 
HETATM   19  C6  UNL     1      21.332  -1.299  54.643  1.00  0.00     0.079 A 
HETATM   20  C7  UNL     1      22.717  -1.156  54.789  1.00  0.00     0.076 A 
BRANCH  20  21
HETATM   21  O3  UNL     1      23.233  -1.779  55.932  1.00  0.00    -0.360 OA
HETATM   22  H7  UNL     1      23.594  -2.730  55.767  1.00  0.00     0.217 HD
ENDBRANCH  20  21
ENDBRANCH  13  14
ENDBRANCH   1  13
TORSDOF 5
ENDMDL
MODEL 5
REMARK VINA RESULT:      -7.2      3.789      5.218
REMARK  5 active torsions:
REMARK  status: ('A' for Active; 'I' for Inactive)
REMARK    1  A    between atoms: S1_2  and  N1_4 
REMARK    2  A    between atoms: S1_2  and  C8_14 
REMARK    3  A    between atoms: N1_4  and  C1_5 
REMARK    4  A    between atoms: C1_5  and  C2_6 
REMARK    5  A    between atoms: C7_12  and  O3_13 
ROOT
HETATM    1  N1  UNL     1      23.197   1.708  50.863  1.00  0.00    -0.211 NA
HETATM    2  H1  UNL     1      22.682   1.042  50.261  1.00  0.00     0.140 HD
ENDROOT
BRANCH   1   3
HETATM    3  S1  UNL     1      22.955   3.347  50.428  1.00  0.00     0.241 S 
HETATM    4  O1  UNL     1      21.926   3.436  49.353  1.00  0.00    -0.206 OA
HETATM    5  O2  UNL     1      22.459   4.148  51.599  1.00  0.00    -0.206 OA
BRANCH   3   6
HETATM    6  C8  UNL     1      24.449   4.063  49.800  1.00  0.00     0.074 A 
HETATM    7  C9  UNL     1      24.591   5.338  49.296  1.00  0.00     0.026 A 
HETATM    8  C10 UNL     1      25.838   5.725  48.856  1.00  0.00     0.025 A 
HETATM    9  C11 UNL     1      26.962   4.927  48.881  1.00  0.00     0.034 A 
HETATM   10 CL1  UNL     1      28.522   5.478  48.306  1.00  0.00    -0.084 Cl
HETATM   11  C12 UNL     1      26.826   3.631  49.390  1.00  0.00     0.025 A 
HETATM   12  C13 UNL     1      25.569   3.224  49.841  1.00  0.00     0.026 A 
ENDBRANCH   3   6
ENDBRANCH   1   3
BRANCH   1  13
HETATM   13  C1  UNL     1      22.952   1.540  52.284  1.00  0.00     0.145 C 
BRANCH  13  14
HETATM   14  C2  UNL     1      24.195   1.097  52.990  1.00  0.00    -0.011 A 
HETATM   15  C3  UNL     1      24.447  -0.251  53.236  1.00  0.00     0.014 A 
HETATM   16  C4  UNL     1      25.595  -0.680  53.905  1.00  0.00     0.043 A 
HETATM   17  C5  UNL     1      26.472   0.316  54.311  1.00  0.00     0.119 A 
HETATM   18  F1  UNL     1      27.622  -0.045  54.974  1.00  0.00    -0.206 F 
HETATM   19  C6  UNL     1      26.292   1.685  54.102  1.00  0.00     0.079 A 
HETATM   20  C7  UNL     1      25.114   2.023  53.424  1.00  0.00     0.076 A 
BRANCH  20  21
HETATM   21  O3  UNL     1      24.951   3.399  53.223  1.00  0.00    -0.360 OA
HETATM   22  H7  UNL     1      24.689   3.921  54.072  1.00  0.00     0.217 HD
ENDBRANCH  20  21
ENDBRANCH  13  14
ENDBRANCH   1  13
TORSDOF 5
ENDMDL
MODEL 6
REMARK VINA RESULT:      -7.0      2.122      2.695
REMARK  5 active torsions:
REMARK  status: ('A' for Active; 'I' for Inactive)
REMARK    1  A    between atoms: S1_2  and  N1_4 
REMARK    2  A    between atoms: S1_2  and  C8_14 
REMARK    3  A    between atoms: N1_4  and  C1_5 
REMARK    4  A    between atoms: C1_5  and  C2_6 
REMARK    5  A    between atoms: C7_12  and  O3_13 
ROOT
HETATM    1  N1  UNL     1      24.875   0.713  53.727  1.00  0.00    -0.211 NA
HETATM    2  H1  UNL     1      25.634   1.313  54.095  1.00  0.00     0.140 HD
ENDROOT
BRANCH   1   3
HETATM    3  S1  UNL     1      23.850   1.517  52.615  1.00  0.00     0.241 S 
HETATM    4  O1  UNL     1      23.774   2.967  52.957  1.00  0.00    -0.206 OA
HETATM    5  O2  UNL     1      24.384   1.409  51.214  1.00  0.00    -0.206 OA
BRANCH   3   6
HETATM    6  C8  UNL     1      22.205   0.865  52.683  1.00  0.00     0.074 A 
HETATM    7  C9  UNL     1      21.573   0.366  53.803  1.00  0.00     0.026 A 
HETATM    8  C10 UNL     1      20.282  -0.095  53.666  1.00  0.00     0.025 A 
HETATM    9  C11 UNL     1      19.570  -0.096  52.486  1.00  0.00     0.034 A 
HETATM   10 CL1  UNL     1      17.928  -0.697  52.376  1.00  0.00    -0.084 Cl
HETATM   11  C12 UNL     1      20.204   0.408  51.345  1.00  0.00     0.025 A 
HETATM   12  C13 UNL     1      21.512   0.880  51.467  1.00  0.00     0.026 A 
ENDBRANCH   3   6
ENDBRANCH   1   3
BRANCH   1  13
HETATM   13  C1  UNL     1      25.329  -0.540  53.152  1.00  0.00     0.145 C 
BRANCH  13  14
HETATM   14  C2  UNL     1      26.793  -0.736  53.390  1.00  0.00    -0.011 A 
HETATM   15  C3  UNL     1      27.529   0.162  54.160  1.00  0.00     0.014 A 
HETATM   16  C4  UNL     1      28.898   0.000  54.381  1.00  0.00     0.043 A 
HETATM   17  C5  UNL     1      29.485  -1.108  53.786  1.00  0.00     0.119 A 
HETATM   18  F1  UNL     1      30.831  -1.321  53.967  1.00  0.00    -0.206 F 
HETATM   19  C6  UNL     1      28.817  -2.051  53.001  1.00  0.00     0.079 A 
HETATM   20  C7  UNL     1      27.448  -1.809  52.834  1.00  0.00     0.076 A 
BRANCH  20  21
HETATM   21  O3  UNL     1      26.796  -2.765  52.046  1.00  0.00    -0.360 OA
HETATM   22  H7  UNL     1      25.784  -2.838  52.222  1.00  0.00     0.217 HD
ENDBRANCH  20  21
ENDBRANCH  13  14
ENDBRANCH   1  13
TORSDOF 5
ENDMDL
MODEL 7
REMARK VINA RESULT:      -7.0      1.665      1.768
REMARK  5 active torsions:
REMARK  status: ('A' for Active; 'I' for Inactive)
REMARK    1  A    between atoms: S1_2  and  N1_4 
REMARK    2  A    between atoms: S1_2  and  C8_14 
REMARK    3  A    between atoms: N1_4  and  C1_5 
REMARK    4  A    between atoms: C1_5  and  C2_6 
REMARK    5  A    between atoms: C7_12  and  O3_13 
ROOT
HETATM    1  N1  UNL     1      25.532   3.346  51.914  1.00  0.00    -0.211 NA
HETATM    2  H1  UNL     1      26.424   3.154  51.425  1.00  0.00     0.140 HD
ENDROOT
BRANCH   1   3
HETATM    3  S1  UNL     1      24.224   3.647  50.851  1.00  0.00     0.241 S 
HETATM    4  O1  UNL     1      23.858   5.093  50.899  1.00  0.00    -0.206 OA
HETATM    5  O2  UNL     1      24.595   3.320  49.432  1.00  0.00    -0.206 OA
BRANCH   3   6
HETATM    6  C8  UNL     1      22.793   2.718  51.327  1.00  0.00     0.074 A 
HETATM    7  C9  UNL     1      21.801   3.135  52.189  1.00  0.00     0.026 A 
HETATM    8  C10 UNL     1      20.756   2.273  52.438  1.00  0.00     0.025 A 
HETATM    9  C11 UNL     1      20.626   1.016  51.887  1.00  0.00     0.034 A 
HETATM   10 CL1  UNL     1      19.270  -0.034  52.243  1.00  0.00    -0.084 Cl
HETATM   11  C12 UNL     1      21.628   0.585  51.011  1.00  0.00     0.025 A 
HETATM   12  C13 UNL     1      22.695   1.446  50.748  1.00  0.00     0.026 A 
ENDBRANCH   3   6
ENDBRANCH   1   3
BRANCH   1  13
HETATM   13  C1  UNL     1      25.151   2.332  52.880  1.00  0.00     0.145 C 
BRANCH  13  14
HETATM   14  C2  UNL     1      26.209   1.281  52.995  1.00  0.00    -0.011 A 
HETATM   15  C3  UNL     1      25.995  -0.017  52.537  1.00  0.00     0.014 A 
HETATM   16  C4  UNL     1      26.967  -1.013  52.649  1.00  0.00     0.043 A 
HETATM   17  C5  UNL     1      28.162  -0.633  53.244  1.00  0.00     0.119 A 
HETATM   18  F1  UNL     1      29.159  -1.571  53.382  1.00  0.00    -0.206 F 
HETATM   19  C6  UNL     1      28.454   0.644  53.727  1.00  0.00     0.079 A 
HETATM   20  C7  UNL     1      27.421   1.578  53.573  1.00  0.00     0.076 A 
BRANCH  20  21
HETATM   21  O3  UNL     1      27.732   2.852  54.062  1.00  0.00    -0.360 OA
HETATM   22  H7  UNL     1      28.683   2.935  54.448  1.00  0.00     0.217 HD
ENDBRANCH  20  21
ENDBRANCH  13  14
ENDBRANCH   1  13
TORSDOF 5
ENDMDL
MODEL 8
REMARK VINA RESULT:      -6.9      3.177      3.875
REMARK  5 active torsions:
REMARK  status: ('A' for Active; 'I' for Inactive)
REMARK    1  A    between atoms: S1_2  and  N1_4 
REMARK    2  A    between atoms: S1_2  and  C8_14 
REMARK    3  A    between atoms: N1_4  and  C1_5 
REMARK    4  A    between atoms: C1_5  and  C2_6 
REMARK    5  A    between atoms: C7_12  and  O3_13 
ROOT
HETATM    1  N1  UNL     1      26.037   2.568  52.464  1.00  0.00    -0.211 NA
HETATM    2  H1  UNL     1      26.351   2.000  51.658  1.00  0.00     0.140 HD
ENDROOT
BRANCH   1   3
HETATM    3  S1  UNL     1      24.349   2.858  52.477  1.00  0.00     0.241 S 
HETATM    4  O1  UNL     1      23.642   1.688  53.072  1.00  0.00    -0.206 OA
HETATM    5  O2  UNL     1      24.016   4.063  53.312  1.00  0.00    -0.206 OA
BRANCH   3   6
HETATM    6  C8  UNL     1      23.731   3.077  50.832  1.00  0.00     0.074 A 
HETATM    7  C9  UNL     1      24.014   4.132  49.990  1.00  0.00     0.026 A 
HETATM    8  C10 UNL     1      23.444   4.129  48.736  1.00  0.00     0.025 A 
HETATM    9  C11 UNL     1      22.605   3.146  48.257  1.00  0.00     0.034 A 
HETATM   10 CL1  UNL     1      21.910   3.201  46.650  1.00  0.00    -0.084 Cl
HETATM   11  C12 UNL     1      22.311   2.073  49.106  1.00  0.00     0.025 A 
HETATM   12  C13 UNL     1      22.882   2.060  50.379  1.00  0.00     0.026 A 
ENDBRANCH   3   6
ENDBRANCH   1   3
BRANCH   1  13
HETATM   13  C1  UNL     1      26.453   2.053  53.756  1.00  0.00     0.145 C 
BRANCH  13  14
HETATM   14  C2  UNL     1      27.292   0.825  53.595  1.00  0.00    -0.011 A 
HETATM   15  C3  UNL     1      28.658   0.840  53.869  1.00  0.00     0.014 A 
HETATM   16  C4  UNL     1      29.458  -0.294  53.711  1.00  0.00     0.043 A 
HETATM   17  C5  UNL     1      28.812  -1.438  53.264  1.00  0.00     0.119 A 
HETATM   18  F1  UNL     1      29.547  -2.587  53.090  1.00  0.00    -0.206 F 
HETATM   19  C6  UNL     1      27.450  -1.533  52.969  1.00  0.00     0.079 A 
HETATM   20  C7  UNL     1      26.727  -0.348  53.156  1.00  0.00     0.076 A 
BRANCH  20  21
HETATM   21  O3  UNL     1      25.365  -0.463  52.855  1.00  0.00    -0.360 OA
HETATM   22  H7  UNL     1      24.881  -1.214  53.370  1.00  0.00     0.217 HD
ENDBRANCH  20  21
ENDBRANCH  13  14
ENDBRANCH   1  13
TORSDOF 5
ENDMDL
MODEL 9
REMARK VINA RESULT:      -6.8      4.840      6.468
REMARK  5 active torsions:
REMARK  status: ('A' for Active; 'I' for Inactive)
REMARK    1  A    between atoms: S1_2  and  N1_4 
REMARK    2  A    between atoms: S1_2  and  C8_14 
REMARK    3  A    between atoms: N1_4  and  C1_5 
REMARK    4  A    between atoms: C1_5  and  C2_6 
REMARK    5  A    between atoms: C7_12  and  O3_13 
ROOT
HETATM    1  N1  UNL     1      25.212   4.249  51.061  1.00  0.00    -0.211 NA
HETATM    2  H1  UNL     1      26.145   4.473  51.450  1.00  0.00     0.140 HD
ENDROOT
BRANCH   1   3
HETATM    3  S1  UNL     1      24.799   5.193  49.693  1.00  0.00     0.241 S 
HETATM    4  O1  UNL     1      24.083   4.347  48.695  1.00  0.00    -0.206 OA
HETATM    5  O2  UNL     1      23.883   6.322  50.073  1.00  0.00    -0.206 OA
BRANCH   3   6
HETATM    6  C8  UNL     1      26.250   5.836  48.905  1.00  0.00     0.074 A 
HETATM    7  C9  UNL     1      26.389   7.093  48.356  1.00  0.00     0.026 A 
HETATM    8  C10 UNL     1      27.601   7.421  47.789  1.00  0.00     0.025 A 
HETATM    9  C11 UNL     1      28.692   6.582  47.728  1.00  0.00     0.034 A 
HETATM   10 CL1  UNL     1      30.208   7.058  46.992  1.00  0.00    -0.084 Cl
HETATM   11  C12 UNL     1      28.559   5.304  48.282  1.00  0.00     0.025 A 
HETATM   12  C13 UNL     1      27.338   4.956  48.861  1.00  0.00     0.026 A 
ENDBRANCH   3   6
ENDBRANCH   1   3
BRANCH   1  13
HETATM   13  C1  UNL     1      25.012   2.844  50.761  1.00  0.00     0.145 C 
BRANCH  13  14
HETATM   14  C2  UNL     1      25.406   1.989  51.925  1.00  0.00    -0.011 A 
HETATM   15  C3  UNL     1      24.497   1.124  52.529  1.00  0.00     0.014 A 
HETATM   16  C4  UNL     1      24.844   0.330  53.624  1.00  0.00     0.043 A 
HETATM   17  C5  UNL     1      26.150   0.453  54.075  1.00  0.00     0.119 A 
HETATM   18  F1  UNL     1      26.552  -0.304  55.151  1.00  0.00    -0.206 F 
HETATM   19  C6  UNL     1      27.119   1.295  53.525  1.00  0.00     0.079 A 
HETATM   20  C7  UNL     1      26.682   2.054  52.432  1.00  0.00     0.076 A 
BRANCH  20  21
HETATM   21  O3  UNL     1      27.666   2.891  51.894  1.00  0.00    -0.360 OA
HETATM   22  H7  UNL     1      27.306   3.787  51.533  1.00  0.00     0.217 HD
ENDBRANCH  20  21
ENDBRANCH  13  14
ENDBRANCH   1  13
TORSDOF 5
ENDMDL
