MODEL 1
REMARK VINA RESULT:      -9.5      0.000      0.000
REMARK  4 active torsions:
REMARK  status: ('A' for Active; 'I' for Inactive)
REMARK    1  A    between atoms: C3_3  and  N1_4 
REMARK    2  A    between atoms: C12_18  and  C13_19 
REMARK    3  A    between atoms: C13_19  and  C14_20 
REMARK    4  A    between atoms: C19_25  and  O1_26 
ROOT
HETATM    1  C1  UNL     1      24.529  -1.102  53.435  1.00  0.00     0.051 C 
HETATM    2  C2  UNL     1      23.920   0.233  53.231  1.00  0.00    -0.030 C 
HETATM    3  C3  UNL     1      22.870   1.135  53.259  1.00  0.00     0.051 C 
HETATM    4  C9  UNL     1      23.204   2.541  52.782  1.00  0.00     0.065 C 
HETATM    5  C10 UNL     1      23.733   2.680  51.389  1.00  0.00    -0.015 C 
HETATM    6  C11 UNL     1      24.848   2.297  50.677  1.00  0.00     0.005 C 
HETATM    7  C12 UNL     1      25.643   1.301  51.505  1.00  0.00    -0.047 C 
HETATM    8  C20 UNL     1      24.838   1.280  52.622  1.00  0.00    -0.043 C 
HETATM    9  C21 UNL     1      24.606   2.551  53.519  1.00  0.00     0.054 C 
ENDROOT
BRANCH   3  10
HETATM   10  N1  UNL     1      21.705   0.417  53.772  1.00  0.00    -0.236 NA
HETATM   11  C4  UNL     1      20.725   0.081  53.006  1.00  0.00     0.151 C 
HETATM   12  C5  UNL     1      20.545   0.312  51.555  1.00  0.00     0.151 C 
HETATM   13  N5  UNL     1      19.703  -0.601  53.701  1.00  0.00    -0.048 NA
HETATM   14  C6  UNL     1      19.107   0.386  51.213  1.00  0.00     0.105 C 
HETATM   15  S1  UNL     1      18.603   1.282  49.945  1.00  0.00    -0.064 SA
HETATM   16  N2  UNL     1      18.126  -0.304  51.956  1.00  0.00    -0.160 N 
HETATM   17  C7  UNL     1      16.733  -0.688  51.765  1.00  0.00     0.259 C 
HETATM   18  C8  UNL     1      18.504  -0.799  53.258  1.00  0.00     0.720 C 
HETATM   19  N3  UNL     1      16.256  -0.935  53.103  1.00  0.00    -0.207 NA
HETATM   20  N4  UNL     1      17.347  -1.459  53.811  1.00  0.00    -0.150 N 
HETATM   21  H8  UNL     1      16.011  -0.025  53.553  1.00  0.00     0.149 HD
HETATM   22  H9  UNL     1      17.348  -2.170  54.572  1.00  0.00     0.199 HD
ENDBRANCH   3  10
BRANCH   7  23
HETATM   23  C13 UNL     1      26.759   0.381  51.549  1.00  0.00     0.080 C 
BRANCH  23  24
HETATM   24  C14 UNL     1      27.650   0.857  52.647  1.00  0.00    -0.021 A 
HETATM   25  C15 UNL     1      27.954   2.184  52.684  1.00  0.00     0.010 A 
HETATM   26  C16 UNL     1      28.783   2.571  53.729  1.00  0.00     0.001 A 
HETATM   27  C17 UNL     1      29.300   1.739  54.694  1.00  0.00     0.003 A 
HETATM   28  C18 UNL     1      28.961   0.402  54.611  1.00  0.00     0.037 A 
HETATM   29  C19 UNL     1      28.149  -0.018  53.600  1.00  0.00     0.072 A 
BRANCH  29  30
HETATM   30  O1  UNL     1      27.834  -1.378  53.557  1.00  0.00    -0.360 OA
HETATM   31  H19 UNL     1      28.606  -2.008  53.316  1.00  0.00     0.217 HD
ENDBRANCH  29  30
ENDBRANCH  23  24
ENDBRANCH   7  23
TORSDOF 4
ENDMDL
MODEL 2
REMARK VINA RESULT:      -9.3      2.676      3.206
REMARK  4 active torsions:
REMARK  status: ('A' for Active; 'I' for Inactive)
REMARK    1  A    between atoms: C3_3  and  N1_4 
REMARK    2  A    between atoms: C12_18  and  C13_19 
REMARK    3  A    between atoms: C13_19  and  C14_20 
REMARK    4  A    between atoms: C19_25  and  O1_26 
ROOT
HETATM    1  C1  UNL     1      22.999  -0.516  53.454  1.00  0.00     0.051 C 
HETATM    2  C2  UNL     1      23.344   0.872  53.071  1.00  0.00    -0.030 C 
HETATM    3  C3  UNL     1      23.035   2.173  52.711  1.00  0.00     0.051 C 
HETATM    4  C9  UNL     1      24.230   3.080  52.451  1.00  0.00     0.065 C 
HETATM    5  C10 UNL     1      25.191   2.654  51.386  1.00  0.00    -0.015 C 
HETATM    6  C11 UNL     1      26.071   1.619  51.160  1.00  0.00     0.005 C 
HETATM    7  C12 UNL     1      25.838   0.538  52.202  1.00  0.00    -0.047 C 
HETATM    8  C20 UNL     1      24.829   1.153  52.909  1.00  0.00    -0.043 C 
HETATM    9  C21 UNL     1      25.043   2.506  53.682  1.00  0.00     0.054 C 
ENDROOT
BRANCH   3  10
HETATM   10  N1  UNL     1      21.577   2.277  52.697  1.00  0.00    -0.236 NA
HETATM   11  C4  UNL     1      20.940   2.735  51.675  1.00  0.00     0.151 C 
HETATM   12  C5  UNL     1      21.467   3.224  50.381  1.00  0.00     0.151 C 
HETATM   13  N5  UNL     1      19.542   2.752  51.871  1.00  0.00    -0.048 NA
HETATM   14  C6  UNL     1      20.551   4.225  49.790  1.00  0.00     0.105 C 
HETATM   15  S1  UNL     1      21.129   5.402  48.818  1.00  0.00    -0.064 SA
HETATM   16  N2  UNL     1      19.162   4.204  50.036  1.00  0.00    -0.160 N 
HETATM   17  C7  UNL     1      17.975   4.804  49.439  1.00  0.00     0.259 C 
HETATM   18  C8  UNL     1      18.696   3.409  51.146  1.00  0.00     0.720 C 
HETATM   19  N3  UNL     1      16.986   4.728  50.486  1.00  0.00    -0.207 NA
HETATM   20  N4  UNL     1      17.260   3.546  51.190  1.00  0.00    -0.150 N 
HETATM   21  H8  UNL     1      17.131   5.519  51.152  1.00  0.00     0.149 HD
HETATM   22  H9  UNL     1      16.593   2.894  51.653  1.00  0.00     0.199 HD
ENDBRANCH   3  10
BRANCH   7  23
HETATM   23  C13 UNL     1      26.163  -0.799  52.653  1.00  0.00     0.080 C 
BRANCH  23  24
HETATM   24  C14 UNL     1      27.603  -0.771  53.041  1.00  0.00    -0.021 A 
HETATM   25  C15 UNL     1      28.140   0.430  53.394  1.00  0.00     0.010 A 
HETATM   26  C16 UNL     1      29.481   0.396  53.748  1.00  0.00     0.001 A 
HETATM   27  C17 UNL     1      30.279  -0.725  53.768  1.00  0.00     0.003 A 
HETATM   28  C18 UNL     1      29.686  -1.918  53.402  1.00  0.00     0.037 A 
HETATM   29  C19 UNL     1      28.369  -1.927  53.047  1.00  0.00     0.072 A 
BRANCH  29  30
HETATM   30  O1  UNL     1      27.814  -3.155  52.684  1.00  0.00    -0.360 OA
HETATM   31  H19 UNL     1      26.798  -3.237  52.795  1.00  0.00     0.217 HD
ENDBRANCH  29  30
ENDBRANCH  23  24
ENDBRANCH   7  23
TORSDOF 4
ENDMDL
MODEL 3
REMARK VINA RESULT:      -9.3      2.620      3.806
REMARK  4 active torsions:
REMARK  status: ('A' for Active; 'I' for Inactive)
REMARK    1  A    between atoms: C3_3  and  N1_4 
REMARK    2  A    between atoms: C12_18  and  C13_19 
REMARK    3  A    between atoms: C13_19  and  C14_20 
REMARK    4  A    between atoms: C19_25  and  O1_26 
ROOT
HETATM    1  C1  UNL     1      23.588   2.694  52.646  1.00  0.00     0.051 C 
HETATM    2  C2  UNL     1      22.825   1.471  52.987  1.00  0.00    -0.030 C 
HETATM    3  C3  UNL     1      21.662   0.769  53.258  1.00  0.00     0.051 C 
HETATM    4  C9  UNL     1      21.849  -0.710  53.567  1.00  0.00     0.065 C 
HETATM    5  C10 UNL     1      22.731  -1.058  54.725  1.00  0.00    -0.015 C 
HETATM    6  C11 UNL     1      24.058  -0.935  55.069  1.00  0.00     0.005 C 
HETATM    7  C12 UNL     1      24.746  -0.023  54.067  1.00  0.00    -0.047 C 
HETATM    8  C20 UNL     1      23.665   0.232  53.253  1.00  0.00    -0.043 C 
HETATM    9  C21 UNL     1      22.939  -0.897  52.434  1.00  0.00     0.054 C 
ENDROOT
BRANCH   3  10
HETATM   10  N1  UNL     1      20.556   1.719  53.150  1.00  0.00    -0.236 NA
HETATM   11  C4  UNL     1      19.980   1.963  52.024  1.00  0.00     0.151 C 
HETATM   12  C5  UNL     1      20.262   1.402  50.683  1.00  0.00     0.151 C 
HETATM   13  N5  UNL     1      18.940   2.910  52.141  1.00  0.00    -0.048 NA
HETATM   14  C6  UNL     1      19.882   2.364  49.625  1.00  0.00     0.105 C 
HETATM   15  S1  UNL     1      20.665   2.369  48.192  1.00  0.00    -0.064 SA
HETATM   16  N2  UNL     1      18.845   3.302  49.805  1.00  0.00    -0.160 N 
HETATM   17  C7  UNL     1      18.037   4.162  48.948  1.00  0.00     0.259 C 
HETATM   18  C8  UNL     1      18.394   3.543  51.154  1.00  0.00     0.720 C 
HETATM   19  N3  UNL     1      17.532   5.170  49.846  1.00  0.00    -0.207 NA
HETATM   20  N4  UNL     1      17.341   4.527  51.078  1.00  0.00    -0.150 N 
HETATM   21  H8  UNL     1      18.266   5.897  49.993  1.00  0.00     0.149 HD
HETATM   22  H9  UNL     1      16.609   4.703  51.798  1.00  0.00     0.199 HD
ENDBRANCH   3  10
BRANCH   7  23
HETATM   23  C13 UNL     1      25.953   0.691  53.709  1.00  0.00     0.080 C 
BRANCH  23  24
HETATM   24  C14 UNL     1      27.006  -0.345  53.502  1.00  0.00    -0.021 A 
HETATM   25  C15 UNL     1      26.669  -1.456  52.790  1.00  0.00     0.010 A 
HETATM   26  C16 UNL     1      27.689  -2.384  52.626  1.00  0.00     0.001 A 
HETATM   27  C17 UNL     1      28.969  -2.266  53.115  1.00  0.00     0.003 A 
HETATM   28  C18 UNL     1      29.259  -1.120  53.831  1.00  0.00     0.037 A 
HETATM   29  C19 UNL     1      28.285  -0.183  54.013  1.00  0.00     0.072 A 
BRANCH  29  30
HETATM   30  O1  UNL     1      28.625   0.958  54.743  1.00  0.00    -0.360 OA
HETATM   31  H19 UNL     1      29.380   0.843  55.426  1.00  0.00     0.217 HD
ENDBRANCH  29  30
ENDBRANCH  23  24
ENDBRANCH   7  23
TORSDOF 4
ENDMDL
MODEL 4
REMARK VINA RESULT:      -9.1      4.629      6.326
REMARK  4 active torsions:
REMARK  status: ('A' for Active; 'I' for Inactive)
REMARK    1  A    between atoms: C3_3  and  N1_4 
REMARK    2  A    between atoms: C12_18  and  C13_19 
REMARK    3  A    between atoms: C13_19  and  C14_20 
REMARK    4  A    between atoms: C19_25  and  O1_26 
ROOT
HETATM    1  C1  UNL     1      22.755   5.951  51.805  1.00  0.00     0.051 C 
HETATM    2  C2  UNL     1      23.143   4.839  50.906  1.00  0.00    -0.030 C 
HETATM    3  C3  UNL     1      23.084   3.532  50.453  1.00  0.00     0.051 C 
HETATM    4  C9  UNL     1      23.992   3.207  49.276  1.00  0.00     0.065 C 
HETATM    5  C10 UNL     1      25.459   3.435  49.463  1.00  0.00    -0.015 C 
HETATM    6  C11 UNL     1      26.308   4.498  49.678  1.00  0.00     0.005 C 
HETATM    7  C12 UNL     1      25.482   5.732  50.000  1.00  0.00    -0.047 C 
HETATM    8  C20 UNL     1      24.229   5.168  49.895  1.00  0.00    -0.043 C 
HETATM    9  C21 UNL     1      23.679   4.577  48.546  1.00  0.00     0.054 C 
ENDROOT
BRANCH   3  10
HETATM   10  N1  UNL     1      22.110   2.834  51.290  1.00  0.00    -0.236 NA
HETATM   11  C4  UNL     1      22.476   2.066  52.258  1.00  0.00     0.151 C 
HETATM   12  C5  UNL     1      23.839   1.727  52.725  1.00  0.00     0.151 C 
HETATM   13  N5  UNL     1      21.380   1.490  52.936  1.00  0.00    -0.048 NA
HETATM   14  C6  UNL     1      23.856   0.390  53.359  1.00  0.00     0.105 C 
HETATM   15  S1  UNL     1      25.209  -0.523  53.326  1.00  0.00    -0.064 SA
HETATM   16  N2  UNL     1      22.723  -0.143  54.008  1.00  0.00    -0.160 N 
HETATM   17  C7  UNL     1      22.456  -1.230  54.942  1.00  0.00     0.259 C 
HETATM   18  C8  UNL     1      21.450   0.482  53.744  1.00  0.00     0.720 C 
HETATM   19  N3  UNL     1      21.043  -1.479  54.788  1.00  0.00    -0.207 NA
HETATM   20  N4  UNL     1      20.461  -0.233  54.514  1.00  0.00    -0.150 N 
HETATM   21  H8  UNL     1      20.891  -2.078  53.947  1.00  0.00     0.149 HD
HETATM   22  H9  UNL     1      19.522   0.123  54.793  1.00  0.00     0.199 HD
ENDBRANCH   3  10
BRANCH   7  23
HETATM   23  C13 UNL     1      25.486   7.116  50.422  1.00  0.00     0.080 C 
BRANCH  23  24
HETATM   24  C14 UNL     1      26.317   7.853  49.427  1.00  0.00    -0.021 A 
HETATM   25  C15 UNL     1      26.189   7.508  48.115  1.00  0.00     0.010 A 
HETATM   26  C16 UNL     1      26.984   8.229  47.234  1.00  0.00     0.001 A 
HETATM   27  C17 UNL     1      27.860   9.232  47.578  1.00  0.00     0.003 A 
HETATM   28  C18 UNL     1      27.952   9.544  48.922  1.00  0.00     0.037 A 
HETATM   29  C19 UNL     1      27.188   8.859  49.819  1.00  0.00     0.072 A 
BRANCH  29  30
HETATM   30  O1  UNL     1      27.316   9.209  51.165  1.00  0.00    -0.360 OA
HETATM   31  H19 UNL     1      27.123   8.464  51.841  1.00  0.00     0.217 HD
ENDBRANCH  29  30
ENDBRANCH  23  24
ENDBRANCH   7  23
TORSDOF 4
ENDMDL
MODEL 5
REMARK VINA RESULT:      -9.1      2.256      3.140
REMARK  4 active torsions:
REMARK  status: ('A' for Active; 'I' for Inactive)
REMARK    1  A    between atoms: C3_3  and  N1_4 
REMARK    2  A    between atoms: C12_18  and  C13_19 
REMARK    3  A    between atoms: C13_19  and  C14_20 
REMARK    4  A    between atoms: C19_25  and  O1_26 
ROOT
HETATM    1  C1  UNL     1      23.764   1.765  51.034  1.00  0.00     0.051 C 
HETATM    2  C2  UNL     1      22.971   1.122  52.106  1.00  0.00    -0.030 C 
HETATM    3  C3  UNL     1      21.899   1.043  52.980  1.00  0.00     0.051 C 
HETATM    4  C9  UNL     1      21.887  -0.177  53.891  1.00  0.00     0.065 C 
HETATM    5  C10 UNL     1      23.070  -0.372  54.786  1.00  0.00    -0.015 C 
HETATM    6  C11 UNL     1      24.418  -0.623  54.658  1.00  0.00     0.005 C 
HETATM    7  C12 UNL     1      24.812  -0.461  53.199  1.00  0.00    -0.047 C 
HETATM    8  C20 UNL     1      23.572  -0.147  52.689  1.00  0.00    -0.043 C 
HETATM    9  C21 UNL     1      22.362  -1.150  52.735  1.00  0.00     0.054 C 
ENDROOT
BRANCH   3  10
HETATM   10  N1  UNL     1      21.066   2.219  52.739  1.00  0.00    -0.236 NA
HETATM   11  C4  UNL     1      19.840   2.113  52.356  1.00  0.00     0.151 C 
HETATM   12  C5  UNL     1      19.041   0.896  52.087  1.00  0.00     0.151 C 
HETATM   13  N5  UNL     1      19.217   3.368  52.180  1.00  0.00    -0.048 NA
HETATM   14  C6  UNL     1      17.987   1.174  51.086  1.00  0.00     0.105 C 
HETATM   15  S1  UNL     1      17.447  -0.012  50.102  1.00  0.00    -0.064 SA
HETATM   16  N2  UNL     1      17.413   2.454  50.942  1.00  0.00    -0.160 N 
HETATM   17  C7  UNL     1      16.223   3.013  50.311  1.00  0.00     0.259 C 
HETATM   18  C8  UNL     1      18.109   3.567  51.542  1.00  0.00     0.720 C 
HETATM   19  N3  UNL     1      16.538   4.412  50.159  1.00  0.00    -0.207 NA
HETATM   20  N4  UNL     1      17.334   4.751  51.262  1.00  0.00    -0.150 N 
HETATM   21  H8  UNL     1      17.128   4.540  49.307  1.00  0.00     0.149 HD
HETATM   22  H9  UNL     1      17.376   5.652  51.783  1.00  0.00     0.199 HD
ENDBRANCH   3  10
BRANCH   7  23
HETATM   23  C13 UNL     1      25.890  -0.420  52.234  1.00  0.00     0.080 C 
BRANCH  23  24
HETATM   24  C14 UNL     1      27.021   0.289  52.899  1.00  0.00    -0.021 A 
HETATM   25  C15 UNL     1      26.986   1.651  52.926  1.00  0.00     0.010 A 
HETATM   26  C16 UNL     1      28.061   2.257  53.561  1.00  0.00     0.001 A 
HETATM   27  C17 UNL     1      29.122   1.604  54.145  1.00  0.00     0.003 A 
HETATM   28  C18 UNL     1      29.109   0.223  54.091  1.00  0.00     0.037 A 
HETATM   29  C19 UNL     1      28.070  -0.410  53.476  1.00  0.00     0.072 A 
BRANCH  29  30
HETATM   30  O1  UNL     1      28.101  -1.806  53.445  1.00  0.00    -0.360 OA
HETATM   31  H19 UNL     1      28.843  -2.249  53.996  1.00  0.00     0.217 HD
ENDBRANCH  29  30
ENDBRANCH  23  24
ENDBRANCH   7  23
TORSDOF 4
ENDMDL
MODEL 6
REMARK VINA RESULT:      -8.8      2.355      2.942
REMARK  4 active torsions:
REMARK  status: ('A' for Active; 'I' for Inactive)
REMARK    1  A    between atoms: C3_3  and  N1_4 
REMARK    2  A    between atoms: C12_18  and  C13_19 
REMARK    3  A    between atoms: C13_19  and  C14_20 
REMARK    4  A    between atoms: C19_25  and  O1_26 
ROOT
HETATM    1  C1  UNL     1      23.273  -0.104  53.880  1.00  0.00     0.051 C 
HETATM    2  C2  UNL     1      23.342   0.956  52.848  1.00  0.00    -0.030 C 
HETATM    3  C3  UNL     1      22.896   1.615  51.715  1.00  0.00     0.051 C 
HETATM    4  C9  UNL     1      23.729   2.816  51.288  1.00  0.00     0.065 C 
HETATM    5  C10 UNL     1      25.175   2.572  50.991  1.00  0.00    -0.015 C 
HETATM    6  C11 UNL     1      26.304   2.175  51.672  1.00  0.00     0.005 C 
HETATM    7  C12 UNL     1      25.899   1.670  53.046  1.00  0.00    -0.047 C 
HETATM    8  C20 UNL     1      24.542   1.884  52.947  1.00  0.00    -0.043 C 
HETATM    9  C21 UNL     1      23.923   3.319  52.777  1.00  0.00     0.054 C 
ENDROOT
BRANCH   3  10
HETATM   10  N1  UNL     1      21.696   0.917  51.260  1.00  0.00    -0.236 NA
HETATM   11  C4  UNL     1      20.799   1.506  50.546  1.00  0.00     0.151 C 
HETATM   12  C5  UNL     1      20.758   2.901  50.053  1.00  0.00     0.151 C 
HETATM   13  N5  UNL     1      19.722   0.654  50.217  1.00  0.00    -0.048 NA
HETATM   14  C6  UNL     1      19.359   3.350  49.874  1.00  0.00     0.105 C 
HETATM   15  S1  UNL     1      18.970   4.928  50.033  1.00  0.00    -0.064 SA
HETATM   16  N2  UNL     1      18.319   2.449  49.563  1.00  0.00    -0.160 N 
HETATM   17  C7  UNL     1      16.956   2.545  49.056  1.00  0.00     0.259 C 
HETATM   18  C8  UNL     1      18.575   1.044  49.765  1.00  0.00     0.720 C 
HETATM   19  N3  UNL     1      16.354   1.294  49.445  1.00  0.00    -0.207 NA
HETATM   20  N4  UNL     1      17.377   0.337  49.380  1.00  0.00    -0.150 N 
HETATM   21  H8  UNL     1      16.055   1.353  50.444  1.00  0.00     0.149 HD
HETATM   22  H9  UNL     1      17.313  -0.668  49.116  1.00  0.00     0.199 HD
ENDBRANCH   3  10
BRANCH   7  23
HETATM   23  C13 UNL     1      26.321   1.030  54.274  1.00  0.00     0.080 C 
BRANCH  23  24
HETATM   24  C14 UNL     1      27.339   0.012  53.886  1.00  0.00    -0.021 A 
HETATM   25  C15 UNL     1      26.912  -1.076  53.186  1.00  0.00     0.010 A 
HETATM   26  C16 UNL     1      27.903  -1.988  52.848  1.00  0.00     0.001 A 
HETATM   27  C17 UNL     1      29.239  -1.875  53.159  1.00  0.00     0.003 A 
HETATM   28  C18 UNL     1      29.620  -0.752  53.869  1.00  0.00     0.037 A 
HETATM   29  C19 UNL     1      28.677   0.167  54.220  1.00  0.00     0.072 A 
BRANCH  29  30
HETATM   30  O1  UNL     1      29.109   1.284  54.938  1.00  0.00    -0.360 OA
HETATM   31  H19 UNL     1      28.893   2.195  54.520  1.00  0.00     0.217 HD
ENDBRANCH  29  30
ENDBRANCH  23  24
ENDBRANCH   7  23
TORSDOF 4
ENDMDL
MODEL 7
REMARK VINA RESULT:      -8.7      5.028      6.545
REMARK  4 active torsions:
REMARK  status: ('A' for Active; 'I' for Inactive)
REMARK    1  A    between atoms: C3_3  and  N1_4 
REMARK    2  A    between atoms: C12_18  and  C13_19 
REMARK    3  A    between atoms: C13_19  and  C14_20 
REMARK    4  A    between atoms: C19_25  and  O1_26 
ROOT
HETATM    1  C1  UNL     1      26.400   3.026  49.492  1.00  0.00     0.051 C 
HETATM    2  C2  UNL     1      25.081   3.260  50.123  1.00  0.00    -0.030 C 
HETATM    3  C3  UNL     1      23.954   4.017  50.397  1.00  0.00     0.051 C 
HETATM    4  C9  UNL     1      22.927   3.353  51.304  1.00  0.00     0.065 C 
HETATM    5  C10 UNL     1      23.390   2.929  52.663  1.00  0.00    -0.015 C 
HETATM    6  C11 UNL     1      24.281   2.029  53.203  1.00  0.00     0.005 C 
HETATM    7  C12 UNL     1      25.151   1.469  52.091  1.00  0.00    -0.047 C 
HETATM    8  C20 UNL     1      24.588   2.147  51.033  1.00  0.00    -0.043 C 
HETATM    9  C21 UNL     1      23.090   1.943  50.600  1.00  0.00     0.054 C 
ENDROOT
BRANCH   3  10
HETATM   10  N1  UNL     1      24.107   5.284  49.687  1.00  0.00    -0.236 NA
HETATM   11  C4  UNL     1      23.391   5.575  48.656  1.00  0.00     0.151 C 
HETATM   12  C5  UNL     1      22.335   4.778  47.992  1.00  0.00     0.151 C 
HETATM   13  N5  UNL     1      23.700   6.844  48.121  1.00  0.00    -0.048 NA
HETATM   14  C6  UNL     1      22.243   5.126  46.556  1.00  0.00     0.105 C 
HETATM   15  S1  UNL     1      21.737   4.020  45.467  1.00  0.00    -0.064 SA
HETATM   16  N2  UNL     1      22.583   6.408  46.076  1.00  0.00    -0.160 N 
HETATM   17  C7  UNL     1      22.361   7.170  44.853  1.00  0.00     0.259 C 
HETATM   18  C8  UNL     1      23.350   7.263  46.948  1.00  0.00     0.720 C 
HETATM   19  N3  UNL     1      23.385   8.185  44.887  1.00  0.00    -0.207 NA
HETATM   20  N4  UNL     1      23.568   8.502  46.241  1.00  0.00    -0.150 N 
HETATM   21  H8  UNL     1      24.284   7.777  44.546  1.00  0.00     0.149 HD
HETATM   22  H9  UNL     1      23.809   9.421  46.668  1.00  0.00     0.199 HD
ENDBRANCH   3  10
BRANCH   7  23
HETATM   23  C13 UNL     1      26.291   0.648  51.742  1.00  0.00     0.080 C 
BRANCH  23  24
HETATM   24  C14 UNL     1      27.345   0.945  52.754  1.00  0.00    -0.021 A 
HETATM   25  C15 UNL     1      27.845   2.212  52.794  1.00  0.00     0.010 A 
HETATM   26  C16 UNL     1      28.820   2.433  53.758  1.00  0.00     0.001 A 
HETATM   27  C17 UNL     1      29.300   1.497  54.644  1.00  0.00     0.003 A 
HETATM   28  C18 UNL     1      28.761   0.227  54.562  1.00  0.00     0.037 A 
HETATM   29  C19 UNL     1      27.800  -0.030  53.629  1.00  0.00     0.072 A 
BRANCH  29  30
HETATM   30  O1  UNL     1      27.285  -1.328  53.583  1.00  0.00    -0.360 OA
HETATM   31  H19 UNL     1      26.300  -1.427  53.849  1.00  0.00     0.217 HD
ENDBRANCH  29  30
ENDBRANCH  23  24
ENDBRANCH   7  23
TORSDOF 4
ENDMDL
MODEL 8
REMARK VINA RESULT:      -8.5      4.023      5.221
REMARK  4 active torsions:
REMARK  status: ('A' for Active; 'I' for Inactive)
REMARK    1  A    between atoms: C3_3  and  N1_4 
REMARK    2  A    between atoms: C12_18  and  C13_19 
REMARK    3  A    between atoms: C13_19  and  C14_20 
REMARK    4  A    between atoms: C19_25  and  O1_26 
ROOT
HETATM    1  C1  UNL     1      25.277   3.461  50.729  1.00  0.00     0.051 C 
HETATM    2  C2  UNL     1      24.076   2.903  51.391  1.00  0.00    -0.030 C 
HETATM    3  C3  UNL     1      22.823   2.999  51.973  1.00  0.00     0.051 C 
HETATM    4  C9  UNL     1      22.234   1.688  52.475  1.00  0.00     0.065 C 
HETATM    5  C10 UNL     1      23.025   0.932  53.496  1.00  0.00    -0.015 C 
HETATM    6  C11 UNL     1      24.238   0.285  53.574  1.00  0.00     0.005 C 
HETATM    7  C12 UNL     1      25.051   0.612  52.332  1.00  0.00    -0.047 C 
HETATM    8  C20 UNL     1      24.132   1.415  51.695  1.00  0.00    -0.043 C 
HETATM    9  C21 UNL     1      22.735   0.879  51.209  1.00  0.00     0.054 C 
ENDROOT
BRANCH   3  10
HETATM   10  N1  UNL     1      22.433   4.406  51.916  1.00  0.00    -0.236 NA
HETATM   11  C4  UNL     1      21.747   4.880  50.934  1.00  0.00     0.151 C 
HETATM   12  C5  UNL     1      21.229   4.190  49.731  1.00  0.00     0.151 C 
HETATM   13  N5  UNL     1      21.480   6.259  51.074  1.00  0.00    -0.048 NA
HETATM   14  C6  UNL     1      21.101   5.137  48.601  1.00  0.00     0.105 C 
HETATM   15  S1  UNL     1      21.246   4.613  47.062  1.00  0.00    -0.064 SA
HETATM   16  N2  UNL     1      20.852   6.511  48.802  1.00  0.00    -0.160 N 
HETATM   17  C7  UNL     1      20.401   7.632  47.987  1.00  0.00     0.259 C 
HETATM   18  C8  UNL     1      21.070   7.039  50.127  1.00  0.00     0.720 C 
HETATM   19  N3  UNL     1      20.839   8.793  48.724  1.00  0.00    -0.207 NA
HETATM   20  N4  UNL     1      20.749   8.445  50.079  1.00  0.00    -0.150 N 
HETATM   21  H8  UNL     1      21.848   8.967  48.520  1.00  0.00     0.149 HD
HETATM   22  H9  UNL     1      20.507   9.049  50.892  1.00  0.00     0.199 HD
ENDBRANCH   3  10
BRANCH   7  23
HETATM   23  C13 UNL     1      26.325   0.499  51.655  1.00  0.00     0.080 C 
BRANCH  23  24
HETATM   24  C14 UNL     1      27.368   0.826  52.670  1.00  0.00    -0.021 A 
HETATM   25  C15 UNL     1      27.713   2.135  52.823  1.00  0.00     0.010 A 
HETATM   26  C16 UNL     1      28.686   2.381  53.783  1.00  0.00     0.001 A 
HETATM   27  C17 UNL     1      29.303   1.430  54.563  1.00  0.00     0.003 A 
HETATM   28  C18 UNL     1      28.917   0.118  54.368  1.00  0.00     0.037 A 
HETATM   29  C19 UNL     1      27.965  -0.166  53.435  1.00  0.00     0.072 A 
BRANCH  29  30
HETATM   30  O1  UNL     1      27.607  -1.506  53.273  1.00  0.00    -0.360 OA
HETATM   31  H19 UNL     1      27.192  -1.752  52.369  1.00  0.00     0.217 HD
ENDBRANCH  29  30
ENDBRANCH  23  24
ENDBRANCH   7  23
TORSDOF 4
ENDMDL
MODEL 9
REMARK VINA RESULT:      -8.5      4.715      8.444
REMARK  4 active torsions:
REMARK  status: ('A' for Active; 'I' for Inactive)
REMARK    1  A    between atoms: C3_3  and  N1_4 
REMARK    2  A    between atoms: C12_18  and  C13_19 
REMARK    3  A    between atoms: C13_19  and  C14_20 
REMARK    4  A    between atoms: C19_25  and  O1_26 
ROOT
HETATM    1  C1  UNL     1      23.219   4.398  52.589  1.00  0.00     0.051 C 
HETATM    2  C2  UNL     1      23.567   3.845  51.259  1.00  0.00    -0.030 C 
HETATM    3  C3  UNL     1      24.448   3.343  50.316  1.00  0.00     0.051 C 
HETATM    4  C9  UNL     1      23.828   2.966  48.978  1.00  0.00     0.065 C 
HETATM    5  C10 UNL     1      23.111   4.047  48.231  1.00  0.00    -0.015 C 
HETATM    6  C11 UNL     1      21.994   4.835  48.397  1.00  0.00     0.005 C 
HETATM    7  C12 UNL     1      21.487   4.677  49.820  1.00  0.00    -0.047 C 
HETATM    8  C20 UNL     1      22.418   3.766  50.266  1.00  0.00    -0.043 C 
HETATM    9  C21 UNL     1      22.548   2.323  49.655  1.00  0.00     0.054 C 
ENDROOT
BRANCH   3  10
HETATM   10  N1  UNL     1      25.771   3.325  50.936  1.00  0.00    -0.236 NA
HETATM   11  C4  UNL     1      26.186   2.315  51.620  1.00  0.00     0.151 C 
HETATM   12  C5  UNL     1      25.497   1.040  51.923  1.00  0.00     0.151 C 
HETATM   13  N5  UNL     1      27.488   2.504  52.131  1.00  0.00    -0.048 NA
HETATM   14  C6  UNL     1      25.985   0.476  53.201  1.00  0.00     0.105 C 
HETATM   15  S1  UNL     1      25.008  -0.456  54.120  1.00  0.00    -0.064 SA
HETATM   16  N2  UNL     1      27.293   0.714  53.673  1.00  0.00    -0.160 N 
HETATM   17  C7  UNL     1      28.177   0.130  54.675  1.00  0.00     0.259 C 
HETATM   18  C8  UNL     1      28.031   1.796  53.067  1.00  0.00     0.720 C 
HETATM   19  N3  UNL     1      29.144   1.169  54.929  1.00  0.00    -0.207 NA
HETATM   20  N4  UNL     1      29.322   1.837  53.709  1.00  0.00    -0.150 N 
HETATM   21  H8  UNL     1      28.737   1.860  55.598  1.00  0.00     0.149 HD
HETATM   22  H9  UNL     1      30.186   2.275  53.327  1.00  0.00     0.199 HD
ENDBRANCH   3  10
BRANCH   7  23
HETATM   23  C13 UNL     1      20.553   5.128  50.830  1.00  0.00     0.080 C 
BRANCH  23  24
HETATM   24  C14 UNL     1      19.342   4.268  50.694  1.00  0.00    -0.021 A 
HETATM   25  C15 UNL     1      18.521   4.496  49.631  1.00  0.00     0.010 A 
HETATM   26  C16 UNL     1      17.412   3.665  49.552  1.00  0.00     0.001 A 
HETATM   27  C17 UNL     1      17.095   2.662  50.438  1.00  0.00     0.003 A 
HETATM   28  C18 UNL     1      17.961   2.471  51.499  1.00  0.00     0.037 A 
HETATM   29  C19 UNL     1      19.062   3.267  51.612  1.00  0.00     0.072 A 
BRANCH  29  30
HETATM   30  O1  UNL     1      19.907   3.038  52.699  1.00  0.00    -0.360 OA
HETATM   31  H19 UNL     1      19.594   3.418  53.598  1.00  0.00     0.217 HD
ENDBRANCH  29  30
ENDBRANCH  23  24
ENDBRANCH   7  23
TORSDOF 4
ENDMDL
