MODEL 1
REMARK VINA RESULT:      -8.3      0.000      0.000
REMARK  2 active torsions:
REMARK  status: ('A' for Active; 'I' for Inactive)
REMARK    1  A    between atoms: C2_2  and  N1_3 
REMARK    2  A    between atoms: N1_3  and  C3_4 
ROOT
HETATM    1  C3  UNL     1      25.690   1.898  51.847  1.00  0.00     0.367 C 
HETATM    2  C4  UNL     1      24.678   1.272  52.737  1.00  0.00     0.049 C 
HETATM    3  C5  UNL     1      23.527   1.941  52.984  1.00  0.00     0.042 C 
HETATM    4  C6  UNL     1      23.478   3.404  52.912  1.00  0.00     0.257 C 
HETATM    5  O1  UNL     1      23.461   4.616  53.078  1.00  0.00    -0.267 OA
HETATM    6  N2  UNL     1      23.326   3.772  51.482  1.00  0.00    -0.311 N 
HETATM    7  C7  UNL     1      24.113   3.215  50.377  1.00  0.00     0.106 C 
HETATM    8  N3  UNL     1      25.183   2.469  50.615  1.00  0.00    -0.237 NA
HETATM    9  C8  UNL     1      23.781   3.400  48.896  1.00  0.00     0.113 C 
HETATM   10  C9  UNL     1      22.620   2.487  48.539  1.00  0.00     0.223 C 
HETATM   11  C10 UNL     1      22.349   2.729  47.062  1.00  0.00     0.043 C 
HETATM   12  N4  UNL     1      21.424   2.797  49.233  1.00  0.00     0.089 N 
HETATM   13  C11 UNL     1      20.446   1.700  49.329  1.00  0.00     0.286 C 
HETATM   14  C12 UNL     1      19.334   2.198  50.202  1.00  0.00     0.150 C 
HETATM   15  N5  UNL     1      18.492   1.220  50.827  1.00  0.00    -0.193 NA
HETATM   16  C13 UNL     1      17.404   1.993  51.473  1.00  0.00     0.144 C 
HETATM   17  O2  UNL     1      19.066   0.403  51.733  1.00  0.00    -0.262 OA
HETATM   18  C14 UNL     1      20.245   0.372  52.399  1.00  0.00     0.096 A 
HETATM   19  C15 UNL     1      20.432  -0.740  53.230  1.00  0.00     0.081 A 
HETATM   20  C16 UNL     1      21.574  -0.948  53.984  1.00  0.00     0.119 A 
HETATM   21  F1  UNL     1      21.739  -2.048  54.797  1.00  0.00    -0.206 F 
HETATM   22  C17 UNL     1      22.674  -0.100  54.020  1.00  0.00     0.054 A 
HETATM   23  C18 UNL     1      22.473   0.971  53.208  1.00  0.00    -0.015 A 
HETATM   24  C19 UNL     1      21.350   1.193  52.460  1.00  0.00     0.051 A 
HETATM   25  H9  UNL     1      22.680   4.444  50.938  1.00  0.00     0.170 HD
HETATM   26  H16 UNL     1      20.969   3.681  49.003  1.00  0.00     0.316 HD
ENDROOT
BRANCH   1  27
HETATM   27  N1  UNL     1      26.810   1.075  51.617  1.00  0.00     0.111 N 
HETATM   28  H6  UNL     1      27.642   1.471  52.086  1.00  0.00     0.319 HD
BRANCH  27  29
HETATM   29  C2  UNL     1      26.501  -0.225  52.236  1.00  0.00     0.268 C 
HETATM   30  C1  UNL     1      27.753  -0.648  52.978  1.00  0.00     0.037 C 
ENDBRANCH  27  29
ENDBRANCH   1  27
TORSDOF 2
ENDMDL
MODEL 2
REMARK VINA RESULT:      -8.2      2.495      3.987
REMARK  2 active torsions:
REMARK  status: ('A' for Active; 'I' for Inactive)
REMARK    1  A    between atoms: C2_2  and  N1_3 
REMARK    2  A    between atoms: N1_3  and  C3_4 
ROOT
HETATM    1  C3  UNL     1      24.817   4.660  50.070  1.00  0.00     0.367 C 
HETATM    2  C4  UNL     1      25.446   3.687  51.001  1.00  0.00     0.049 C 
HETATM    3  C5  UNL     1      24.790   3.358  52.139  1.00  0.00     0.042 C 
HETATM    4  C6  UNL     1      23.840   4.289  52.754  1.00  0.00     0.257 C 
HETATM    5  O1  UNL     1      23.221   5.121  53.404  1.00  0.00    -0.267 OA
HETATM    6  N2  UNL     1      22.551   4.150  52.030  1.00  0.00    -0.311 N 
HETATM    7  C7  UNL     1      22.399   4.127  50.573  1.00  0.00     0.106 C 
HETATM    8  N3  UNL     1      23.414   4.440  49.779  1.00  0.00    -0.237 NA
HETATM    9  C8  UNL     1      21.117   3.726  49.840  1.00  0.00     0.113 C 
HETATM   10  C9  UNL     1      20.983   2.213  49.886  1.00  0.00     0.223 C 
HETATM   11  C10 UNL     1      19.693   1.895  49.145  1.00  0.00     0.043 C 
HETATM   12  N4  UNL     1      20.842   1.697  51.198  1.00  0.00     0.089 N 
HETATM   13  C11 UNL     1      21.207   0.281  51.365  1.00  0.00     0.286 C 
HETATM   14  C12 UNL     1      21.111  -0.014  52.831  1.00  0.00     0.150 C 
HETATM   15  N5  UNL     1      21.828  -1.151  53.328  1.00  0.00    -0.193 NA
HETATM   16  C13 UNL     1      21.415  -1.289  54.745  1.00  0.00     0.144 C 
HETATM   17  O2  UNL     1      23.174  -1.112  53.251  1.00  0.00    -0.262 OA
HETATM   18  C14 UNL     1      24.101  -0.158  52.995  1.00  0.00     0.096 A 
HETATM   19  C15 UNL     1      25.427  -0.608  52.967  1.00  0.00     0.081 A 
HETATM   20  C16 UNL     1      26.510   0.216  52.716  1.00  0.00     0.119 A 
HETATM   21  F1  UNL     1      27.808  -0.245  52.694  1.00  0.00    -0.206 F 
HETATM   22  C17 UNL     1      26.433   1.580  52.460  1.00  0.00     0.054 A 
HETATM   23  C18 UNL     1      25.141   1.997  52.492  1.00  0.00    -0.015 A 
HETATM   24  C19 UNL     1      24.060   1.195  52.742  1.00  0.00     0.051 A 
HETATM   25  H9  UNL     1      21.523   4.032  52.333  1.00  0.00     0.170 HD
HETATM   26  H16 UNL     1      19.978   1.919  51.694  1.00  0.00     0.316 HD
ENDROOT
BRANCH   1  27
HETATM   27  N1  UNL     1      25.566   4.867  48.895  1.00  0.00     0.111 N 
HETATM   28  H6  UNL     1      25.669   5.880  48.716  1.00  0.00     0.319 HD
BRANCH  27  29
HETATM   29  C2  UNL     1      26.902   4.301  49.152  1.00  0.00     0.268 C 
HETATM   30  C1  UNL     1      27.893   5.246  48.505  1.00  0.00     0.037 C 
ENDBRANCH  27  29
ENDBRANCH   1  27
TORSDOF 2
ENDMDL
MODEL 3
REMARK VINA RESULT:      -8.0      1.905      5.752
REMARK  2 active torsions:
REMARK  status: ('A' for Active; 'I' for Inactive)
REMARK    1  A    between atoms: C2_2  and  N1_3 
REMARK    2  A    between atoms: N1_3  and  C3_4 
ROOT
HETATM    1  C3  UNL     1      19.133   2.210  50.980  1.00  0.00     0.367 C 
HETATM    2  C4  UNL     1      19.758   1.027  51.627  1.00  0.00     0.049 C 
HETATM    3  C5  UNL     1      20.928   0.558  51.134  1.00  0.00     0.042 C 
HETATM    4  C6  UNL     1      21.287   0.765  49.728  1.00  0.00     0.257 C 
HETATM    5  O1  UNL     1      21.510   0.727  48.526  1.00  0.00    -0.267 OA
HETATM    6  N2  UNL     1      21.845   2.137  49.610  1.00  0.00    -0.311 N 
HETATM    7  C7  UNL     1      21.246   3.345  50.186  1.00  0.00     0.106 C 
HETATM    8  N3  UNL     1      20.023   3.319  50.695  1.00  0.00    -0.237 NA
HETATM    9  C8  UNL     1      21.950   4.699  50.285  1.00  0.00     0.113 C 
HETATM   10  C9  UNL     1      22.954   4.644  51.425  1.00  0.00     0.223 C 
HETATM   11  C10 UNL     1      23.609   6.016  51.458  1.00  0.00     0.043 C 
HETATM   12  N4  UNL     1      23.989   3.698  51.222  1.00  0.00     0.089 N 
HETATM   13  C11 UNL     1      24.674   3.237  52.441  1.00  0.00     0.286 C 
HETATM   14  C12 UNL     1      25.624   2.160  52.014  1.00  0.00     0.150 C 
HETATM   15  N5  UNL     1      26.079   1.240  53.014  1.00  0.00    -0.193 NA
HETATM   16  C13 UNL     1      27.116   0.415  52.349  1.00  0.00     0.144 C 
HETATM   17  O2  UNL     1      25.153   0.436  53.577  1.00  0.00    -0.262 OA
HETATM   18  C14 UNL     1      23.869   0.101  53.306  1.00  0.00     0.096 A 
HETATM   19  C15 UNL     1      23.270  -0.761  54.233  1.00  0.00     0.081 A 
HETATM   20  C16 UNL     1      21.964  -1.208  54.129  1.00  0.00     0.119 A 
HETATM   21  F1  UNL     1      21.392  -2.059  55.050  1.00  0.00    -0.206 F 
HETATM   22  C17 UNL     1      21.082  -0.868  53.110  1.00  0.00     0.054 A 
HETATM   23  C18 UNL     1      21.680  -0.032  52.224  1.00  0.00    -0.015 A 
HETATM   24  C19 UNL     1      22.971   0.416  52.310  1.00  0.00     0.051 A 
HETATM   25  H9  UNL     1      22.723   2.559  49.148  1.00  0.00     0.170 HD
HETATM   26  H16 UNL     1      24.653   3.891  50.472  1.00  0.00     0.316 HD
ENDROOT
BRANCH   1  27
HETATM   27  N1  UNL     1      17.957   2.638  51.627  1.00  0.00     0.111 N 
HETATM   28  H6  UNL     1      18.120   2.710  52.646  1.00  0.00     0.319 HD
BRANCH  27  29
HETATM   29  C2  UNL     1      17.667   3.985  51.106  1.00  0.00     0.268 C 
HETATM   30  C1  UNL     1      16.253   4.312  51.542  1.00  0.00     0.037 C 
ENDBRANCH  27  29
ENDBRANCH   1  27
TORSDOF 2
ENDMDL
MODEL 4
REMARK VINA RESULT:      -7.8      2.605      3.569
REMARK  2 active torsions:
REMARK  status: ('A' for Active; 'I' for Inactive)
REMARK    1  A    between atoms: C2_2  and  N1_3 
REMARK    2  A    between atoms: N1_3  and  C3_4 
ROOT
HETATM    1  C3  UNL     1      25.008   6.096  49.957  1.00  0.00     0.367 C 
HETATM    2  C4  UNL     1      24.725   5.112  51.034  1.00  0.00     0.049 C 
HETATM    3  C5  UNL     1      23.438   4.881  51.382  1.00  0.00     0.042 C 
HETATM    4  C6  UNL     1      22.411   5.908  51.187  1.00  0.00     0.257 C 
HETATM    5  O1  UNL     1      21.587   6.811  51.245  1.00  0.00    -0.267 OA
HETATM    6  N2  UNL     1      21.986   5.846  49.766  1.00  0.00    -0.311 N 
HETATM    7  C7  UNL     1      22.891   5.780  48.615  1.00  0.00     0.106 C 
HETATM    8  N3  UNL     1      24.193   5.980  48.764  1.00  0.00    -0.237 NA
HETATM    9  C8  UNL     1      22.455   5.456  47.186  1.00  0.00     0.113 C 
HETATM   10  C9  UNL     1      22.199   3.962  47.080  1.00  0.00     0.223 C 
HETATM   11  C10 UNL     1      21.770   3.721  45.641  1.00  0.00     0.043 C 
HETATM   12  N4  UNL     1      21.141   3.510  47.907  1.00  0.00     0.089 N 
HETATM   13  C11 UNL     1      21.165   2.075  48.239  1.00  0.00     0.286 C 
HETATM   14  C12 UNL     1      20.051   1.845  49.213  1.00  0.00     0.150 C 
HETATM   15  N5  UNL     1      20.119   0.673  50.036  1.00  0.00    -0.193 NA
HETATM   16  C13 UNL     1      18.825   0.624  50.759  1.00  0.00     0.144 C 
HETATM   17  O2  UNL     1      21.135   0.601  50.920  1.00  0.00    -0.262 OA
HETATM   18  C14 UNL     1      22.054   1.466  51.412  1.00  0.00     0.096 A 
HETATM   19  C15 UNL     1      22.980   0.910  52.303  1.00  0.00     0.081 A 
HETATM   20  C16 UNL     1      23.995   1.634  52.902  1.00  0.00     0.119 A 
HETATM   21  F1  UNL     1      24.896   1.069  53.778  1.00  0.00    -0.206 F 
HETATM   22  C17 UNL     1      24.234   2.989  52.706  1.00  0.00     0.054 A 
HETATM   23  C18 UNL     1      23.327   3.509  51.839  1.00  0.00    -0.015 A 
HETATM   24  C19 UNL     1      22.316   2.808  51.241  1.00  0.00     0.051 A 
HETATM   25  H9  UNL     1      21.032   5.823  49.263  1.00  0.00     0.170 HD
HETATM   26  H16 UNL     1      20.199   3.819  47.666  1.00  0.00     0.316 HD
ENDROOT
BRANCH   1  27
HETATM   27  N1  UNL     1      26.378   6.197  49.644  1.00  0.00     0.111 N 
HETATM   28  H6  UNL     1      26.935   6.267  50.513  1.00  0.00     0.319 HD
BRANCH  27  29
HETATM   29  C2  UNL     1      26.739   4.944  48.959  1.00  0.00     0.268 C 
HETATM   30  C1  UNL     1      28.176   5.107  48.507  1.00  0.00     0.037 C 
ENDBRANCH  27  29
ENDBRANCH   1  27
TORSDOF 2
ENDMDL
MODEL 5
REMARK VINA RESULT:      -7.8     10.356     12.471
REMARK  2 active torsions:
REMARK  status: ('A' for Active; 'I' for Inactive)
REMARK    1  A    between atoms: C2_2  and  N1_3 
REMARK    2  A    between atoms: N1_3  and  C3_4 
ROOT
HETATM    1  C3  UNL     1      33.402   3.281  47.709  1.00  0.00     0.367 C 
HETATM    2  C4  UNL     1      32.367   4.272  48.103  1.00  0.00     0.049 C 
HETATM    3  C5  UNL     1      32.632   5.589  47.941  1.00  0.00     0.042 C 
HETATM    4  C6  UNL     1      34.010   6.086  47.957  1.00  0.00     0.257 C 
HETATM    5  O1  UNL     1      35.118   6.553  48.187  1.00  0.00    -0.267 OA
HETATM    6  N2  UNL     1      34.580   5.856  46.605  1.00  0.00    -0.311 N 
HETATM    7  C7  UNL     1      34.478   4.606  45.846  1.00  0.00     0.106 C 
HETATM    8  N3  UNL     1      34.028   3.499  46.419  1.00  0.00    -0.237 NA
HETATM    9  C8  UNL     1      34.833   4.458  44.366  1.00  0.00     0.113 C 
HETATM   10  C9  UNL     1      33.716   5.065  43.532  1.00  0.00     0.223 C 
HETATM   11  C10 UNL     1      34.142   4.883  42.084  1.00  0.00     0.043 C 
HETATM   12  N4  UNL     1      33.547   6.456  43.741  1.00  0.00     0.089 N 
HETATM   13  C11 UNL     1      32.224   6.994  43.383  1.00  0.00     0.286 C 
HETATM   14  C12 UNL     1      32.222   8.433  43.802  1.00  0.00     0.150 C 
HETATM   15  N5  UNL     1      30.951   9.068  43.991  1.00  0.00    -0.193 NA
HETATM   16  C13 UNL     1      31.258  10.499  44.228  1.00  0.00     0.144 C 
HETATM   17  O2  UNL     1      30.173   8.601  44.989  1.00  0.00    -0.262 OA
HETATM   18  C14 UNL     1      30.349   7.776  46.048  1.00  0.00     0.096 A 
HETATM   19  C15 UNL     1      29.199   7.528  46.808  1.00  0.00     0.081 A 
HETATM   20  C16 UNL     1      29.180   6.708  47.923  1.00  0.00     0.119 A 
HETATM   21  F1  UNL     1      28.039   6.478  48.659  1.00  0.00    -0.206 F 
HETATM   22  C17 UNL     1      30.279   6.026  48.431  1.00  0.00     0.054 A 
HETATM   23  C18 UNL     1      31.383   6.278  47.681  1.00  0.00    -0.015 A 
HETATM   24  C19 UNL     1      31.418   7.089  46.580  1.00  0.00     0.051 A 
HETATM   25  H9  UNL     1      35.134   6.462  45.905  1.00  0.00     0.170 HD
HETATM   26  H16 UNL     1      34.297   7.068  43.417  1.00  0.00     0.316 HD
ENDROOT
BRANCH   1  27
HETATM   27  N1  UNL     1      32.980   1.946  47.864  1.00  0.00     0.111 N 
HETATM   28  H6  UNL     1      32.408   1.854  48.721  1.00  0.00     0.319 HD
BRANCH  27  29
HETATM   29  C2  UNL     1      32.130   1.644  46.700  1.00  0.00     0.268 C 
HETATM   30  C1  UNL     1      31.987   0.136  46.662  1.00  0.00     0.037 C 
ENDBRANCH  27  29
ENDBRANCH   1  27
TORSDOF 2
ENDMDL
MODEL 6
REMARK VINA RESULT:      -7.4      8.704     10.930
REMARK  2 active torsions:
REMARK  status: ('A' for Active; 'I' for Inactive)
REMARK    1  A    between atoms: C2_2  and  N1_3 
REMARK    2  A    between atoms: N1_3  and  C3_4 
ROOT
HETATM    1  C3  UNL     1      32.333   4.729  46.596  1.00  0.00     0.367 C 
HETATM    2  C4  UNL     1      31.102   4.877  47.414  1.00  0.00     0.049 C 
HETATM    3  C5  UNL     1      30.876   6.054  48.044  1.00  0.00     0.042 C 
HETATM    4  C6  UNL     1      31.990   6.927  48.426  1.00  0.00     0.257 C 
HETATM    5  O1  UNL     1      32.896   7.561  48.950  1.00  0.00    -0.267 OA
HETATM    6  N2  UNL     1      32.378   7.703  47.221  1.00  0.00    -0.311 N 
HETATM    7  C7  UNL     1      32.583   7.140  45.883  1.00  0.00     0.106 C 
HETATM    8  N3  UNL     1      32.632   5.828  45.699  1.00  0.00    -0.237 NA
HETATM    9  C8  UNL     1      32.724   7.968  44.605  1.00  0.00     0.113 C 
HETATM   10  C9  UNL     1      31.349   8.468  44.193  1.00  0.00     0.223 C 
HETATM   11  C10 UNL     1      31.572   9.279  42.926  1.00  0.00     0.043 C 
HETATM   12  N4  UNL     1      30.756   9.338  45.140  1.00  0.00     0.089 N 
HETATM   13  C11 UNL     1      29.290   9.450  45.067  1.00  0.00     0.286 C 
HETATM   14  C12 UNL     1      28.870  10.303  46.225  1.00  0.00     0.150 C 
HETATM   15  N5  UNL     1      27.507  10.208  46.660  1.00  0.00    -0.193 NA
HETATM   16  C13 UNL     1      27.346  11.268  47.684  1.00  0.00     0.144 C 
HETATM   17  O2  UNL     1      27.104   9.025  47.166  1.00  0.00    -0.262 OA
HETATM   18  C14 UNL     1      27.716   7.890  47.581  1.00  0.00     0.096 A 
HETATM   19  C15 UNL     1      26.856   6.865  47.993  1.00  0.00     0.081 A 
HETATM   20  C16 UNL     1      27.295   5.632  48.443  1.00  0.00     0.119 A 
HETATM   21  F1  UNL     1      26.432   4.636  48.846  1.00  0.00    -0.206 F 
HETATM   22  C17 UNL     1      28.626   5.247  48.545  1.00  0.00     0.054 A 
HETATM   23  C18 UNL     1      29.443   6.253  48.141  1.00  0.00    -0.015 A 
HETATM   24  C19 UNL     1      29.025   7.478  47.697  1.00  0.00     0.051 A 
HETATM   25  H9  UNL     1      32.574   8.745  47.023  1.00  0.00     0.170 HD
HETATM   26  H16 UNL     1      31.193  10.251  45.269  1.00  0.00     0.316 HD
ENDROOT
BRANCH   1  27
HETATM   27  N1  UNL     1      32.418   3.485  45.942  1.00  0.00     0.111 N 
HETATM   28  H6  UNL     1      33.055   3.554  45.130  1.00  0.00     0.319 HD
BRANCH  27  29
HETATM   29  C2  UNL     1      33.003   2.545  46.914  1.00  0.00     0.268 C 
HETATM   30  C1  UNL     1      34.316   3.158  47.357  1.00  0.00     0.037 C 
ENDBRANCH  27  29
ENDBRANCH   1  27
TORSDOF 2
ENDMDL
MODEL 7
REMARK VINA RESULT:      -7.2      3.524      6.773
REMARK  2 active torsions:
REMARK  status: ('A' for Active; 'I' for Inactive)
REMARK    1  A    between atoms: C2_2  and  N1_3 
REMARK    2  A    between atoms: N1_3  and  C3_4 
ROOT
HETATM    1  C3  UNL     1      21.571   6.101  47.642  1.00  0.00     0.367 C 
HETATM    2  C4  UNL     1      23.003   6.136  48.035  1.00  0.00     0.049 C 
HETATM    3  C5  UNL     1      23.320   6.042  49.348  1.00  0.00     0.042 C 
HETATM    4  C6  UNL     1      22.377   6.477  50.382  1.00  0.00     0.257 C 
HETATM    5  O1  UNL     1      21.711   7.032  51.246  1.00  0.00    -0.267 OA
HETATM    6  N2  UNL     1      21.406   5.373  50.588  1.00  0.00    -0.311 N 
HETATM    7  C7  UNL     1      20.718   4.641  49.520  1.00  0.00     0.106 C 
HETATM    8  N3  UNL     1      20.770   5.065  48.265  1.00  0.00    -0.237 NA
HETATM    9  C8  UNL     1      19.928   3.348  49.724  1.00  0.00     0.113 C 
HETATM   10  C9  UNL     1      20.909   2.198  49.891  1.00  0.00     0.223 C 
HETATM   11  C10 UNL     1      20.054   0.957  50.090  1.00  0.00     0.043 C 
HETATM   12  N4  UNL     1      21.732   2.320  51.038  1.00  0.00     0.089 N 
HETATM   13  C11 UNL     1      22.993   1.560  50.996  1.00  0.00     0.286 C 
HETATM   14  C12 UNL     1      23.755   1.933  52.231  1.00  0.00     0.150 C 
HETATM   15  N5  UNL     1      25.171   1.707  52.231  1.00  0.00    -0.193 NA
HETATM   16  C13 UNL     1      25.617   2.003  53.614  1.00  0.00     0.144 C 
HETATM   17  O2  UNL     1      25.907   2.421  51.355  1.00  0.00    -0.262 OA
HETATM   18  C14 UNL     1      25.693   3.497  50.561  1.00  0.00     0.096 A 
HETATM   19  C15 UNL     1      26.774   3.867  49.752  1.00  0.00     0.081 A 
HETATM   20  C16 UNL     1      26.742   4.934  48.871  1.00  0.00     0.119 A 
HETATM   21  F1  UNL     1      27.818   5.283  48.085  1.00  0.00    -0.206 F 
HETATM   22  C17 UNL     1      25.651   5.770  48.669  1.00  0.00     0.054 A 
HETATM   23  C18 UNL     1      24.613   5.396  49.461  1.00  0.00    -0.015 A 
HETATM   24  C19 UNL     1      24.630   4.346  50.339  1.00  0.00     0.051 A 
HETATM   25  H9  UNL     1      21.006   4.870  51.455  1.00  0.00     0.170 HD
HETATM   26  H16 UNL     1      21.277   2.235  51.947  1.00  0.00     0.316 HD
ENDROOT
BRANCH   1  27
HETATM   27  N1  UNL     1      21.378   6.140  46.247  1.00  0.00     0.111 N 
HETATM   28  H6  UNL     1      21.736   7.032  45.866  1.00  0.00     0.319 HD
BRANCH  27  29
HETATM   29  C2  UNL     1      22.180   5.038  45.688  1.00  0.00     0.268 C 
HETATM   30  C1  UNL     1      21.234   4.217  44.835  1.00  0.00     0.037 C 
ENDBRANCH  27  29
ENDBRANCH   1  27
TORSDOF 2
ENDMDL
MODEL 8
REMARK VINA RESULT:      -7.0     11.519     13.186
REMARK  2 active torsions:
REMARK  status: ('A' for Active; 'I' for Inactive)
REMARK    1  A    between atoms: C2_2  and  N1_3 
REMARK    2  A    between atoms: N1_3  and  C3_4 
ROOT
HETATM    1  C3  UNL     1      33.381   5.478  47.965  1.00  0.00     0.367 C 
HETATM    2  C4  UNL     1      32.620   6.614  48.546  1.00  0.00     0.049 C 
HETATM    3  C5  UNL     1      32.975   7.876  48.208  1.00  0.00     0.042 C 
HETATM    4  C6  UNL     1      34.347   8.186  47.799  1.00  0.00     0.257 C 
HETATM    5  O1  UNL     1      35.519   8.514  47.672  1.00  0.00    -0.267 OA
HETATM    6  N2  UNL     1      34.477   7.819  46.366  1.00  0.00    -0.311 N 
HETATM    7  C7  UNL     1      34.021   6.558  45.772  1.00  0.00     0.106 C 
HETATM    8  N3  UNL     1      33.632   5.549  46.538  1.00  0.00    -0.237 NA
HETATM    9  C8  UNL     1      33.919   6.294  44.269  1.00  0.00     0.113 C 
HETATM   10  C9  UNL     1      32.687   7.002  43.732  1.00  0.00     0.223 C 
HETATM   11  C10 UNL     1      32.656   6.696  42.242  1.00  0.00     0.043 C 
HETATM   12  N4  UNL     1      32.743   8.412  43.862  1.00  0.00     0.089 N 
HETATM   13  C11 UNL     1      31.442   9.102  43.842  1.00  0.00     0.286 C 
HETATM   14  C12 UNL     1      31.723  10.547  44.123  1.00  0.00     0.150 C 
HETATM   15  N5  UNL     1      30.639  11.353  44.604  1.00  0.00    -0.193 NA
HETATM   16  C13 UNL     1      31.160  12.740  44.626  1.00  0.00     0.144 C 
HETATM   17  O2  UNL     1      30.131  11.041  45.814  1.00  0.00    -0.262 OA
HETATM   18  C14 UNL     1      30.508  10.251  46.848  1.00  0.00     0.096 A 
HETATM   19  C15 UNL     1      29.603  10.195  47.916  1.00  0.00     0.081 A 
HETATM   20  C16 UNL     1      29.812   9.438  49.056  1.00  0.00     0.119 A 
HETATM   21  F1  UNL     1      28.910   9.397  50.097  1.00  0.00    -0.206 F 
HETATM   22  C17 UNL     1      30.926   8.643  49.294  1.00  0.00     0.054 A 
HETATM   23  C18 UNL     1      31.790   8.711  48.249  1.00  0.00    -0.015 A 
HETATM   24  C19 UNL     1      31.600   9.456  47.117  1.00  0.00     0.051 A 
HETATM   25  H9  UNL     1      34.872   8.312  45.492  1.00  0.00     0.170 HD
HETATM   26  H16 UNL     1      33.432   8.903  43.293  1.00  0.00     0.316 HD
ENDROOT
BRANCH   1  27
HETATM   27  N1  UNL     1      32.873   4.220  48.342  1.00  0.00     0.111 N 
HETATM   28  H6  UNL     1      32.111   4.338  49.031  1.00  0.00     0.319 HD
BRANCH  27  29
HETATM   29  C2  UNL     1      32.308   3.619  47.121  1.00  0.00     0.268 C 
HETATM   30  C1  UNL     1      32.805   2.188  47.085  1.00  0.00     0.037 C 
ENDBRANCH  27  29
ENDBRANCH   1  27
TORSDOF 2
ENDMDL
MODEL 9
REMARK VINA RESULT:      -7.0      9.329     12.428
REMARK  2 active torsions:
REMARK  status: ('A' for Active; 'I' for Inactive)
REMARK    1  A    between atoms: C2_2  and  N1_3 
REMARK    2  A    between atoms: N1_3  and  C3_4 
ROOT
HETATM    1  C3  UNL     1      27.445   7.657  48.591  1.00  0.00     0.367 C 
HETATM    2  C4  UNL     1      28.554   6.764  48.164  1.00  0.00     0.049 C 
HETATM    3  C5  UNL     1      29.268   7.094  47.063  1.00  0.00     0.042 C 
HETATM    4  C6  UNL     1      28.674   7.907  45.998  1.00  0.00     0.257 C 
HETATM    5  O1  UNL     1      28.143   8.386  45.005  1.00  0.00    -0.267 OA
HETATM    6  N2  UNL     1      28.764   9.327  46.421  1.00  0.00    -0.311 N 
HETATM    7  C7  UNL     1      28.396   9.840  47.744  1.00  0.00     0.106 C 
HETATM    8  N3  UNL     1      27.748   9.075  48.612  1.00  0.00    -0.237 NA
HETATM    9  C8  UNL     1      28.732  11.241  48.256  1.00  0.00     0.113 C 
HETATM   10  C9  UNL     1      30.201  11.280  48.642  1.00  0.00     0.223 C 
HETATM   11  C10 UNL     1      30.457  12.696  49.135  1.00  0.00     0.043 C 
HETATM   12  N4  UNL     1      31.078  11.059  47.552  1.00  0.00     0.089 N 
HETATM   13  C11 UNL     1      32.428  10.589  47.909  1.00  0.00     0.286 C 
HETATM   14  C12 UNL     1      33.132  10.298  46.619  1.00  0.00     0.150 C 
HETATM   15  N5  UNL     1      34.264   9.420  46.664  1.00  0.00    -0.193 NA
HETATM   16  C13 UNL     1      34.845   9.456  45.301  1.00  0.00     0.144 C 
HETATM   17  O2  UNL     1      34.036   8.141  47.026  1.00  0.00    -0.262 OA
HETATM   18  C14 UNL     1      32.941   7.359  47.182  1.00  0.00     0.096 A 
HETATM   19  C15 UNL     1      33.196   6.061  47.642  1.00  0.00     0.081 A 
HETATM   20  C16 UNL     1      32.205   5.121  47.867  1.00  0.00     0.119 A 
HETATM   21  F1  UNL     1      32.475   3.848  48.319  1.00  0.00    -0.206 F 
HETATM   22  C17 UNL     1      30.845   5.332  47.673  1.00  0.00     0.054 A 
HETATM   23  C18 UNL     1      30.619   6.594  47.228  1.00  0.00    -0.015 A 
HETATM   24  C19 UNL     1      31.587   7.534  46.997  1.00  0.00     0.051 A 
HETATM   25  H9  UNL     1      29.091  10.239  45.946  1.00  0.00     0.170 HD
HETATM   26  H16 UNL     1      31.115  11.780  46.831  1.00  0.00     0.316 HD
ENDROOT
BRANCH   1  27
HETATM   27  N1  UNL     1      26.824   7.240  49.784  1.00  0.00     0.111 N 
HETATM   28  H6  UNL     1      26.195   7.982  50.134  1.00  0.00     0.319 HD
BRANCH  27  29
HETATM   29  C2  UNL     1      26.008   6.064  49.435  1.00  0.00     0.268 C 
HETATM   30  C1  UNL     1      24.919   6.565  48.509  1.00  0.00     0.037 C 
ENDBRANCH  27  29
ENDBRANCH   1  27
TORSDOF 2
ENDMDL
