MODEL 1
REMARK VINA RESULT:      -8.9      0.000      0.000
REMARK  2 active torsions:
REMARK  status: ('A' for Active; 'I' for Inactive)
REMARK    1  A    between atoms: O1_2  and  C2_3 
REMARK    2  A    between atoms: C10_14  and  N3_15 
ROOT
HETATM    1  C2  UNL     1      19.721  -0.149  52.722  1.00  0.00     0.070 A 
HETATM    2  C3  UNL     1      20.258  -0.809  53.805  1.00  0.00     0.037 A 
HETATM    3  C4  UNL     1      21.611  -0.748  54.065  1.00  0.00     0.014 A 
HETATM    4  C5  UNL     1      22.501  -0.042  53.282  1.00  0.00    -0.006 A 
HETATM    5  C6  UNL     1      21.956   0.616  52.201  1.00  0.00     0.088 A 
HETATM    6  C7  UNL     1      20.605   0.566  51.925  1.00  0.00     0.074 A 
HETATM    7  O2  UNL     1      22.645   1.383  51.277  1.00  0.00    -0.289 OA
HETATM    8  C8  UNL     1      23.985   1.735  51.290  1.00  0.00     0.202 A 
HETATM    9  N1  UNL     1      24.291   2.733  50.416  1.00  0.00    -0.215 NA
HETATM   10  C9  UNL     1      25.592   3.143  50.364  1.00  0.00     0.238 A 
HETATM   11  N2  UNL     1      26.600   2.637  51.109  1.00  0.00    -0.222 NA
HETATM   12  C10 UNL     1      26.310   1.645  51.983  1.00  0.00     0.162 A 
HETATM   13  C16 UNL     1      25.010   1.195  52.073  1.00  0.00     0.129 A 
HETATM   14  N4  UNL     1      24.917   0.136  53.029  1.00  0.00    -0.379 N 
HETATM   15  C17 UNL     1      23.821  -0.223  53.879  1.00  0.00     0.161 C 
HETATM   16  H13 UNL     1      25.841  -0.397  53.021  1.00  0.00     0.160 HD
ENDROOT
BRANCH  12  17
HETATM   17  N3  UNL     1      27.392   1.167  52.765  1.00  0.00    -0.335 N 
HETATM   18  C11 UNL     1      27.548  -0.256  52.577  1.00  0.00     0.116 A 
HETATM   19  C12 UNL     1      28.465  -0.980  53.203  1.00  0.00     0.049 A 
HETATM   20 CL1  UNL     1      28.680  -2.711  52.997  1.00  0.00    -0.083 Cl
HETATM   21  C13 UNL     1      29.400  -0.350  54.139  1.00  0.00     0.023 A 
HETATM   22  C14 UNL     1      29.246   0.951  54.287  1.00  0.00    -0.005 A 
HETATM   23  C15 UNL     1      28.280   1.883  53.661  1.00  0.00     0.157 A 
ENDBRANCH  12  17
BRANCH   1  24
HETATM   24  O1  UNL     1      18.398  -0.099  52.312  1.00  0.00    -0.356 OA
HETATM   25  C1  UNL     1      17.945  -0.103  50.993  1.00  0.00     0.210 C 
ENDBRANCH   1  24
TORSDOF 2
ENDMDL
MODEL 2
REMARK VINA RESULT:      -8.7      1.687      3.216
REMARK  2 active torsions:
REMARK  status: ('A' for Active; 'I' for Inactive)
REMARK    1  A    between atoms: O1_2  and  C2_3 
REMARK    2  A    between atoms: C10_14  and  N3_15 
ROOT
HETATM    1  C2  UNL     1      19.347   0.777  50.413  1.00  0.00     0.070 A 
HETATM    2  C3  UNL     1      20.243   1.455  49.616  1.00  0.00     0.037 A 
HETATM    3  C4  UNL     1      21.564   1.581  49.993  1.00  0.00     0.014 A 
HETATM    4  C5  UNL     1      22.070   1.053  51.164  1.00  0.00    -0.006 A 
HETATM    5  C6  UNL     1      21.167   0.377  51.955  1.00  0.00     0.088 A 
HETATM    6  C7  UNL     1      19.843   0.240  51.594  1.00  0.00     0.074 A 
HETATM    7  O2  UNL     1      21.439  -0.234  53.167  1.00  0.00    -0.289 OA
HETATM    8  C8  UNL     1      22.666  -0.385  53.791  1.00  0.00     0.202 A 
HETATM    9  N1  UNL     1      22.647  -1.283  54.815  1.00  0.00    -0.215 NA
HETATM   10  C9  UNL     1      23.817  -1.493  55.485  1.00  0.00     0.238 A 
HETATM   11  N2  UNL     1      24.993  -0.882  55.215  1.00  0.00    -0.222 NA
HETATM   12  C10 UNL     1      25.027   0.013  54.200  1.00  0.00     0.162 A 
HETATM   13  C16 UNL     1      23.870   0.261  53.491  1.00  0.00     0.129 A 
HETATM   14  N4  UNL     1      24.108   1.246  52.483  1.00  0.00    -0.379 N 
HETATM   15  C17 UNL     1      23.488   1.397  51.200  1.00  0.00     0.161 C 
HETATM   16  H13 UNL     1      24.862   1.910  52.842  1.00  0.00     0.160 HD
ENDROOT
BRANCH  12  17
HETATM   17  N3  UNL     1      26.287   0.605  53.933  1.00  0.00    -0.335 N 
HETATM   18  C11 UNL     1      27.294  -0.419  53.789  1.00  0.00     0.116 A 
HETATM   19  C12 UNL     1      28.574  -0.158  53.561  1.00  0.00     0.049 A 
HETATM   20 CL1  UNL     1      29.824  -1.378  53.381  1.00  0.00    -0.083 Cl
HETATM   21  C13 UNL     1      29.040   1.225  53.431  1.00  0.00     0.023 A 
HETATM   22  C14 UNL     1      28.101   2.142  53.556  1.00  0.00    -0.005 A 
HETATM   23  C15 UNL     1      26.648   2.004  53.807  1.00  0.00     0.157 A 
ENDBRANCH  12  17
BRANCH   1  24
HETATM   24  O1  UNL     1      17.997   0.553  50.194  1.00  0.00    -0.356 OA
HETATM   25  C1  UNL     1      17.169  -0.282  50.944  1.00  0.00     0.210 C 
ENDBRANCH   1  24
TORSDOF 2
ENDMDL
MODEL 3
REMARK VINA RESULT:      -8.5      4.108      7.042
REMARK  2 active torsions:
REMARK  status: ('A' for Active; 'I' for Inactive)
REMARK    1  A    between atoms: O1_2  and  C2_3 
REMARK    2  A    between atoms: C10_14  and  N3_15 
ROOT
HETATM    1  C2  UNL     1      27.342  -0.609  53.386  1.00  0.00     0.070 A 
HETATM    2  C3  UNL     1      26.015  -0.897  53.621  1.00  0.00     0.037 A 
HETATM    3  C4  UNL     1      25.019  -0.102  53.092  1.00  0.00     0.014 A 
HETATM    4  C5  UNL     1      25.272   1.008  52.311  1.00  0.00    -0.006 A 
HETATM    5  C6  UNL     1      26.601   1.288  52.081  1.00  0.00     0.088 A 
HETATM    6  C7  UNL     1      27.610   0.505  52.601  1.00  0.00     0.074 A 
HETATM    7  O2  UNL     1      27.098   2.342  51.333  1.00  0.00    -0.289 OA
HETATM    8  C8  UNL     1      26.387   3.267  50.586  1.00  0.00     0.202 A 
HETATM    9  N1  UNL     1      27.167   3.988  49.733  1.00  0.00    -0.215 NA
HETATM   10  C9  UNL     1      26.547   4.923  48.957  1.00  0.00     0.238 A 
HETATM   11  N2  UNL     1      25.222   5.193  48.967  1.00  0.00    -0.222 NA
HETATM   12  C10 UNL     1      24.434   4.484  49.809  1.00  0.00     0.162 A 
HETATM   13  C16 UNL     1      25.013   3.526  50.616  1.00  0.00     0.129 A 
HETATM   14  N4  UNL     1      24.023   2.910  51.443  1.00  0.00    -0.379 N 
HETATM   15  C17 UNL     1      23.974   1.571  51.951  1.00  0.00     0.161 C 
HETATM   16  H13 UNL     1      23.271   3.636  51.652  1.00  0.00     0.160 HD
ENDROOT
BRANCH  12  17
HETATM   17  N3  UNL     1      23.049   4.779  49.764  1.00  0.00    -0.335 N 
HETATM   18  C11 UNL     1      22.419   4.032  48.701  1.00  0.00     0.116 A 
HETATM   19  C12 UNL     1      21.130   4.126  48.406  1.00  0.00     0.049 A 
HETATM   20 CL1  UNL     1      20.333   3.233  47.121  1.00  0.00    -0.083 Cl
HETATM   21  C13 UNL     1      20.253   5.015  49.173  1.00  0.00     0.023 A 
HETATM   22  C14 UNL     1      20.848   5.679  50.144  1.00  0.00    -0.005 A 
HETATM   23  C15 UNL     1      22.261   5.674  50.589  1.00  0.00     0.157 A 
ENDBRANCH  12  17
BRANCH   1  24
HETATM   24  O1  UNL     1      28.463  -1.291  53.833  1.00  0.00    -0.356 OA
HETATM   25  C1  UNL     1      29.789  -0.893  53.662  1.00  0.00     0.210 C 
ENDBRANCH   1  24
TORSDOF 2
ENDMDL
MODEL 4
REMARK VINA RESULT:      -8.5      3.668      7.741
REMARK  2 active torsions:
REMARK  status: ('A' for Active; 'I' for Inactive)
REMARK    1  A    between atoms: O1_2  and  C2_3 
REMARK    2  A    between atoms: C10_14  and  N3_15 
ROOT
HETATM    1  C2  UNL     1      27.858   0.668  53.993  1.00  0.00     0.070 A 
HETATM    2  C3  UNL     1      27.639   1.876  53.368  1.00  0.00     0.037 A 
HETATM    3  C4  UNL     1      26.367   2.249  52.985  1.00  0.00     0.014 A 
HETATM    4  C5  UNL     1      25.253   1.462  53.195  1.00  0.00    -0.006 A 
HETATM    5  C6  UNL     1      25.480   0.257  53.822  1.00  0.00     0.088 A 
HETATM    6  C7  UNL     1      26.745  -0.133  54.211  1.00  0.00     0.074 A 
HETATM    7  O2  UNL     1      24.525  -0.695  54.137  1.00  0.00    -0.289 OA
HETATM    8  C8  UNL     1      23.151  -0.606  53.987  1.00  0.00     0.202 A 
HETATM    9  N1  UNL     1      22.470  -1.576  54.659  1.00  0.00    -0.215 NA
HETATM   10  C9  UNL     1      21.109  -1.563  54.566  1.00  0.00     0.238 A 
HETATM   11  N2  UNL     1      20.382  -0.666  53.862  1.00  0.00    -0.222 NA
HETATM   12  C10 UNL     1      21.046   0.304  53.190  1.00  0.00     0.162 A 
HETATM   13  C16 UNL     1      22.423   0.334  53.251  1.00  0.00     0.129 A 
HETATM   14  N4  UNL     1      22.931   1.412  52.461  1.00  0.00    -0.379 N 
HETATM   15  C17 UNL     1      24.113   2.198  52.655  1.00  0.00     0.161 C 
HETATM   16  H13 UNL     1      22.266   1.561  51.641  1.00  0.00     0.160 HD
ENDROOT
BRANCH  12  17
HETATM   17  N3  UNL     1      20.242   1.240  52.491  1.00  0.00    -0.335 N 
HETATM   18  C11 UNL     1      19.323   0.547  51.619  1.00  0.00     0.116 A 
HETATM   19  C12 UNL     1      18.464   1.168  50.821  1.00  0.00     0.049 A 
HETATM   20 CL1  UNL     1      17.334   0.357  49.749  1.00  0.00    -0.083 Cl
HETATM   21  C13 UNL     1      18.400   2.631  50.791  1.00  0.00     0.023 A 
HETATM   22  C14 UNL     1      19.241   3.241  51.603  1.00  0.00    -0.005 A 
HETATM   23  C15 UNL     1      20.244   2.689  52.542  1.00  0.00     0.157 A 
ENDBRANCH  12  17
BRANCH   1  24
HETATM   24  O1  UNL     1      29.056   0.135  54.443  1.00  0.00    -0.356 OA
HETATM   25  C1  UNL     1      29.806  -0.855  53.808  1.00  0.00     0.210 C 
ENDBRANCH   1  24
TORSDOF 2
ENDMDL
MODEL 5
REMARK VINA RESULT:      -8.1      2.069      4.165
REMARK  2 active torsions:
REMARK  status: ('A' for Active; 'I' for Inactive)
REMARK    1  A    between atoms: O1_2  and  C2_3 
REMARK    2  A    between atoms: C10_14  and  N3_15 
ROOT
HETATM    1  C2  UNL     1      16.857  -0.582  51.948  1.00  0.00     0.070 A 
HETATM    2  C3  UNL     1      17.317   0.126  50.860  1.00  0.00     0.037 A 
HETATM    3  C4  UNL     1      18.646   0.481  50.763  1.00  0.00     0.014 A 
HETATM    4  C5  UNL     1      19.587   0.161  51.722  1.00  0.00    -0.006 A 
HETATM    5  C6  UNL     1      19.118  -0.548  52.806  1.00  0.00     0.088 A 
HETATM    6  C7  UNL     1      17.792  -0.911  52.920  1.00  0.00     0.074 A 
HETATM    7  O2  UNL     1      19.867  -0.979  53.888  1.00  0.00    -0.289 OA
HETATM    8  C8  UNL     1      21.237  -0.883  54.068  1.00  0.00     0.202 A 
HETATM    9  N1  UNL     1      21.704  -1.659  55.087  1.00  0.00    -0.215 NA
HETATM   10  C9  UNL     1      23.046  -1.625  55.334  1.00  0.00     0.238 A 
HETATM   11  N2  UNL     1      23.948  -0.885  54.651  1.00  0.00    -0.222 NA
HETATM   12  C10 UNL     1      23.498  -0.111  53.636  1.00  0.00     0.162 A 
HETATM   13  C16 UNL     1      22.150  -0.109  53.346  1.00  0.00     0.129 A 
HETATM   14  N4  UNL     1      21.877   0.785  52.264  1.00  0.00    -0.379 N 
HETATM   15  C17 UNL     1      20.859   0.705  51.259  1.00  0.00     0.161 C 
HETATM   16  H13 UNL     1      22.582   1.585  52.311  1.00  0.00     0.160 HD
ENDROOT
BRANCH  12  17
HETATM   17  N3  UNL     1      24.483   0.624  52.928  1.00  0.00    -0.335 N 
HETATM   18  C11 UNL     1      25.801   0.244  53.379  1.00  0.00     0.116 A 
HETATM   19  C12 UNL     1      26.918   0.786  52.912  1.00  0.00     0.049 A 
HETATM   20 CL1  UNL     1      28.535   0.348  53.438  1.00  0.00    -0.083 Cl
HETATM   21  C13 UNL     1      26.866   1.823  51.878  1.00  0.00     0.023 A 
HETATM   22  C14 UNL     1      25.652   2.146  51.475  1.00  0.00    -0.005 A 
HETATM   23  C15 UNL     1      24.330   1.632  51.897  1.00  0.00     0.157 A 
ENDBRANCH  12  17
BRANCH   1  24
HETATM   24  O1  UNL     1      15.567  -1.019  52.209  1.00  0.00    -0.356 OA
HETATM   25  C1  UNL     1      15.095  -2.323  52.059  1.00  0.00     0.210 C 
ENDBRANCH   1  24
TORSDOF 2
ENDMDL
MODEL 6
REMARK VINA RESULT:      -8.0      5.043      8.731
REMARK  2 active torsions:
REMARK  status: ('A' for Active; 'I' for Inactive)
REMARK    1  A    between atoms: O1_2  and  C2_3 
REMARK    2  A    between atoms: C10_14  and  N3_15 
ROOT
HETATM    1  C2  UNL     1      28.840   7.834  47.591  1.00  0.00     0.070 A 
HETATM    2  C3  UNL     1      29.230   6.513  47.620  1.00  0.00     0.037 A 
HETATM    3  C4  UNL     1      28.450   5.564  48.248  1.00  0.00     0.014 A 
HETATM    4  C5  UNL     1      27.255   5.859  48.873  1.00  0.00    -0.006 A 
HETATM    5  C6  UNL     1      26.872   7.182  48.839  1.00  0.00     0.088 A 
HETATM    6  C7  UNL     1      27.640   8.145  48.217  1.00  0.00     0.074 A 
HETATM    7  O2  UNL     1      25.722   7.716  49.394  1.00  0.00    -0.289 OA
HETATM    8  C8  UNL     1      24.678   7.042  50.006  1.00  0.00     0.202 A 
HETATM    9  N1  UNL     1      23.566   7.810  50.179  1.00  0.00    -0.215 NA
HETATM   10  C9  UNL     1      22.487   7.223  50.774  1.00  0.00     0.238 A 
HETATM   11  N2  UNL     1      22.433   5.943  51.206  1.00  0.00    -0.222 NA
HETATM   12  C10 UNL     1      23.531   5.168  51.040  1.00  0.00     0.162 A 
HETATM   13  C16 UNL     1      24.648   5.714  50.443  1.00  0.00     0.129 A 
HETATM   14  N4  UNL     1      25.700   4.748  50.382  1.00  0.00    -0.379 N 
HETATM   15  C17 UNL     1      26.740   4.602  49.407  1.00  0.00     0.161 C 
HETATM   16  H13 UNL     1      25.605   4.103  51.227  1.00  0.00     0.160 HD
ENDROOT
BRANCH  12  17
HETATM   17  N3  UNL     1      23.418   3.825  51.479  1.00  0.00    -0.335 N 
HETATM   18  C11 UNL     1      22.686   3.047  50.508  1.00  0.00     0.116 A 
HETATM   19  C12 UNL     1      22.404   1.761  50.665  1.00  0.00     0.049 A 
HETATM   20 CL1  UNL     1      21.517   0.786  49.505  1.00  0.00    -0.083 Cl
HETATM   21  C13 UNL     1      22.843   1.043  51.865  1.00  0.00     0.023 A 
HETATM   22  C14 UNL     1      23.519   1.772  52.732  1.00  0.00    -0.005 A 
HETATM   23  C15 UNL     1      23.908   3.200  52.693  1.00  0.00     0.157 A 
ENDBRANCH  12  17
BRANCH   1  24
HETATM   24  O1  UNL     1      29.492   8.912  47.013  1.00  0.00    -0.356 OA
HETATM   25  C1  UNL     1      30.857   9.186  47.091  1.00  0.00     0.210 C 
ENDBRANCH   1  24
TORSDOF 2
ENDMDL
MODEL 7
REMARK VINA RESULT:      -7.7      7.091      9.545
REMARK  2 active torsions:
REMARK  status: ('A' for Active; 'I' for Inactive)
REMARK    1  A    between atoms: O1_2  and  C2_3 
REMARK    2  A    between atoms: C10_14  and  N3_15 
ROOT
HETATM    1  C2  UNL     1      24.787   4.060  49.470  1.00  0.00     0.070 A 
HETATM    2  C3  UNL     1      24.256   5.329  49.545  1.00  0.00     0.037 A 
HETATM    3  C4  UNL     1      25.050   6.437  49.338  1.00  0.00     0.014 A 
HETATM    4  C5  UNL     1      26.398   6.359  49.049  1.00  0.00    -0.006 A 
HETATM    5  C6  UNL     1      26.921   5.086  48.975  1.00  0.00     0.088 A 
HETATM    6  C7  UNL     1      26.142   3.966  49.179  1.00  0.00     0.074 A 
HETATM    7  O2  UNL     1      28.238   4.758  48.702  1.00  0.00    -0.289 OA
HETATM    8  C8  UNL     1      29.274   5.608  48.351  1.00  0.00     0.202 A 
HETATM    9  N1  UNL     1      30.365   4.957  47.859  1.00  0.00    -0.215 NA
HETATM   10  C9  UNL     1      31.433   5.719  47.487  1.00  0.00     0.238 A 
HETATM   11  N2  UNL     1      31.498   7.068  47.569  1.00  0.00    -0.222 NA
HETATM   12  C10 UNL     1      30.420   7.728  48.055  1.00  0.00     0.162 A 
HETATM   13  C16 UNL     1      29.314   7.002  48.445  1.00  0.00     0.129 A 
HETATM   14  N4  UNL     1      28.301   7.876  48.948  1.00  0.00    -0.379 N 
HETATM   15  C17 UNL     1      26.876   7.730  48.903  1.00  0.00     0.161 C 
HETATM   16  H13 UNL     1      28.782   8.712  49.403  1.00  0.00     0.160 HD
ENDROOT
BRANCH  12  17
HETATM   17  N3  UNL     1      30.520   9.141  48.093  1.00  0.00    -0.335 N 
HETATM   18  C11 UNL     1      30.327   9.687  46.771  1.00  0.00     0.116 A 
HETATM   19  C12 UNL     1      30.392  10.983  46.498  1.00  0.00     0.049 A 
HETATM   20 CL1  UNL     1      30.162  11.678  44.902  1.00  0.00    -0.083 Cl
HETATM   21  C13 UNL     1      30.662  11.955  47.560  1.00  0.00     0.023 A 
HETATM   22  C14 UNL     1      30.825  11.434  48.761  1.00  0.00    -0.005 A 
HETATM   23  C15 UNL     1      30.779  10.025  49.214  1.00  0.00     0.157 A 
ENDBRANCH  12  17
BRANCH   1  24
HETATM   24  O1  UNL     1      24.144   2.845  49.646  1.00  0.00    -0.356 OA
HETATM   25  C1  UNL     1      23.737   2.299  50.864  1.00  0.00     0.210 C 
ENDBRANCH   1  24
TORSDOF 2
ENDMDL
MODEL 8
REMARK VINA RESULT:      -7.6      3.680      7.436
REMARK  2 active torsions:
REMARK  status: ('A' for Active; 'I' for Inactive)
REMARK    1  A    between atoms: O1_2  and  C2_3 
REMARK    2  A    between atoms: C10_14  and  N3_15 
ROOT
HETATM    1  C2  UNL     1      25.458  -0.527  54.122  1.00  0.00     0.070 A 
HETATM    2  C3  UNL     1      24.359  -1.026  54.785  1.00  0.00     0.037 A 
HETATM    3  C4  UNL     1      23.083  -0.688  54.384  1.00  0.00     0.014 A 
HETATM    4  C5  UNL     1      22.822   0.151  53.319  1.00  0.00    -0.006 A 
HETATM    5  C6  UNL     1      23.927   0.645  52.661  1.00  0.00     0.088 A 
HETATM    6  C7  UNL     1      25.210   0.319  53.049  1.00  0.00     0.074 A 
HETATM    7  O2  UNL     1      23.917   1.499  51.572  1.00  0.00    -0.289 OA
HETATM    8  C8  UNL     1      22.822   1.956  50.856  1.00  0.00     0.202 A 
HETATM    9  N1  UNL     1      23.156   2.536  49.670  1.00  0.00    -0.215 NA
HETATM   10  C9  UNL     1      22.136   3.014  48.899  1.00  0.00     0.238 A 
HETATM   11  N2  UNL     1      20.823   2.959  49.218  1.00  0.00    -0.222 NA
HETATM   12  C10 UNL     1      20.477   2.384  50.394  1.00  0.00     0.162 A 
HETATM   13  C16 UNL     1      21.471   1.886  51.210  1.00  0.00     0.129 A 
HETATM   14  N4  UNL     1      20.906   1.346  52.406  1.00  0.00    -0.379 N 
HETATM   15  C17 UNL     1      21.370   0.258  53.216  1.00  0.00     0.161 C 
HETATM   16  H13 UNL     1      20.028   1.906  52.638  1.00  0.00     0.160 HD
ENDROOT
BRANCH  12  17
HETATM   17  N3  UNL     1      19.089   2.321  50.672  1.00  0.00    -0.335 N 
HETATM   18  C11 UNL     1      18.517   1.140  50.070  1.00  0.00     0.116 A 
HETATM   19  C12 UNL     1      17.229   0.833  50.143  1.00  0.00     0.049 A 
HETATM   20 CL1  UNL     1      16.502  -0.594  49.422  1.00  0.00    -0.083 Cl
HETATM   21  C13 UNL     1      16.297   1.700  50.868  1.00  0.00     0.023 A 
HETATM   22  C14 UNL     1      16.843   2.766  51.418  1.00  0.00    -0.005 A 
HETATM   23  C15 UNL     1      18.248   3.233  51.424  1.00  0.00     0.157 A 
ENDBRANCH  12  17
BRANCH   1  24
HETATM   24  O1  UNL     1      26.800  -0.757  54.384  1.00  0.00    -0.356 OA
HETATM   25  C1  UNL     1      27.771   0.217  54.618  1.00  0.00     0.210 C 
ENDBRANCH   1  24
TORSDOF 2
ENDMDL
MODEL 9
REMARK VINA RESULT:      -7.6      3.378      5.244
REMARK  2 active torsions:
REMARK  status: ('A' for Active; 'I' for Inactive)
REMARK    1  A    between atoms: O1_2  and  C2_3 
REMARK    2  A    between atoms: C10_14  and  N3_15 
ROOT
HETATM    1  C2  UNL     1      17.736  -2.266  53.462  1.00  0.00     0.070 A 
HETATM    2  C3  UNL     1      17.164  -1.269  52.704  1.00  0.00     0.037 A 
HETATM    3  C4  UNL     1      17.907  -0.178  52.301  1.00  0.00     0.014 A 
HETATM    4  C5  UNL     1      19.240  -0.012  52.618  1.00  0.00    -0.006 A 
HETATM    5  C6  UNL     1      19.805  -1.015  53.375  1.00  0.00     0.088 A 
HETATM    6  C7  UNL     1      19.078  -2.113  53.788  1.00  0.00     0.074 A 
HETATM    7  O2  UNL     1      21.117  -1.069  53.814  1.00  0.00    -0.289 OA
HETATM    8  C8  UNL     1      22.153  -0.200  53.514  1.00  0.00     0.202 A 
HETATM    9  N1  UNL     1      23.380  -0.685  53.852  1.00  0.00    -0.215 NA
HETATM   10  C9  UNL     1      24.460   0.108  53.590  1.00  0.00     0.238 A 
HETATM   11  N2  UNL     1      24.410   1.334  53.023  1.00  0.00    -0.222 NA
HETATM   12  C10 UNL     1      23.196   1.828  52.681  1.00  0.00     0.162 A 
HETATM   13  C16 UNL     1      22.073   1.066  52.925  1.00  0.00     0.129 A 
HETATM   14  N4  UNL     1      20.898   1.769  52.517  1.00  0.00    -0.379 N 
HETATM   15  C17 UNL     1      19.660   1.249  52.015  1.00  0.00     0.161 C 
HETATM   16  H13 UNL     1      21.075   2.812  52.650  1.00  0.00     0.160 HD
ENDROOT
BRANCH  12  17
HETATM   17  N3  UNL     1      23.194   3.103  52.061  1.00  0.00    -0.335 N 
HETATM   18  C11 UNL     1      23.050   2.958  50.632  1.00  0.00     0.116 A 
HETATM   19  C12 UNL     1      23.041   3.983  49.791  1.00  0.00     0.049 A 
HETATM   20 CL1  UNL     1      22.868   3.842  48.049  1.00  0.00    -0.083 Cl
HETATM   21  C13 UNL     1      23.173   5.356  50.288  1.00  0.00     0.023 A 
HETATM   22  C14 UNL     1      23.294   5.463  51.597  1.00  0.00    -0.005 A 
HETATM   23  C15 UNL     1      23.317   4.423  52.650  1.00  0.00     0.157 A 
ENDBRANCH  12  17
BRANCH   1  24
HETATM   24  O1  UNL     1      17.148  -3.423  53.950  1.00  0.00    -0.356 OA
HETATM   25  C1  UNL     1      17.071  -4.649  53.290  1.00  0.00     0.210 C 
ENDBRANCH   1  24
TORSDOF 2
ENDMDL
