MODEL 1
REMARK VINA RESULT:      -9.1      0.000      0.000
REMARK  7 active torsions:
REMARK  status: ('A' for Active; 'I' for Inactive)
REMARK    1  A    between atoms: C3_3  and  C4_4 
REMARK    2  A    between atoms: C3_3  and  N2_16 
REMARK    3  A    between atoms: N2_16  and  C13_17 
REMARK    4  A    between atoms: C15_19  and  C16_20 
REMARK       I    between atoms: C16_20  and  N3_22 
REMARK    5  A    between atoms: N3_22  and  C17_23 
REMARK    6  A    between atoms: C17_23  and  C18_24 
REMARK    7  A    between atoms: C18_24  and  N4_25 
ROOT
HETATM    1  C1  UNL     1      27.861   0.157  53.667  1.00  0.00     0.038 C 
HETATM    2  C2  UNL     1      26.637  -0.613  53.370  1.00  0.00    -0.002 C 
HETATM    3  C3  UNL     1      25.362  -0.475  53.325  1.00  0.00     0.029 C 
ENDROOT
BRANCH   3   4
HETATM    4  C4  UNL     1      23.955  -0.448  53.239  1.00  0.00     0.047 C 
HETATM    5  C5  UNL     1      22.744  -0.652  53.617  1.00  0.00     0.047 A 
HETATM    6  C6  UNL     1      22.193  -1.247  54.798  1.00  0.00     0.257 A 
HETATM    7  C12 UNL     1      21.702  -0.232  52.694  1.00  0.00     0.009 A 
HETATM    8  O1  UNL     1      22.721  -1.723  55.805  1.00  0.00    -0.267 OA
HETATM    9  N1  UNL     1      20.795  -1.201  54.619  1.00  0.00    -0.322 N 
HETATM   10  C7  UNL     1      20.567  -0.594  53.363  1.00  0.00     0.046 A 
HETATM   11  H6  UNL     1      20.074  -1.553  55.292  1.00  0.00     0.169 HD
HETATM   12  C8  UNL     1      19.341  -0.326  52.736  1.00  0.00     0.033 A 
HETATM   13  C9  UNL     1      19.204   0.280  51.482  1.00  0.00     0.044 A 
HETATM   14  C10 UNL     1      20.375   0.627  50.848  1.00  0.00     0.117 A 
HETATM   15  F1  UNL     1      20.299   1.218  49.631  1.00  0.00    -0.206 F 
HETATM   16  C11 UNL     1      21.593   0.376  51.439  1.00  0.00     0.057 A 
ENDBRANCH   3   4
BRANCH   3  17
HETATM   17  N2  UNL     1      25.403   0.898  53.794  1.00  0.00    -0.360 N 
HETATM   18  H10 UNL     1      25.687   1.256  54.728  1.00  0.00     0.166 HD
BRANCH  17  19
HETATM   19  C13 UNL     1      24.968   1.842  52.795  1.00  0.00     0.011 C 
HETATM   20  C14 UNL     1      25.452   1.711  51.392  1.00  0.00     0.068 C 
HETATM   21  C15 UNL     1      24.155   2.849  53.022  1.00  0.00     0.098 C 
BRANCH  21  22
HETATM   22  C16 UNL     1      23.660   3.847  52.085  1.00  0.00     0.243 C 
HETATM   23  O2  UNL     1      22.584   3.695  51.458  1.00  0.00    -0.269 OA
HETATM   24  N3  UNL     1      24.429   5.020  51.885  1.00  0.00    -0.356 N 
HETATM   25  H15 UNL     1      25.332   5.138  52.413  1.00  0.00     0.162 HD
BRANCH  24  26
HETATM   26  C17 UNL     1      24.056   6.080  50.994  1.00  0.00     0.153 C 
BRANCH  26  27
HETATM   27  C18 UNL     1      24.451   5.790  49.567  1.00  0.00     0.292 C 
BRANCH  27  28
HETATM   28  N4  UNL     1      25.893   5.909  49.483  1.00  0.00     0.090 N 
HETATM   29  C19 UNL     1      26.324   6.774  48.394  1.00  0.00     0.272 C 
HETATM   30  C20 UNL     1      27.834   6.496  48.405  1.00  0.00     0.032 C 
HETATM   31  C21 UNL     1      27.839   4.986  48.538  1.00  0.00     0.032 C 
HETATM   32  C22 UNL     1      26.521   4.626  49.224  1.00  0.00     0.272 C 
ENDBRANCH  27  28
ENDBRANCH  26  27
ENDBRANCH  24  26
ENDBRANCH  21  22
ENDBRANCH  17  19
ENDBRANCH   3  17
TORSDOF 7
ENDMDL
MODEL 2
REMARK VINA RESULT:      -8.8      2.415      6.389
REMARK  7 active torsions:
REMARK  status: ('A' for Active; 'I' for Inactive)
REMARK    1  A    between atoms: C3_3  and  C4_4 
REMARK    2  A    between atoms: C3_3  and  N2_16 
REMARK    3  A    between atoms: N2_16  and  C13_17 
REMARK    4  A    between atoms: C15_19  and  C16_20 
REMARK       I    between atoms: C16_20  and  N3_22 
REMARK    5  A    between atoms: N3_22  and  C17_23 
REMARK    6  A    between atoms: C17_23  and  C18_24 
REMARK    7  A    between atoms: C18_24  and  N4_25 
ROOT
HETATM    1  C1  UNL     1      26.565   5.369  48.585  1.00  0.00     0.038 C 
HETATM    2  C2  UNL     1      26.990   4.122  49.252  1.00  0.00    -0.002 C 
HETATM    3  C3  UNL     1      26.737   3.415  50.292  1.00  0.00     0.029 C 
ENDROOT
BRANCH   3   4
HETATM    4  C4  UNL     1      26.550   2.554  51.393  1.00  0.00     0.047 C 
HETATM    5  C5  UNL     1      26.831   1.991  52.514  1.00  0.00     0.047 A 
HETATM    6  C6  UNL     1      27.938   2.133  53.410  1.00  0.00     0.257 A 
HETATM    7  C12 UNL     1      25.880   1.002  52.993  1.00  0.00     0.009 A 
HETATM    8  O1  UNL     1      28.941   2.851  53.376  1.00  0.00    -0.267 OA
HETATM    9  N1  UNL     1      27.685   1.228  54.460  1.00  0.00    -0.322 N 
HETATM   10  C7  UNL     1      26.460   0.591  54.159  1.00  0.00     0.046 A 
HETATM   11  H6  UNL     1      28.294   1.066  55.297  1.00  0.00     0.169 HD
HETATM   12  C8  UNL     1      25.785  -0.392  54.899  1.00  0.00     0.033 A 
HETATM   13  C9  UNL     1      24.570  -0.975  54.524  1.00  0.00     0.044 A 
HETATM   14  C10 UNL     1      24.024  -0.529  53.343  1.00  0.00     0.117 A 
HETATM   15  F1  UNL     1      22.847  -1.061  52.934  1.00  0.00    -0.206 F 
HETATM   16  C11 UNL     1      24.664   0.435  52.595  1.00  0.00     0.057 A 
ENDBRANCH   3   4
BRANCH   3  17
HETATM   17  N2  UNL     1      25.764   4.360  50.810  1.00  0.00    -0.360 N 
HETATM   18  H10 UNL     1      25.932   5.278  51.267  1.00  0.00     0.166 HD
BRANCH  17  19
HETATM   19  C13 UNL     1      24.405   3.902  50.655  1.00  0.00     0.011 C 
HETATM   20  C14 UNL     1      23.459   3.991  51.802  1.00  0.00     0.068 C 
HETATM   21  C15 UNL     1      23.911   3.389  49.551  1.00  0.00     0.098 C 
BRANCH  21  22
HETATM   22  C16 UNL     1      22.561   2.903  49.299  1.00  0.00     0.243 C 
HETATM   23  O2  UNL     1      21.705   3.600  48.702  1.00  0.00    -0.269 OA
HETATM   24  N3  UNL     1      22.220   1.605  49.749  1.00  0.00    -0.356 N 
HETATM   25  H15 UNL     1      22.944   1.029  50.252  1.00  0.00     0.162 HD
BRANCH  24  26
HETATM   26  C17 UNL     1      20.930   1.006  49.565  1.00  0.00     0.153 C 
BRANCH  26  27
HETATM   27  C18 UNL     1      19.969   1.375  50.667  1.00  0.00     0.292 C 
BRANCH  27  28
HETATM   28  N4  UNL     1      20.314   0.580  51.829  1.00  0.00     0.090 N 
HETATM   29  C19 UNL     1      19.192  -0.203  52.328  1.00  0.00     0.272 C 
HETATM   30  C20 UNL     1      19.780  -0.706  53.655  1.00  0.00     0.032 C 
HETATM   31  C21 UNL     1      20.416   0.566  54.179  1.00  0.00     0.032 C 
HETATM   32  C22 UNL     1      20.725   1.414  52.944  1.00  0.00     0.272 C 
ENDBRANCH  27  28
ENDBRANCH  26  27
ENDBRANCH  24  26
ENDBRANCH  21  22
ENDBRANCH  17  19
ENDBRANCH   3  17
TORSDOF 7
ENDMDL
MODEL 3
REMARK VINA RESULT:      -8.8      1.217      2.292
REMARK  7 active torsions:
REMARK  status: ('A' for Active; 'I' for Inactive)
REMARK    1  A    between atoms: C3_3  and  C4_4 
REMARK    2  A    between atoms: C3_3  and  N2_16 
REMARK    3  A    between atoms: N2_16  and  C13_17 
REMARK    4  A    between atoms: C15_19  and  C16_20 
REMARK       I    between atoms: C16_20  and  N3_22 
REMARK    5  A    between atoms: N3_22  and  C17_23 
REMARK    6  A    between atoms: C17_23  and  C18_24 
REMARK    7  A    between atoms: C18_24  and  N4_25 
ROOT
HETATM    1  C1  UNL     1      27.907   0.137  53.409  1.00  0.00     0.038 C 
HETATM    2  C2  UNL     1      26.662  -0.596  53.104  1.00  0.00    -0.002 C 
HETATM    3  C3  UNL     1      25.388  -0.445  53.128  1.00  0.00     0.029 C 
ENDROOT
BRANCH   3   4
HETATM    4  C4  UNL     1      23.979  -0.401  53.109  1.00  0.00     0.047 C 
HETATM    5  C5  UNL     1      22.785  -0.569  53.553  1.00  0.00     0.047 A 
HETATM    6  C6  UNL     1      22.284  -1.099  54.785  1.00  0.00     0.257 A 
HETATM    7  C12 UNL     1      21.705  -0.175  52.663  1.00  0.00     0.009 A 
HETATM    8  O1  UNL     1      22.853  -1.536  55.788  1.00  0.00    -0.267 OA
HETATM    9  N1  UNL     1      20.880  -1.041  54.672  1.00  0.00    -0.322 N 
HETATM   10  C7  UNL     1      20.599  -0.489  53.401  1.00  0.00     0.046 A 
HETATM   11  H6  UNL     1      20.188  -1.350  55.394  1.00  0.00     0.169 HD
HETATM   12  C8  UNL     1      19.348  -0.231  52.821  1.00  0.00     0.033 A 
HETATM   13  C9  UNL     1      19.159   0.319  51.549  1.00  0.00     0.044 A 
HETATM   14  C10 UNL     1      20.302   0.618  50.844  1.00  0.00     0.117 A 
HETATM   15  F1  UNL     1      20.175   1.154  49.605  1.00  0.00    -0.206 F 
HETATM   16  C11 UNL     1      21.544   0.376  51.387  1.00  0.00     0.057 A 
ENDBRANCH   3   4
BRANCH   3  17
HETATM   17  N2  UNL     1      25.465   0.883  53.709  1.00  0.00    -0.360 N 
HETATM   18  H10 UNL     1      25.739   1.154  54.675  1.00  0.00     0.166 HD
BRANCH  17  19
HETATM   19  C13 UNL     1      25.085   1.920  52.782  1.00  0.00     0.011 C 
HETATM   20  C14 UNL     1      24.081   2.943  53.186  1.00  0.00     0.068 C 
HETATM   21  C15 UNL     1      25.561   2.043  51.563  1.00  0.00     0.098 C 
BRANCH  21  22
HETATM   22  C16 UNL     1      25.242   3.050  50.560  1.00  0.00     0.243 C 
HETATM   23  O2  UNL     1      24.300   2.902  49.745  1.00  0.00    -0.269 OA
HETATM   24  N3  UNL     1      26.030   4.226  50.517  1.00  0.00    -0.356 N 
HETATM   25  H15 UNL     1      26.819   4.341  51.204  1.00  0.00     0.162 HD
BRANCH  24  26
HETATM   26  C17 UNL     1      25.822   5.296  49.585  1.00  0.00     0.153 C 
BRANCH  26  27
HETATM   27  C18 UNL     1      25.387   6.569  50.268  1.00  0.00     0.292 C 
BRANCH  27  28
HETATM   28  N4  UNL     1      23.995   6.788  49.932  1.00  0.00     0.090 N 
HETATM   29  C19 UNL     1      23.629   8.199  49.938  1.00  0.00     0.272 C 
HETATM   30  C20 UNL     1      22.103   8.085  49.810  1.00  0.00     0.032 C 
HETATM   31  C21 UNL     1      21.821   6.980  50.809  1.00  0.00     0.032 C 
HETATM   32  C22 UNL     1      23.107   6.159  50.894  1.00  0.00     0.272 C 
ENDBRANCH  27  28
ENDBRANCH  26  27
ENDBRANCH  24  26
ENDBRANCH  21  22
ENDBRANCH  17  19
ENDBRANCH   3  17
TORSDOF 7
ENDMDL
MODEL 4
REMARK VINA RESULT:      -8.6      1.784      4.196
REMARK  7 active torsions:
REMARK  status: ('A' for Active; 'I' for Inactive)
REMARK    1  A    between atoms: C3_3  and  C4_4 
REMARK    2  A    between atoms: C3_3  and  N2_16 
REMARK    3  A    between atoms: N2_16  and  C13_17 
REMARK    4  A    between atoms: C15_19  and  C16_20 
REMARK       I    between atoms: C16_20  and  N3_22 
REMARK    5  A    between atoms: N3_22  and  C17_23 
REMARK    6  A    between atoms: C17_23  and  C18_24 
REMARK    7  A    between atoms: C18_24  and  N4_25 
ROOT
HETATM    1  C1  UNL     1      18.679   0.073  51.572  1.00  0.00     0.038 C 
HETATM    2  C2  UNL     1      19.692  -0.039  52.639  1.00  0.00    -0.002 C 
HETATM    3  C3  UNL     1      20.964  -0.082  52.802  1.00  0.00     0.029 C 
ENDROOT
BRANCH   3   4
HETATM    4  C4  UNL     1      22.339  -0.139  53.110  1.00  0.00     0.047 C 
HETATM    5  C5  UNL     1      23.387  -0.444  53.788  1.00  0.00     0.047 A 
HETATM    6  C6  UNL     1      23.561  -1.157  55.018  1.00  0.00     0.257 A 
HETATM    7  C12 UNL     1      24.657   0.017  53.253  1.00  0.00     0.009 A 
HETATM    8  O1  UNL     1      22.757  -1.701  55.778  1.00  0.00    -0.267 OA
HETATM    9  N1  UNL     1      24.950  -1.145  55.261  1.00  0.00    -0.322 N 
HETATM   10  C7  UNL     1      25.542  -0.440  54.189  1.00  0.00     0.046 A 
HETATM   11  H6  UNL     1      25.438  -1.578  56.080  1.00  0.00     0.169 HD
HETATM   12  C8  UNL     1      26.900  -0.159  53.977  1.00  0.00     0.033 A 
HETATM   13  C9  UNL     1      27.404   0.552  52.882  1.00  0.00     0.044 A 
HETATM   14  C10 UNL     1      26.475   0.991  51.967  1.00  0.00     0.117 A 
HETATM   15  F1  UNL     1      26.910   1.685  50.887  1.00  0.00    -0.206 F 
HETATM   16  C11 UNL     1      25.135   0.731  52.149  1.00  0.00     0.057 A 
ENDBRANCH   3   4
BRANCH   3  17
HETATM   17  N2  UNL     1      21.240  -0.049  51.377  1.00  0.00    -0.360 N 
HETATM   18  H10 UNL     1      21.184  -0.825  50.688  1.00  0.00     0.166 HD
BRANCH  17  19
HETATM   19  C13 UNL     1      21.655   1.254  50.920  1.00  0.00     0.011 C 
HETATM   20  C14 UNL     1      21.885   1.491  49.468  1.00  0.00     0.068 C 
HETATM   21  C15 UNL     1      21.862   2.289  51.703  1.00  0.00     0.098 C 
BRANCH  21  22
HETATM   22  C16 UNL     1      22.277   3.637  51.337  1.00  0.00     0.243 C 
HETATM   23  O2  UNL     1      21.458   4.500  50.941  1.00  0.00    -0.269 OA
HETATM   24  N3  UNL     1      23.652   3.965  51.435  1.00  0.00    -0.356 N 
HETATM   25  H15 UNL     1      24.332   3.232  51.766  1.00  0.00     0.162 HD
BRANCH  24  26
HETATM   26  C17 UNL     1      24.193   5.252  51.110  1.00  0.00     0.153 C 
BRANCH  26  27
HETATM   27  C18 UNL     1      24.501   5.384  49.639  1.00  0.00     0.292 C 
BRANCH  27  28
HETATM   28  N4  UNL     1      25.907   5.714  49.518  1.00  0.00     0.090 N 
HETATM   29  C19 UNL     1      26.175   6.645  48.430  1.00  0.00     0.272 C 
HETATM   30  C20 UNL     1      27.710   6.592  48.396  1.00  0.00     0.032 C 
HETATM   31  C21 UNL     1      27.939   5.098  48.506  1.00  0.00     0.032 C 
HETATM   32  C22 UNL     1      26.709   4.540  49.222  1.00  0.00     0.272 C 
ENDBRANCH  27  28
ENDBRANCH  26  27
ENDBRANCH  24  26
ENDBRANCH  21  22
ENDBRANCH  17  19
ENDBRANCH   3  17
TORSDOF 7
ENDMDL
MODEL 5
REMARK VINA RESULT:      -8.6      1.993      3.365
REMARK  7 active torsions:
REMARK  status: ('A' for Active; 'I' for Inactive)
REMARK    1  A    between atoms: C3_3  and  C4_4 
REMARK    2  A    between atoms: C3_3  and  N2_16 
REMARK    3  A    between atoms: N2_16  and  C13_17 
REMARK    4  A    between atoms: C15_19  and  C16_20 
REMARK       I    between atoms: C16_20  and  N3_22 
REMARK    5  A    between atoms: N3_22  and  C17_23 
REMARK    6  A    between atoms: C17_23  and  C18_24 
REMARK    7  A    between atoms: C18_24  and  N4_25 
ROOT
HETATM    1  C1  UNL     1      28.000   0.159  53.291  1.00  0.00     0.038 C 
HETATM    2  C2  UNL     1      26.757  -0.580  52.996  1.00  0.00    -0.002 C 
HETATM    3  C3  UNL     1      25.483  -0.445  53.053  1.00  0.00     0.029 C 
ENDROOT
BRANCH   3   4
HETATM    4  C4  UNL     1      24.073  -0.416  53.066  1.00  0.00     0.047 C 
HETATM    5  C5  UNL     1      22.892  -0.584  53.544  1.00  0.00     0.047 A 
HETATM    6  C6  UNL     1      22.427  -1.084  54.803  1.00  0.00     0.257 A 
HETATM    7  C12 UNL     1      21.787  -0.229  52.669  1.00  0.00     0.009 A 
HETATM    8  O1  UNL     1      23.025  -1.485  55.804  1.00  0.00    -0.267 OA
HETATM    9  N1  UNL     1      21.020  -1.044  54.722  1.00  0.00    -0.322 N 
HETATM   10  C7  UNL     1      20.703  -0.532  53.443  1.00  0.00     0.046 A 
HETATM   11  H6  UNL     1      20.349  -1.340  55.469  1.00  0.00     0.169 HD
HETATM   12  C8  UNL     1      19.435  -0.306  52.886  1.00  0.00     0.033 A 
HETATM   13  C9  UNL     1      19.209   0.205  51.603  1.00  0.00     0.044 A 
HETATM   14  C10 UNL     1      20.331   0.496  50.862  1.00  0.00     0.117 A 
HETATM   15  F1  UNL     1      20.169   0.993  49.612  1.00  0.00    -0.206 F 
HETATM   16  C11 UNL     1      21.589   0.284  51.382  1.00  0.00     0.057 A 
ENDBRANCH   3   4
BRANCH   3  17
HETATM   17  N2  UNL     1      25.558   0.870  53.665  1.00  0.00    -0.360 N 
HETATM   18  H10 UNL     1      25.851   1.119  54.630  1.00  0.00     0.166 HD
BRANCH  17  19
HETATM   19  C13 UNL     1      25.146   1.924  52.772  1.00  0.00     0.011 C 
HETATM   20  C14 UNL     1      24.331   3.058  53.292  1.00  0.00     0.068 C 
HETATM   21  C15 UNL     1      25.431   1.973  51.491  1.00  0.00     0.098 C 
BRANCH  21  22
HETATM   22  C16 UNL     1      25.064   2.990  50.516  1.00  0.00     0.243 C 
HETATM   23  O2  UNL     1      25.804   3.973  50.270  1.00  0.00    -0.269 OA
HETATM   24  N3  UNL     1      23.831   2.852  49.834  1.00  0.00    -0.356 N 
HETATM   25  H15 UNL     1      23.215   2.025  50.049  1.00  0.00     0.162 HD
BRANCH  24  26
HETATM   26  C17 UNL     1      23.351   3.778  48.850  1.00  0.00     0.153 C 
BRANCH  26  27
HETATM   27  C18 UNL     1      22.405   4.795  49.440  1.00  0.00     0.292 C 
BRANCH  27  28
HETATM   28  N4  UNL     1      21.204   4.090  49.840  1.00  0.00     0.090 N 
HETATM   29  C19 UNL     1      20.001   4.631  49.222  1.00  0.00     0.272 C 
HETATM   30  C20 UNL     1      18.924   3.875  50.015  1.00  0.00     0.032 C 
HETATM   31  C21 UNL     1      19.467   4.012  51.423  1.00  0.00     0.032 C 
HETATM   32  C22 UNL     1      20.977   4.189  51.271  1.00  0.00     0.272 C 
ENDBRANCH  27  28
ENDBRANCH  26  27
ENDBRANCH  24  26
ENDBRANCH  21  22
ENDBRANCH  17  19
ENDBRANCH   3  17
TORSDOF 7
ENDMDL
MODEL 6
REMARK VINA RESULT:      -8.2      2.217      4.753
REMARK  7 active torsions:
REMARK  status: ('A' for Active; 'I' for Inactive)
REMARK    1  A    between atoms: C3_3  and  C4_4 
REMARK    2  A    between atoms: C3_3  and  N2_16 
REMARK    3  A    between atoms: N2_16  and  C13_17 
REMARK    4  A    between atoms: C15_19  and  C16_20 
REMARK       I    between atoms: C16_20  and  N3_22 
REMARK    5  A    between atoms: N3_22  and  C17_23 
REMARK    6  A    between atoms: C17_23  and  C18_24 
REMARK    7  A    between atoms: C18_24  and  N4_25 
ROOT
HETATM    1  C1  UNL     1      18.626  -0.003  51.731  1.00  0.00     0.038 C 
HETATM    2  C2  UNL     1      19.670  -0.125  52.768  1.00  0.00    -0.002 C 
HETATM    3  C3  UNL     1      20.946  -0.135  52.896  1.00  0.00     0.029 C 
ENDROOT
BRANCH   3   4
HETATM    4  C4  UNL     1      22.330  -0.162  53.166  1.00  0.00     0.047 C 
HETATM    5  C5  UNL     1      23.403  -0.448  53.813  1.00  0.00     0.047 A 
HETATM    6  C6  UNL     1      23.628  -1.171  55.028  1.00  0.00     0.257 A 
HETATM    7  C12 UNL     1      24.647   0.051  53.250  1.00  0.00     0.009 A 
HETATM    8  O1  UNL     1      22.858  -1.744  55.802  1.00  0.00    -0.267 OA
HETATM    9  N1  UNL     1      25.022  -1.128  55.234  1.00  0.00    -0.322 N 
HETATM   10  C7  UNL     1      25.567  -0.395  54.155  1.00  0.00     0.046 A 
HETATM   11  H6  UNL     1      25.542  -1.558  56.035  1.00  0.00     0.169 HD
HETATM   12  C8  UNL     1      26.912  -0.078  53.911  1.00  0.00     0.033 A 
HETATM   13  C9  UNL     1      27.369   0.659  52.813  1.00  0.00     0.044 A 
HETATM   14  C10 UNL     1      26.405   1.086  51.928  1.00  0.00     0.117 A 
HETATM   15  F1  UNL     1      26.793   1.803  50.846  1.00  0.00    -0.206 F 
HETATM   16  C11 UNL     1      25.077   0.790  52.142  1.00  0.00     0.057 A 
ENDBRANCH   3   4
BRANCH   3  17
HETATM   17  N2  UNL     1      21.183  -0.039  51.467  1.00  0.00    -0.360 N 
HETATM   18  H10 UNL     1      21.081  -0.776  50.742  1.00  0.00     0.166 HD
BRANCH  17  19
HETATM   19  C13 UNL     1      21.630   1.272  51.064  1.00  0.00     0.011 C 
HETATM   20  C14 UNL     1      21.439   2.433  51.976  1.00  0.00     0.068 C 
HETATM   21  C15 UNL     1      22.208   1.542  49.915  1.00  0.00     0.098 C 
BRANCH  21  22
HETATM   22  C16 UNL     1      22.693   2.824  49.421  1.00  0.00     0.243 C 
HETATM   23  O2  UNL     1      21.947   3.624  48.806  1.00  0.00    -0.269 OA
HETATM   24  N3  UNL     1      24.049   3.161  49.649  1.00  0.00    -0.356 N 
HETATM   25  H15 UNL     1      24.667   2.482  50.164  1.00  0.00     0.162 HD
BRANCH  24  26
HETATM   26  C17 UNL     1      24.652   4.389  49.220  1.00  0.00     0.153 C 
BRANCH  26  27
HETATM   27  C18 UNL     1      24.983   5.296  50.380  1.00  0.00     0.292 C 
BRANCH  27  28
HETATM   28  N4  UNL     1      24.068   6.418  50.329  1.00  0.00     0.090 N 
HETATM   29  C19 UNL     1      22.849   6.185  51.091  1.00  0.00     0.272 C 
HETATM   30  C20 UNL     1      22.012   7.392  50.642  1.00  0.00     0.032 C 
HETATM   31  C21 UNL     1      22.271   7.371  49.149  1.00  0.00     0.032 C 
HETATM   32  C22 UNL     1      23.626   6.686  48.972  1.00  0.00     0.272 C 
ENDBRANCH  27  28
ENDBRANCH  26  27
ENDBRANCH  24  26
ENDBRANCH  21  22
ENDBRANCH  17  19
ENDBRANCH   3  17
TORSDOF 7
ENDMDL
MODEL 7
REMARK VINA RESULT:      -7.8      2.138      4.597
REMARK  7 active torsions:
REMARK  status: ('A' for Active; 'I' for Inactive)
REMARK    1  A    between atoms: C3_3  and  C4_4 
REMARK    2  A    between atoms: C3_3  and  N2_16 
REMARK    3  A    between atoms: N2_16  and  C13_17 
REMARK    4  A    between atoms: C15_19  and  C16_20 
REMARK       I    between atoms: C16_20  and  N3_22 
REMARK    5  A    between atoms: N3_22  and  C17_23 
REMARK    6  A    between atoms: C17_23  and  C18_24 
REMARK    7  A    between atoms: C18_24  and  N4_25 
ROOT
HETATM    1  C1  UNL     1      19.944  -1.275  53.744  1.00  0.00     0.038 C 
HETATM    2  C2  UNL     1      21.393  -1.526  53.614  1.00  0.00    -0.002 C 
HETATM    3  C3  UNL     1      22.517  -0.907  53.652  1.00  0.00     0.029 C 
ENDROOT
BRANCH   3   4
HETATM    4  C4  UNL     1      23.809  -0.343  53.671  1.00  0.00     0.047 C 
HETATM    5  C5  UNL     1      24.981  -0.088  54.133  1.00  0.00     0.047 A 
HETATM    6  C6  UNL     1      25.649  -0.493  55.333  1.00  0.00     0.257 A 
HETATM    7  C12 UNL     1      25.815   0.786  53.326  1.00  0.00     0.009 A 
HETATM    8  O1  UNL     1      25.300  -1.218  56.268  1.00  0.00    -0.267 OA
HETATM    9  N1  UNL     1      26.912   0.130  55.283  1.00  0.00    -0.322 N 
HETATM   10  C7  UNL     1      26.951   0.870  54.079  1.00  0.00     0.046 A 
HETATM   11  H6  UNL     1      27.668   0.055  56.004  1.00  0.00     0.169 HD
HETATM   12  C8  UNL     1      27.995   1.663  53.578  1.00  0.00     0.033 A 
HETATM   13  C9  UNL     1      27.950   2.368  52.371  1.00  0.00     0.044 A 
HETATM   14  C10 UNL     1      26.785   2.252  51.647  1.00  0.00     0.117 A 
HETATM   15  F1  UNL     1      26.689   2.914  50.469  1.00  0.00    -0.206 F 
HETATM   16  C11 UNL     1      25.744   1.482  52.113  1.00  0.00     0.057 A 
ENDBRANCH   3   4
BRANCH   3  17
HETATM   17  N2  UNL     1      21.898   0.393  53.834  1.00  0.00    -0.360 N 
HETATM   18  H10 UNL     1      21.405   0.765  54.670  1.00  0.00     0.166 HD
BRANCH  17  19
HETATM   19  C13 UNL     1      22.001   1.228  52.663  1.00  0.00     0.011 C 
HETATM   20  C14 UNL     1      21.698   0.660  51.319  1.00  0.00     0.068 C 
HETATM   21  C15 UNL     1      22.356   2.493  52.676  1.00  0.00     0.098 C 
BRANCH  21  22
HETATM   22  C16 UNL     1      22.486   3.413  51.554  1.00  0.00     0.243 C 
HETATM   23  O2  UNL     1      23.435   3.335  50.737  1.00  0.00    -0.269 OA
HETATM   24  N3  UNL     1      21.503   4.420  51.395  1.00  0.00    -0.356 N 
HETATM   25  H15 UNL     1      20.712   4.479  52.087  1.00  0.00     0.162 HD
BRANCH  24  26
HETATM   26  C17 UNL     1      21.510   5.386  50.335  1.00  0.00     0.153 C 
BRANCH  26  27
HETATM   27  C18 UNL     1      22.015   6.731  50.795  1.00  0.00     0.292 C 
BRANCH  27  28
HETATM   28  N4  UNL     1      23.271   6.979  50.115  1.00  0.00     0.090 N 
HETATM   29  C19 UNL     1      23.429   6.171  48.914  1.00  0.00     0.272 C 
HETATM   30  C20 UNL     1      24.902   6.458  48.585  1.00  0.00     0.032 C 
HETATM   31  C21 UNL     1      25.525   6.329  49.960  1.00  0.00     0.032 C 
HETATM   32  C22 UNL     1      24.408   6.645  50.954  1.00  0.00     0.272 C 
ENDBRANCH  27  28
ENDBRANCH  26  27
ENDBRANCH  24  26
ENDBRANCH  21  22
ENDBRANCH  17  19
ENDBRANCH   3  17
TORSDOF 7
ENDMDL
MODEL 8
REMARK VINA RESULT:      -7.7      2.095      2.823
REMARK  7 active torsions:
REMARK  status: ('A' for Active; 'I' for Inactive)
REMARK    1  A    between atoms: C3_3  and  C4_4 
REMARK    2  A    between atoms: C3_3  and  N2_16 
REMARK    3  A    between atoms: N2_16  and  C13_17 
REMARK    4  A    between atoms: C15_19  and  C16_20 
REMARK       I    between atoms: C16_20  and  N3_22 
REMARK    5  A    between atoms: N3_22  and  C17_23 
REMARK    6  A    between atoms: C17_23  and  C18_24 
REMARK    7  A    between atoms: C18_24  and  N4_25 
ROOT
HETATM    1  C1  UNL     1      27.723   0.376  52.913  1.00  0.00     0.038 C 
HETATM    2  C2  UNL     1      26.473  -0.019  53.591  1.00  0.00    -0.002 C 
HETATM    3  C3  UNL     1      25.206  -0.062  53.395  1.00  0.00     0.029 C 
ENDROOT
BRANCH   3   4
HETATM    4  C4  UNL     1      23.802  -0.160  53.299  1.00  0.00     0.047 C 
HETATM    5  C5  UNL     1      22.614  -0.492  53.655  1.00  0.00     0.047 A 
HETATM    6  C6  UNL     1      22.115  -1.194  54.800  1.00  0.00     0.257 A 
HETATM    7  C12 UNL     1      21.541  -0.122  52.747  1.00  0.00     0.009 A 
HETATM    8  O1  UNL     1      22.680  -1.671  55.786  1.00  0.00    -0.267 OA
HETATM    9  N1  UNL     1      20.720  -1.268  54.612  1.00  0.00    -0.322 N 
HETATM   10  C7  UNL     1      20.442  -0.620  53.387  1.00  0.00     0.046 A 
HETATM   11  H6  UNL     1      20.032  -1.718  55.260  1.00  0.00     0.169 HD
HETATM   12  C8  UNL     1      19.199  -0.433  52.764  1.00  0.00     0.033 A 
HETATM   13  C9  UNL     1      19.011   0.222  51.542  1.00  0.00     0.044 A 
HETATM   14  C10 UNL     1      20.148   0.706  50.936  1.00  0.00     0.117 A 
HETATM   15  F1  UNL     1      20.023   1.350  49.750  1.00  0.00    -0.206 F 
HETATM   16  C11 UNL     1      21.382   0.538  51.523  1.00  0.00     0.057 A 
ENDBRANCH   3   4
BRANCH   3  17
HETATM   17  N2  UNL     1      25.296   0.560  52.086  1.00  0.00    -0.360 N 
HETATM   18  H10 UNL     1      25.657   0.155  51.199  1.00  0.00     0.166 HD
BRANCH  17  19
HETATM   19  C13 UNL     1      24.820   1.921  52.082  1.00  0.00     0.011 C 
HETATM   20  C14 UNL     1      24.817   2.708  53.347  1.00  0.00     0.068 C 
HETATM   21  C15 UNL     1      24.367   2.551  51.022  1.00  0.00     0.098 C 
BRANCH  21  22
HETATM   22  C16 UNL     1      23.871   3.916  50.918  1.00  0.00     0.243 C 
HETATM   23  O2  UNL     1      24.628   4.880  50.648  1.00  0.00    -0.269 OA
HETATM   24  N3  UNL     1      22.490   4.146  51.133  1.00  0.00    -0.356 N 
HETATM   25  H15 UNL     1      21.863   3.332  51.362  1.00  0.00     0.162 HD
BRANCH  24  26
HETATM   26  C17 UNL     1      21.872   5.438  51.059  1.00  0.00     0.153 C 
BRANCH  26  27
HETATM   27  C18 UNL     1      20.611   5.418  50.231  1.00  0.00     0.292 C 
BRANCH  27  28
HETATM   28  N4  UNL     1      21.000   5.564  48.843  1.00  0.00     0.090 N 
HETATM   29  C19 UNL     1      22.076   6.529  48.659  1.00  0.00     0.272 C 
HETATM   30  C20 UNL     1      22.078   6.646  47.127  1.00  0.00     0.032 C 
HETATM   31  C21 UNL     1      20.591   6.748  46.853  1.00  0.00     0.032 C 
HETATM   32  C22 UNL     1      19.903   6.053  48.028  1.00  0.00     0.272 C 
ENDBRANCH  27  28
ENDBRANCH  26  27
ENDBRANCH  24  26
ENDBRANCH  21  22
ENDBRANCH  17  19
ENDBRANCH   3  17
TORSDOF 7
ENDMDL
MODEL 9
REMARK VINA RESULT:      -7.6      2.730      6.314
REMARK  7 active torsions:
REMARK  status: ('A' for Active; 'I' for Inactive)
REMARK    1  A    between atoms: C3_3  and  C4_4 
REMARK    2  A    between atoms: C3_3  and  N2_16 
REMARK    3  A    between atoms: N2_16  and  C13_17 
REMARK    4  A    between atoms: C15_19  and  C16_20 
REMARK       I    between atoms: C16_20  and  N3_22 
REMARK    5  A    between atoms: N3_22  and  C17_23 
REMARK    6  A    between atoms: C17_23  and  C18_24 
REMARK    7  A    between atoms: C18_24  and  N4_25 
ROOT
HETATM    1  C1  UNL     1      26.927   6.137  48.547  1.00  0.00     0.038 C 
HETATM    2  C2  UNL     1      26.979   4.728  48.986  1.00  0.00    -0.002 C 
HETATM    3  C3  UNL     1      26.463   3.939  49.856  1.00  0.00     0.029 C 
ENDROOT
BRANCH   3   4
HETATM    4  C4  UNL     1      25.970   2.975  50.760  1.00  0.00     0.047 C 
HETATM    5  C5  UNL     1      26.011   2.138  51.733  1.00  0.00     0.047 A 
HETATM    6  C6  UNL     1      27.068   1.740  52.614  1.00  0.00     0.257 A 
HETATM    7  C12 UNL     1      24.779   1.421  52.019  1.00  0.00     0.009 A 
HETATM    8  O1  UNL     1      28.244   2.098  52.707  1.00  0.00    -0.267 OA
HETATM    9  N1  UNL     1      26.500   0.767  53.461  1.00  0.00    -0.322 N 
HETATM   10  C7  UNL     1      25.151   0.621  53.062  1.00  0.00     0.046 A 
HETATM   11  H6  UNL     1      26.990   0.256  54.232  1.00  0.00     0.169 HD
HETATM   12  C8  UNL     1      24.172  -0.229  53.599  1.00  0.00     0.033 A 
HETATM   13  C9  UNL     1      22.853  -0.312  53.140  1.00  0.00     0.044 A 
HETATM   14  C10 UNL     1      22.526   0.513  52.088  1.00  0.00     0.117 A 
HETATM   15  F1  UNL     1      21.260   0.472  51.605  1.00  0.00    -0.206 F 
HETATM   16  C11 UNL     1      23.466   1.358  51.541  1.00  0.00     0.057 A 
ENDBRANCH   3   4
BRANCH   3  17
HETATM   17  N2  UNL     1      25.690   4.992  50.489  1.00  0.00    -0.360 N 
HETATM   18  H10 UNL     1      26.024   5.761  51.104  1.00  0.00     0.166 HD
BRANCH  17  19
HETATM   19  C13 UNL     1      24.280   4.898  50.202  1.00  0.00     0.011 C 
HETATM   20  C14 UNL     1      23.827   4.436  48.860  1.00  0.00     0.068 C 
HETATM   21  C15 UNL     1      23.323   5.202  51.049  1.00  0.00     0.098 C 
BRANCH  21  22
HETATM   22  C16 UNL     1      21.882   5.138  50.854  1.00  0.00     0.243 C 
HETATM   23  O2  UNL     1      21.185   6.171  50.703  1.00  0.00    -0.269 OA
HETATM   24  N3  UNL     1      21.263   3.864  50.837  1.00  0.00    -0.356 N 
HETATM   25  H15 UNL     1      21.855   3.004  50.967  1.00  0.00     0.162 HD
BRANCH  24  26
HETATM   26  C17 UNL     1      19.855   3.660  50.651  1.00  0.00     0.153 C 
BRANCH  26  27
HETATM   27  C18 UNL     1      19.172   3.221  51.923  1.00  0.00     0.292 C 
BRANCH  27  28
HETATM   28  N4  UNL     1      17.805   2.877  51.585  1.00  0.00     0.090 N 
HETATM   29  C19 UNL     1      17.639   2.554  50.174  1.00  0.00     0.272 C 
HETATM   30  C20 UNL     1      16.106   2.494  50.087  1.00  0.00     0.032 C 
HETATM   31  C21 UNL     1      15.734   3.735  50.874  1.00  0.00     0.032 C 
HETATM   32  C22 UNL     1      16.898   3.983  51.833  1.00  0.00     0.272 C 
ENDBRANCH  27  28
ENDBRANCH  26  27
ENDBRANCH  24  26
ENDBRANCH  21  22
ENDBRANCH  17  19
ENDBRANCH   3  17
TORSDOF 7
ENDMDL
