MODEL 1
REMARK VINA RESULT:      -6.7      0.000      0.000
REMARK  5 active torsions:
REMARK  status: ('A' for Active; 'I' for Inactive)
REMARK    1  A    between atoms: C2_2  and  C3_3 
REMARK    2  A    between atoms: C2_2  and  C6_7 
REMARK    3  A    between atoms: C3_3  and  C4_4 
REMARK    4  A    between atoms: C9_12  and  N3_13 
REMARK    5  A    between atoms: C14_19  and  N4_20 
ROOT
HETATM    1  C6  UNL     1      24.740   1.320  52.432  1.00  0.00     0.030 A 
HETATM    2  C7  UNL     1      23.913   0.388  53.009  1.00  0.00     0.133 A 
HETATM    3  N1  UNL     1      22.724   0.270  52.424  1.00  0.00    -0.253 NA
HETATM    4  C8  UNL     1      22.360   0.996  51.359  1.00  0.00     0.234 A 
HETATM    5  N2  UNL     1      23.202   1.898  50.827  1.00  0.00    -0.223 NA
HETATM    6  C9  UNL     1      24.447   2.091  51.362  1.00  0.00     0.144 A 
ENDROOT
BRANCH   6   7
HETATM    7  N3  UNL     1      25.117   3.106  50.644  1.00  0.00    -0.313 N 
HETATM    8  C10 UNL     1      26.232   3.046  49.717  1.00  0.00     0.160 A 
HETATM    9  C11 UNL     1      26.581   4.369  49.195  1.00  0.00    -0.005 A 
HETATM   10  C12 UNL     1      26.049   5.544  49.447  1.00  0.00     0.020 A 
HETATM   11  C13 UNL     1      24.931   5.535  50.396  1.00  0.00     0.054 A 
HETATM   12 BR1  UNL     1      24.155   7.235  50.768  1.00  0.00    -0.047 Br
HETATM   13  C14 UNL     1      24.512   4.382  50.944  1.00  0.00     0.120 A 
BRANCH  13  14
HETATM   14  N4  UNL     1      23.412   4.604  51.841  1.00  0.00    -0.384 N 
HETATM   15  H15 UNL     1      22.457   4.936  51.671  1.00  0.00     0.157 HD
HETATM   16  H16 UNL     1      23.513   4.418  52.881  1.00  0.00     0.157 HD
ENDBRANCH  13  14
ENDBRANCH   6   7
BRANCH   1  17
HETATM   17  C2  UNL     1      26.079   1.544  52.946  1.00  0.00    -0.063 C 
HETATM   18  C1  UNL     1      26.947   2.153  53.689  1.00  0.00     0.039 C 
BRANCH  17  19
HETATM   19  C3  UNL     1      27.166   0.702  52.456  1.00  0.00     0.055 C 
BRANCH  19  20
HETATM   20  C4  UNL     1      27.512  -0.495  53.256  1.00  0.00     0.082 C 
HETATM   21  C5  UNL     1      28.962  -0.798  53.412  1.00  0.00     0.027 C 
HETATM   22 CL1  UNL     1      26.715  -1.887  52.441  1.00  0.00    -0.125 Cl
ENDBRANCH  19  20
ENDBRANCH  17  19
ENDBRANCH   1  17
TORSDOF 5
ENDMDL
MODEL 2
REMARK VINA RESULT:      -6.6      2.626      3.486
REMARK  5 active torsions:
REMARK  status: ('A' for Active; 'I' for Inactive)
REMARK    1  A    between atoms: C2_2  and  C3_3 
REMARK    2  A    between atoms: C2_2  and  C6_7 
REMARK    3  A    between atoms: C3_3  and  C4_4 
REMARK    4  A    between atoms: C9_12  and  N3_13 
REMARK    5  A    between atoms: C14_19  and  N4_20 
ROOT
HETATM    1  C6  UNL     1      23.645  -0.403  53.985  1.00  0.00     0.030 A 
HETATM    2  C7  UNL     1      23.159  -1.283  54.921  1.00  0.00     0.133 A 
HETATM    3  N1  UNL     1      21.869  -1.124  55.208  1.00  0.00    -0.253 NA
HETATM    4  C8  UNL     1      21.104  -0.187  54.633  1.00  0.00     0.234 A 
HETATM    5  N2  UNL     1      21.622   0.654  53.722  1.00  0.00    -0.223 NA
HETATM    6  C9  UNL     1      22.940   0.568  53.363  1.00  0.00     0.144 A 
ENDROOT
BRANCH   6   7
HETATM    7  N3  UNL     1      23.238   1.576  52.420  1.00  0.00    -0.313 N 
HETATM    8  C10 UNL     1      24.055   2.771  52.524  1.00  0.00     0.160 A 
HETATM    9  C11 UNL     1      24.092   3.520  51.266  1.00  0.00    -0.005 A 
HETATM   10  C12 UNL     1      23.508   3.268  50.115  1.00  0.00     0.020 A 
HETATM   11  C13 UNL     1      22.693   2.049  50.080  1.00  0.00     0.054 A 
HETATM   12 BR1  UNL     1      21.842   1.678  48.417  1.00  0.00    -0.047 Br
HETATM   13  C14 UNL     1      22.582   1.273  51.172  1.00  0.00     0.120 A 
BRANCH  13  14
HETATM   14  N4  UNL     1      21.740   0.137  50.915  1.00  0.00    -0.384 N 
HETATM   15  H15 UNL     1      20.905   0.031  50.330  1.00  0.00     0.157 HD
HETATM   16  H16 UNL     1      21.942  -0.801  51.369  1.00  0.00     0.157 HD
ENDBRANCH  13  14
ENDBRANCH   6   7
BRANCH   1  17
HETATM   17  C2  UNL     1      25.028  -0.468  53.552  1.00  0.00    -0.063 C 
HETATM   18  C1  UNL     1      25.963  -0.753  52.702  1.00  0.00     0.039 C 
BRANCH  17  19
HETATM   19  C3  UNL     1      26.068   0.014  54.456  1.00  0.00     0.055 C 
BRANCH  19  20
HETATM   20  C4  UNL     1      27.374   0.374  53.858  1.00  0.00     0.082 C 
HETATM   21  C5  UNL     1      28.590   0.001  54.634  1.00  0.00     0.027 C 
HETATM   22 CL1  UNL     1      27.350   2.161  53.648  1.00  0.00    -0.125 Cl
ENDBRANCH  19  20
ENDBRANCH  17  19
ENDBRANCH   1  17
TORSDOF 5
ENDMDL
MODEL 3
REMARK VINA RESULT:      -6.4      2.633      4.294
REMARK  5 active torsions:
REMARK  status: ('A' for Active; 'I' for Inactive)
REMARK    1  A    between atoms: C2_2  and  C3_3 
REMARK    2  A    between atoms: C2_2  and  C6_7 
REMARK    3  A    between atoms: C3_3  and  C4_4 
REMARK    4  A    between atoms: C9_12  and  N3_13 
REMARK    5  A    between atoms: C14_19  and  N4_20 
ROOT
HETATM    1  C6  UNL     1      24.149   0.788  52.806  1.00  0.00     0.030 A 
HETATM    2  C7  UNL     1      24.526  -0.313  53.533  1.00  0.00     0.133 A 
HETATM    3  N1  UNL     1      25.606  -0.130  54.290  1.00  0.00    -0.253 NA
HETATM    4  C8  UNL     1      26.271   1.032  54.341  1.00  0.00     0.234 A 
HETATM    5  N2  UNL     1      25.865   2.085  53.611  1.00  0.00    -0.223 NA
HETATM    6  C9  UNL     1      24.766   1.991  52.802  1.00  0.00     0.144 A 
ENDROOT
BRANCH   6   7
HETATM    7  N3  UNL     1      24.572   3.215  52.125  1.00  0.00    -0.313 N 
HETATM    8  C10 UNL     1      23.587   4.264  52.309  1.00  0.00     0.160 A 
HETATM    9  C11 UNL     1      23.788   5.374  51.375  1.00  0.00    -0.005 A 
HETATM   10  C12 UNL     1      24.693   5.534  50.436  1.00  0.00     0.020 A 
HETATM   11  C13 UNL     1      25.654   4.435  50.298  1.00  0.00     0.054 A 
HETATM   12 BR1  UNL     1      26.969   4.658  48.937  1.00  0.00    -0.047 Br
HETATM   13  C14 UNL     1      25.578   3.359  51.100  1.00  0.00     0.120 A 
BRANCH  13  14
HETATM   14  N4  UNL     1      26.611   2.410  50.793  1.00  0.00    -0.384 N 
HETATM   15  H15 UNL     1      27.599   2.372  51.065  1.00  0.00     0.157 HD
HETATM   16  H16 UNL     1      26.408   1.565  50.183  1.00  0.00     0.157 HD
ENDBRANCH  13  14
ENDBRANCH   6   7
BRANCH   1  17
HETATM   17  C2  UNL     1      22.976   0.748  51.952  1.00  0.00    -0.063 C 
HETATM   18  C1  UNL     1      22.290   1.097  50.911  1.00  0.00     0.039 C 
BRANCH  17  19
HETATM   19  C3  UNL     1      21.861  -0.113  52.334  1.00  0.00     0.055 C 
BRANCH  19  20
HETATM   20  C4  UNL     1      20.855   0.451  53.263  1.00  0.00     0.082 C 
HETATM   21  C5  UNL     1      20.943   0.020  54.686  1.00  0.00     0.027 C 
HETATM   22 CL1  UNL     1      19.249  -0.035  52.612  1.00  0.00    -0.125 Cl
ENDBRANCH  19  20
ENDBRANCH  17  19
ENDBRANCH   1  17
TORSDOF 5
ENDMDL
MODEL 4
REMARK VINA RESULT:      -6.0      2.588      4.051
REMARK  5 active torsions:
REMARK  status: ('A' for Active; 'I' for Inactive)
REMARK    1  A    between atoms: C2_2  and  C3_3 
REMARK    2  A    between atoms: C2_2  and  C6_7 
REMARK    3  A    between atoms: C3_3  and  C4_4 
REMARK    4  A    between atoms: C9_12  and  N3_13 
REMARK    5  A    between atoms: C14_19  and  N4_20 
ROOT
HETATM    1  C6  UNL     1      23.658   1.153  52.396  1.00  0.00     0.030 A 
HETATM    2  C7  UNL     1      24.350   0.319  53.239  1.00  0.00     0.133 A 
HETATM    3  N1  UNL     1      25.670   0.329  53.063  1.00  0.00    -0.253 NA
HETATM    4  C8  UNL     1      26.276   1.091  52.143  1.00  0.00     0.234 A 
HETATM    5  N2  UNL     1      25.558   1.892  51.338  1.00  0.00    -0.223 NA
HETATM    6  C9  UNL     1      24.196   1.947  51.444  1.00  0.00     0.144 A 
ENDROOT
BRANCH   6   7
HETATM    7  N3  UNL     1      23.682   2.834  50.472  1.00  0.00    -0.313 N 
HETATM    8  C10 UNL     1      23.080   2.586  49.174  1.00  0.00     0.160 A 
HETATM    9  C11 UNL     1      22.672   3.829  48.515  1.00  0.00    -0.005 A 
HETATM   10  C12 UNL     1      22.779   5.075  48.920  1.00  0.00     0.020 A 
HETATM   11  C13 UNL     1      23.401   5.255  50.235  1.00  0.00     0.054 A 
HETATM   12 BR1  UNL     1      23.561   7.058  50.829  1.00  0.00    -0.047 Br
HETATM   13  C14 UNL     1      23.816   4.191  50.943  1.00  0.00     0.120 A 
BRANCH  13  14
HETATM   14  N4  UNL     1      24.393   4.595  52.195  1.00  0.00    -0.384 N 
HETATM   15  H15 UNL     1      24.734   5.505  52.522  1.00  0.00     0.157 HD
HETATM   16  H16 UNL     1      24.530   3.895  52.981  1.00  0.00     0.157 HD
ENDBRANCH  13  14
ENDBRANCH   6   7
BRANCH   1  17
HETATM   17  C2  UNL     1      22.214   1.267  52.485  1.00  0.00    -0.063 C 
HETATM   18  C1  UNL     1      21.110   1.935  52.591  1.00  0.00     0.039 C 
BRANCH  17  19
HETATM   19  C3  UNL     1      21.413   0.048  52.446  1.00  0.00     0.055 C 
BRANCH  19  20
HETATM   20  C4  UNL     1      20.704  -0.338  53.689  1.00  0.00     0.082 C 
HETATM   21  C5  UNL     1      21.297  -1.455  54.476  1.00  0.00     0.027 C 
HETATM   22 CL1  UNL     1      19.040  -0.805  53.188  1.00  0.00    -0.125 Cl
ENDBRANCH  19  20
ENDBRANCH  17  19
ENDBRANCH   1  17
TORSDOF 5
ENDMDL
MODEL 5
REMARK VINA RESULT:      -5.9      2.902      4.717
REMARK  5 active torsions:
REMARK  status: ('A' for Active; 'I' for Inactive)
REMARK    1  A    between atoms: C2_2  and  C3_3 
REMARK    2  A    between atoms: C2_2  and  C6_7 
REMARK    3  A    between atoms: C3_3  and  C4_4 
REMARK    4  A    between atoms: C9_12  and  N3_13 
REMARK    5  A    between atoms: C14_19  and  N4_20 
ROOT
HETATM    1  C6  UNL     1      22.645   0.809  52.624  1.00  0.00     0.030 A 
HETATM    2  C7  UNL     1      23.002  -0.133  53.557  1.00  0.00     0.133 A 
HETATM    3  N1  UNL     1      24.307  -0.383  53.616  1.00  0.00    -0.253 NA
HETATM    4  C8  UNL     1      25.203   0.233  52.834  1.00  0.00     0.234 A 
HETATM    5  N2  UNL     1      24.809   1.149  51.933  1.00  0.00    -0.223 NA
HETATM    6  C9  UNL     1      23.486   1.471  51.799  1.00  0.00     0.144 A 
ENDROOT
BRANCH   6   7
HETATM    7  N3  UNL     1      23.336   2.429  50.772  1.00  0.00    -0.313 N 
HETATM    8  C10 UNL     1      22.865   2.299  49.405  1.00  0.00     0.160 A 
HETATM    9  C11 UNL     1      22.862   3.585  48.704  1.00  0.00    -0.005 A 
HETATM   10  C12 UNL     1      23.216   4.779  49.126  1.00  0.00     0.020 A 
HETATM   11  C13 UNL     1      23.687   4.838  50.513  1.00  0.00     0.054 A 
HETATM   12 BR1  UNL     1      24.204   6.565  51.132  1.00  0.00    -0.047 Br
HETATM   13  C14 UNL     1      23.735   3.725  51.264  1.00  0.00     0.120 A 
BRANCH  13  14
HETATM   14  N4  UNL     1      24.225   4.012  52.584  1.00  0.00    -0.384 N 
HETATM   15  H15 UNL     1      24.448   3.395  53.372  1.00  0.00     0.157 HD
HETATM   16  H16 UNL     1      24.421   5.010  52.886  1.00  0.00     0.157 HD
ENDBRANCH  13  14
ENDBRANCH   6   7
BRANCH   1  17
HETATM   17  C2  UNL     1      21.258   1.204  52.460  1.00  0.00    -0.063 C 
HETATM   18  C1  UNL     1      20.258   2.011  52.620  1.00  0.00     0.039 C 
BRANCH  17  19
HETATM   19  C3  UNL     1      20.358   0.312  51.736  1.00  0.00     0.055 C 
BRANCH  19  20
HETATM   20  C4  UNL     1      19.024   0.066  52.330  1.00  0.00     0.082 C 
HETATM   21  C5  UNL     1      18.912  -1.087  53.266  1.00  0.00     0.027 C 
HETATM   22 CL1  UNL     1      17.905  -0.203  50.947  1.00  0.00    -0.125 Cl
ENDBRANCH  19  20
ENDBRANCH  17  19
ENDBRANCH   1  17
TORSDOF 5
ENDMDL
MODEL 6
REMARK VINA RESULT:      -5.9      1.884      2.246
REMARK  5 active torsions:
REMARK  status: ('A' for Active; 'I' for Inactive)
REMARK    1  A    between atoms: C2_2  and  C3_3 
REMARK    2  A    between atoms: C2_2  and  C6_7 
REMARK    3  A    between atoms: C3_3  and  C4_4 
REMARK    4  A    between atoms: C9_12  and  N3_13 
REMARK    5  A    between atoms: C14_19  and  N4_20 
ROOT
HETATM    1  C6  UNL     1      23.007   2.838  51.985  1.00  0.00     0.030 A 
HETATM    2  C7  UNL     1      21.777   2.433  52.442  1.00  0.00     0.133 A 
HETATM    3  N1  UNL     1      20.749   2.874  51.720  1.00  0.00    -0.253 NA
HETATM    4  C8  UNL     1      20.898   3.645  50.635  1.00  0.00     0.234 A 
HETATM    5  N2  UNL     1      22.122   4.017  50.223  1.00  0.00    -0.223 NA
HETATM    6  C9  UNL     1      23.238   3.615  50.903  1.00  0.00     0.144 A 
ENDROOT
BRANCH   6   7
HETATM    7  N3  UNL     1      24.387   4.162  50.290  1.00  0.00    -0.313 N 
HETATM    8  C10 UNL     1      25.438   3.543  49.504  1.00  0.00     0.160 A 
HETATM    9  C11 UNL     1      26.430   4.521  49.051  1.00  0.00    -0.005 A 
HETATM   10  C12 UNL     1      26.494   5.817  49.257  1.00  0.00     0.020 A 
HETATM   11  C13 UNL     1      25.405   6.377  50.063  1.00  0.00     0.054 A 
HETATM   12 BR1  UNL     1      25.492   8.256  50.368  1.00  0.00    -0.047 Br
HETATM   13  C14 UNL     1      24.430   5.583  50.536  1.00  0.00     0.120 A 
BRANCH  13  14
HETATM   14  N4  UNL     1      23.472   6.336  51.297  1.00  0.00    -0.384 N 
HETATM   15  H15 UNL     1      22.473   6.510  51.146  1.00  0.00     0.157 HD
HETATM   16  H16 UNL     1      23.759   6.836  52.189  1.00  0.00     0.157 HD
ENDBRANCH  13  14
ENDBRANCH   6   7
BRANCH   1  17
HETATM   17  C2  UNL     1      24.223   2.417  52.655  1.00  0.00    -0.063 C 
HETATM   18  C1  UNL     1      25.194   2.574  53.498  1.00  0.00     0.039 C 
BRANCH  17  19
HETATM   19  C3  UNL     1      24.810   1.130  52.297  1.00  0.00     0.055 C 
BRANCH  19  20
HETATM   20  C4  UNL     1      24.974   0.134  53.381  1.00  0.00     0.082 C 
HETATM   21  C5  UNL     1      25.980  -0.941  53.153  1.00  0.00     0.027 C 
HETATM   22 CL1  UNL     1      23.359  -0.626  53.607  1.00  0.00    -0.125 Cl
ENDBRANCH  19  20
ENDBRANCH  17  19
ENDBRANCH   1  17
TORSDOF 5
ENDMDL
MODEL 7
REMARK VINA RESULT:      -5.7      3.243      5.790
REMARK  5 active torsions:
REMARK  status: ('A' for Active; 'I' for Inactive)
REMARK    1  A    between atoms: C2_2  and  C3_3 
REMARK    2  A    between atoms: C2_2  and  C6_7 
REMARK    3  A    between atoms: C3_3  and  C4_4 
REMARK    4  A    between atoms: C9_12  and  N3_13 
REMARK    5  A    between atoms: C14_19  and  N4_20 
ROOT
HETATM    1  C6  UNL     1      24.897   4.271  50.960  1.00  0.00     0.030 A 
HETATM    2  C7  UNL     1      25.202   5.264  50.061  1.00  0.00     0.133 A 
HETATM    3  N1  UNL     1      26.172   4.953  49.205  1.00  0.00    -0.253 NA
HETATM    4  C8  UNL     1      26.801   3.770  49.215  1.00  0.00     0.234 A 
HETATM    5  N2  UNL     1      26.470   2.827  50.114  1.00  0.00    -0.223 NA
HETATM    6  C9  UNL     1      25.485   3.057  51.035  1.00  0.00     0.144 A 
ENDROOT
BRANCH   6   7
HETATM    7  N3  UNL     1      25.354   1.930  51.876  1.00  0.00    -0.313 N 
HETATM    8  C10 UNL     1      24.277   0.968  52.024  1.00  0.00     0.160 A 
HETATM    9  C11 UNL     1      24.595  -0.059  53.020  1.00  0.00    -0.005 A 
HETATM   10  C12 UNL     1      25.668  -0.213  53.762  1.00  0.00     0.020 A 
HETATM   11  C13 UNL     1      26.714   0.797  53.567  1.00  0.00     0.054 A 
HETATM   12 BR1  UNL     1      28.273   0.582  54.642  1.00  0.00    -0.047 Br
HETATM   13  C14 UNL     1      26.544   1.790  52.679  1.00  0.00     0.120 A 
BRANCH  13  14
HETATM   14  N4  UNL     1      27.687   2.661  52.651  1.00  0.00    -0.384 N 
HETATM   15  H15 UNL     1      28.367   2.862  51.911  1.00  0.00     0.157 HD
HETATM   16  H16 UNL     1      27.950   3.239  53.502  1.00  0.00     0.157 HD
ENDBRANCH  13  14
ENDBRANCH   6   7
BRANCH   1  17
HETATM   17  C2  UNL     1      23.843   4.455  51.940  1.00  0.00    -0.063 C 
HETATM   18  C1  UNL     1      23.395   4.576  53.150  1.00  0.00     0.039 C 
BRANCH  17  19
HETATM   19  C3  UNL     1      22.468   4.600  51.471  1.00  0.00     0.055 C 
BRANCH  19  20
HETATM   20  C4  UNL     1      21.665   3.364  51.331  1.00  0.00     0.082 C 
HETATM   21  C5  UNL     1      21.665   2.716  49.989  1.00  0.00     0.027 C 
HETATM   22 CL1  UNL     1      19.975   3.817  51.752  1.00  0.00    -0.125 Cl
ENDBRANCH  19  20
ENDBRANCH  17  19
ENDBRANCH   1  17
TORSDOF 5
ENDMDL
MODEL 8
REMARK VINA RESULT:      -5.6      6.981      9.281
REMARK  5 active torsions:
REMARK  status: ('A' for Active; 'I' for Inactive)
REMARK    1  A    between atoms: C2_2  and  C3_3 
REMARK    2  A    between atoms: C2_2  and  C6_7 
REMARK    3  A    between atoms: C3_3  and  C4_4 
REMARK    4  A    between atoms: C9_12  and  N3_13 
REMARK    5  A    between atoms: C14_19  and  N4_20 
ROOT
HETATM    1  C6  UNL     1      30.211   6.570  48.005  1.00  0.00     0.030 A 
HETATM    2  C7  UNL     1      30.458   5.221  47.961  1.00  0.00     0.133 A 
HETATM    3  N1  UNL     1      31.679   4.870  48.358  1.00  0.00    -0.253 NA
HETATM    4  C8  UNL     1      32.594   5.758  48.770  1.00  0.00     0.234 A 
HETATM    5  N2  UNL     1      32.309   7.071  48.797  1.00  0.00    -0.223 NA
HETATM    6  C9  UNL     1      31.080   7.526  48.405  1.00  0.00     0.144 A 
ENDROOT
BRANCH   6   7
HETATM    7  N3  UNL     1      31.047   8.935  48.497  1.00  0.00    -0.313 N 
HETATM    8  C10 UNL     1      30.488   9.815  49.508  1.00  0.00     0.160 A 
HETATM    9  C11 UNL     1      30.711  11.226  49.187  1.00  0.00    -0.005 A 
HETATM   10  C12 UNL     1      31.314  11.774  48.156  1.00  0.00     0.020 A 
HETATM   11  C13 UNL     1      31.850  10.830  47.170  1.00  0.00     0.054 A 
HETATM   12 BR1  UNL     1      32.724  11.616  45.671  1.00  0.00    -0.047 Br
HETATM   13  C14 UNL     1      31.712   9.505  47.351  1.00  0.00     0.120 A 
BRANCH  13  14
HETATM   14  N4  UNL     1      32.307   8.770  46.269  1.00  0.00    -0.384 N 
HETATM   15  H15 UNL     1      32.746   9.085  45.398  1.00  0.00     0.157 HD
HETATM   16  H16 UNL     1      32.344   7.710  46.289  1.00  0.00     0.157 HD
ENDBRANCH  13  14
ENDBRANCH   6   7
BRANCH   1  17
HETATM   17  C2  UNL     1      28.916   7.102  47.624  1.00  0.00    -0.063 C 
HETATM   18  C1  UNL     1      28.083   7.631  46.786  1.00  0.00     0.039 C 
BRANCH  17  19
HETATM   19  C3  UNL     1      27.849   7.125  48.620  1.00  0.00     0.055 C 
BRANCH  19  20
HETATM   20  C4  UNL     1      26.685   6.240  48.389  1.00  0.00     0.082 C 
HETATM   21  C5  UNL     1      25.432   6.579  49.120  1.00  0.00     0.027 C 
HETATM   22 CL1  UNL     1      27.209   4.590  48.879  1.00  0.00    -0.125 Cl
ENDBRANCH  19  20
ENDBRANCH  17  19
ENDBRANCH   1  17
TORSDOF 5
ENDMDL
MODEL 9
REMARK VINA RESULT:      -5.6      3.494      5.571
REMARK  5 active torsions:
REMARK  status: ('A' for Active; 'I' for Inactive)
REMARK    1  A    between atoms: C2_2  and  C3_3 
REMARK    2  A    between atoms: C2_2  and  C6_7 
REMARK    3  A    between atoms: C3_3  and  C4_4 
REMARK    4  A    between atoms: C9_12  and  N3_13 
REMARK    5  A    between atoms: C14_19  and  N4_20 
ROOT
HETATM    1  C6  UNL     1      24.321   2.485  52.901  1.00  0.00     0.030 A 
HETATM    2  C7  UNL     1      25.463   2.500  53.663  1.00  0.00     0.133 A 
HETATM    3  N1  UNL     1      25.980   1.297  53.903  1.00  0.00    -0.253 NA
HETATM    4  C8  UNL     1      25.436   0.164  53.439  1.00  0.00     0.234 A 
HETATM    5  N2  UNL     1      24.317   0.197  52.697  1.00  0.00    -0.223 NA
HETATM    6  C9  UNL     1      23.711   1.387  52.400  1.00  0.00     0.144 A 
ENDROOT
BRANCH   6   7
HETATM    7  N3  UNL     1      22.545   1.147  51.640  1.00  0.00    -0.313 N 
HETATM    8  C10 UNL     1      22.252   1.382  50.238  1.00  0.00     0.160 A 
HETATM    9  C11 UNL     1      20.897   0.952  49.884  1.00  0.00    -0.005 A 
HETATM   10  C12 UNL     1      19.959   0.415  50.630  1.00  0.00     0.020 A 
HETATM   11  C13 UNL     1      20.318   0.211  52.037  1.00  0.00     0.054 A 
HETATM   12 BR1  UNL     1      18.962  -0.566  53.127  1.00  0.00    -0.047 Br
HETATM   13  C14 UNL     1      21.535   0.561  52.487  1.00  0.00     0.120 A 
BRANCH  13  14
HETATM   14  N4  UNL     1      21.671   0.275  53.889  1.00  0.00    -0.384 N 
HETATM   15  H15 UNL     1      20.984  -0.022  54.589  1.00  0.00     0.157 HD
HETATM   16  H16 UNL     1      22.613   0.359  54.370  1.00  0.00     0.157 HD
ENDBRANCH  13  14
ENDBRANCH   6   7
BRANCH   1  17
HETATM   17  C2  UNL     1      23.655   3.722  52.536  1.00  0.00    -0.063 C 
HETATM   18  C1  UNL     1      22.666   4.558  52.570  1.00  0.00     0.039 C 
BRANCH  17  19
HETATM   19  C3  UNL     1      24.343   4.651  51.645  1.00  0.00     0.055 C 
BRANCH  19  20
HETATM   20  C4  UNL     1      24.127   4.481  50.190  1.00  0.00     0.082 C 
HETATM   21  C5  UNL     1      25.148   3.687  49.451  1.00  0.00     0.027 C 
HETATM   22 CL1  UNL     1      24.076   6.141  49.497  1.00  0.00    -0.125 Cl
ENDBRANCH  19  20
ENDBRANCH  17  19
ENDBRANCH   1  17
TORSDOF 5
ENDMDL
