MODEL 1
REMARK VINA RESULT:      -7.5      0.000      0.000
REMARK  7 active torsions:
REMARK  status: ('A' for Active; 'I' for Inactive)
REMARK    1  A    between atoms: C2_2  and  C3_3 
REMARK    2  A    between atoms: C4_4  and  C5_5 
REMARK    3  A    between atoms: C5_5  and  C6_6 
REMARK    4  A    between atoms: C6_6  and  N1_7 
REMARK    5  A    between atoms: C6_6  and  N2_8 
REMARK    6  A    between atoms: C9_11  and  N3_12 
REMARK    7  A    between atoms: N3_12  and  C10_13 
ROOT
HETATM    1  N2  UNL     1      26.192  -0.412  54.787  1.00  0.00    -0.238 NA
HETATM    2  C7  UNL     1      26.741   0.520  54.086  1.00  0.00     0.131 A 
HETATM    3  C8  UNL     1      26.155   1.294  52.962  1.00  0.00     0.158 A 
HETATM    4  C9  UNL     1      27.154   2.256  52.477  1.00  0.00     0.113 A 
HETATM    5  N4  UNL     1      28.370   2.423  52.938  1.00  0.00    -0.228 NA
HETATM    6  C16 UNL     1      28.845   1.632  54.018  1.00  0.00     0.237 A 
HETATM    7  N5  UNL     1      28.067   0.742  54.547  1.00  0.00    -0.227 NA
ENDROOT
BRANCH   1   8
HETATM    8  C6  UNL     1      24.854  -0.736  54.434  1.00  0.00     0.229 C 
BRANCH   8   9
HETATM    9  C5  UNL     1      23.606  -1.119  54.278  1.00  0.00     0.192 C 
BRANCH   9  10
HETATM   10  C4  UNL     1      22.679  -1.326  55.379  1.00  0.00    -0.017 C 
HETATM   11  C3  UNL     1      21.643  -0.672  54.817  1.00  0.00    -0.007 C 
BRANCH  11  12
HETATM   12  C2  UNL     1      21.872  -0.093  53.474  1.00  0.00    -0.027 C 
HETATM   13  C1  UNL     1      21.635   0.573  52.341  1.00  0.00     0.031 C 
ENDBRANCH  11  12
ENDBRANCH   9  10
ENDBRANCH   8   9
BRANCH   8  14
HETATM   14  N1  UNL     1      25.163  -1.240  55.750  1.00  0.00     0.104 N 
HETATM   15  H7  UNL     1      25.878  -1.805  56.302  1.00  0.00     0.315 HD
HETATM   16  H8  UNL     1      25.900  -1.808  56.259  1.00  0.00     0.315 HD
ENDBRANCH   8  14
ENDBRANCH   1   8
BRANCH   4  17
HETATM   17  N3  UNL     1      26.821   3.120  51.400  1.00  0.00    -0.344 N 
HETATM   18  H11 UNL     1      27.609   3.672  50.948  1.00  0.00     0.167 HD
BRANCH  17  19
HETATM   19  C10 UNL     1      25.519   3.315  50.875  1.00  0.00     0.035 A 
HETATM   20  C11 UNL     1      25.145   3.144  49.570  1.00  0.00     0.029 A 
HETATM   21  C12 UNL     1      23.877   3.342  49.071  1.00  0.00     0.004 A 
HETATM   22  C13 UNL     1      22.883   3.745  49.932  1.00  0.00     0.024 A 
HETATM   23  C14 UNL     1      23.205   3.932  51.258  1.00  0.00     0.036 A 
HETATM   24 CL1  UNL     1      21.960   4.446  52.384  1.00  0.00    -0.084 Cl
HETATM   25  C15 UNL     1      24.485   3.719  51.695  1.00  0.00     0.053 A 
ENDBRANCH  17  19
ENDBRANCH   4  17
TORSDOF 7
ENDMDL
MODEL 2
REMARK VINA RESULT:      -7.4      3.418      5.779
REMARK  7 active torsions:
REMARK  status: ('A' for Active; 'I' for Inactive)
REMARK    1  A    between atoms: C2_2  and  C3_3 
REMARK    2  A    between atoms: C4_4  and  C5_5 
REMARK    3  A    between atoms: C5_5  and  C6_6 
REMARK    4  A    between atoms: C6_6  and  N1_7 
REMARK    5  A    between atoms: C6_6  and  N2_8 
REMARK    6  A    between atoms: C9_11  and  N3_12 
REMARK    7  A    between atoms: N3_12  and  C10_13 
ROOT
HETATM    1  N2  UNL     1      20.953  -0.730  54.289  1.00  0.00    -0.238 NA
HETATM    2  C7  UNL     1      22.242  -0.772  54.281  1.00  0.00     0.131 A 
HETATM    3  C8  UNL     1      23.169  -0.359  53.197  1.00  0.00     0.158 A 
HETATM    4  C9  UNL     1      24.551  -0.582  53.645  1.00  0.00     0.113 A 
HETATM    5  N4  UNL     1      24.931  -1.066  54.802  1.00  0.00    -0.228 NA
HETATM    6  C16 UNL     1      23.969  -1.436  55.779  1.00  0.00     0.237 A 
HETATM    7  N5  UNL     1      22.708  -1.292  55.518  1.00  0.00    -0.227 NA
ENDROOT
BRANCH   1   8
HETATM    8  C6  UNL     1      20.349  -0.224  53.107  1.00  0.00     0.229 C 
BRANCH   8   9
HETATM    9  C5  UNL     1      19.631   0.158  52.073  1.00  0.00     0.192 C 
BRANCH   9  10
HETATM   10  C4  UNL     1      20.190   0.783  50.886  1.00  0.00    -0.017 C 
HETATM   11  C3  UNL     1      19.057   0.740  50.157  1.00  0.00    -0.007 C 
BRANCH  11  12
HETATM   12  C2  UNL     1      17.869   0.143  50.809  1.00  0.00    -0.027 C 
HETATM   13  C1  UNL     1      16.700  -0.487  50.943  1.00  0.00     0.031 C 
ENDBRANCH  11  12
ENDBRANCH   9  10
ENDBRANCH   8   9
BRANCH   8  14
HETATM   14  N1  UNL     1      19.393  -0.983  53.876  1.00  0.00     0.104 N 
HETATM   15  H7  UNL     1      18.365  -1.254  53.932  1.00  0.00     0.315 HD
HETATM   16  H8  UNL     1      18.361  -1.227  53.893  1.00  0.00     0.315 HD
ENDBRANCH   8  14
ENDBRANCH   1   8
BRANCH   4  17
HETATM   17  N3  UNL     1      25.625  -0.254  52.775  1.00  0.00    -0.344 N 
HETATM   18  H11 UNL     1      25.382   0.073  51.793  1.00  0.00     0.167 HD
BRANCH  17  19
HETATM   19  C10 UNL     1      27.001  -0.329  53.103  1.00  0.00     0.035 A 
HETATM   20  C11 UNL     1      27.802  -1.429  52.960  1.00  0.00     0.029 A 
HETATM   21  C12 UNL     1      29.139  -1.492  53.287  1.00  0.00     0.004 A 
HETATM   22  C13 UNL     1      29.746  -0.370  53.802  1.00  0.00     0.024 A 
HETATM   23  C14 UNL     1      28.986   0.766  53.967  1.00  0.00     0.036 A 
HETATM   24 CL1  UNL     1      29.729   2.215  54.622  1.00  0.00    -0.084 Cl
HETATM   25  C15 UNL     1      27.660   0.767  53.623  1.00  0.00     0.053 A 
ENDBRANCH  17  19
ENDBRANCH   4  17
TORSDOF 7
ENDMDL
MODEL 3
REMARK VINA RESULT:      -7.2      2.380      5.041
REMARK  7 active torsions:
REMARK  status: ('A' for Active; 'I' for Inactive)
REMARK    1  A    between atoms: C2_2  and  C3_3 
REMARK    2  A    between atoms: C4_4  and  C5_5 
REMARK    3  A    between atoms: C5_5  and  C6_6 
REMARK    4  A    between atoms: C6_6  and  N1_7 
REMARK    5  A    between atoms: C6_6  and  N2_8 
REMARK    6  A    between atoms: C9_11  and  N3_12 
REMARK    7  A    between atoms: N3_12  and  C10_13 
ROOT
HETATM    1  N2  UNL     1      24.702  -0.893  54.574  1.00  0.00    -0.238 NA
HETATM    2  C7  UNL     1      23.542  -0.525  54.147  1.00  0.00     0.131 A 
HETATM    3  C8  UNL     1      23.218   0.551  53.177  1.00  0.00     0.158 A 
HETATM    4  C9  UNL     1      21.761   0.599  52.992  1.00  0.00     0.113 A 
HETATM    5  N4  UNL     1      20.872  -0.167  53.575  1.00  0.00    -0.228 NA
HETATM    6  C16 UNL     1      21.278  -1.171  54.493  1.00  0.00     0.237 A 
HETATM    7  N5  UNL     1      22.538  -1.327  54.752  1.00  0.00    -0.227 NA
ENDROOT
BRANCH   1   8
HETATM    8  C6  UNL     1      25.806  -0.172  54.045  1.00  0.00     0.229 C 
BRANCH   8   9
HETATM    9  C5  UNL     1      26.906   0.476  53.729  1.00  0.00     0.192 C 
BRANCH   9  10
HETATM   10  C4  UNL     1      26.981   1.920  53.581  1.00  0.00    -0.017 C 
HETATM   11  C3  UNL     1      28.327   1.990  53.552  1.00  0.00    -0.007 C 
BRANCH  11  12
HETATM   12  C2  UNL     1      29.062   0.710  53.669  1.00  0.00    -0.027 C 
HETATM   13  C1  UNL     1      30.041  -0.188  53.534  1.00  0.00     0.031 C 
ENDBRANCH  11  12
ENDBRANCH   9  10
ENDBRANCH   8   9
BRANCH   8  14
HETATM   14  N1  UNL     1      26.040  -0.508  55.429  1.00  0.00     0.104 N 
HETATM   15  H7  UNL     1      26.485  -1.235  56.068  1.00  0.00     0.315 HD
HETATM   16  H8  UNL     1      26.496  -1.256  56.026  1.00  0.00     0.315 HD
ENDBRANCH   8  14
ENDBRANCH   1   8
BRANCH   4  17
HETATM   17  N3  UNL     1      21.205   1.552  52.097  1.00  0.00    -0.344 N 
HETATM   18  H11 UNL     1      20.395   2.144  52.448  1.00  0.00     0.167 HD
BRANCH  17  19
HETATM   19  C10 UNL     1      21.637   1.781  50.767  1.00  0.00     0.035 A 
HETATM   20  C11 UNL     1      21.297   1.034  49.672  1.00  0.00     0.029 A 
HETATM   21  C12 UNL     1      21.727   1.263  48.384  1.00  0.00     0.004 A 
HETATM   22  C13 UNL     1      22.570   2.325  48.148  1.00  0.00     0.024 A 
HETATM   23  C14 UNL     1      22.943   3.110  49.215  1.00  0.00     0.036 A 
HETATM   24 CL1  UNL     1      24.017   4.474  48.949  1.00  0.00    -0.084 Cl
HETATM   25  C15 UNL     1      22.482   2.832  50.475  1.00  0.00     0.053 A 
ENDBRANCH  17  19
ENDBRANCH   4  17
TORSDOF 7
ENDMDL
MODEL 4
REMARK VINA RESULT:      -7.2      1.354      5.328
REMARK  7 active torsions:
REMARK  status: ('A' for Active; 'I' for Inactive)
REMARK    1  A    between atoms: C2_2  and  C3_3 
REMARK    2  A    between atoms: C4_4  and  C5_5 
REMARK    3  A    between atoms: C5_5  and  C6_6 
REMARK    4  A    between atoms: C6_6  and  N1_7 
REMARK    5  A    between atoms: C6_6  and  N2_8 
REMARK    6  A    between atoms: C9_11  and  N3_12 
REMARK    7  A    between atoms: N3_12  and  C10_13 
ROOT
HETATM    1  N2  UNL     1      27.071   2.561  51.407  1.00  0.00    -0.238 NA
HETATM    2  C7  UNL     1      27.005   1.675  52.342  1.00  0.00     0.131 A 
HETATM    3  C8  UNL     1      25.817   0.918  52.811  1.00  0.00     0.158 A 
HETATM    4  C9  UNL     1      26.229   0.012  53.892  1.00  0.00     0.113 A 
HETATM    5  N4  UNL     1      27.436  -0.124  54.383  1.00  0.00    -0.228 NA
HETATM    6  C16 UNL     1      28.513   0.647  53.870  1.00  0.00     0.237 A 
HETATM    7  N5  UNL     1      28.294   1.489  52.910  1.00  0.00    -0.227 NA
ENDROOT
BRANCH   1   8
HETATM    8  C6  UNL     1      25.846   2.845  50.746  1.00  0.00     0.229 C 
BRANCH   8   9
HETATM    9  C5  UNL     1      24.800   3.264  50.067  1.00  0.00     0.192 C 
BRANCH   9  10
HETATM   10  C4  UNL     1      24.440   4.664  49.917  1.00  0.00    -0.017 C 
HETATM   11  C3  UNL     1      23.417   4.457  49.063  1.00  0.00    -0.007 C 
BRANCH  11  12
HETATM   12  C2  UNL     1      23.136   3.052  48.691  1.00  0.00    -0.027 C 
HETATM   13  C1  UNL     1      22.561   2.007  48.091  1.00  0.00     0.031 C 
ENDBRANCH  11  12
ENDBRANCH   9  10
ENDBRANCH   8   9
BRANCH   8  14
HETATM   14  N1  UNL     1      26.821   3.870  50.462  1.00  0.00     0.104 N 
HETATM   15  H7  UNL     1      27.686   4.088  49.881  1.00  0.00     0.315 HD
HETATM   16  H8  UNL     1      27.680   4.043  49.865  1.00  0.00     0.315 HD
ENDBRANCH   8  14
ENDBRANCH   1   8
BRANCH   4  17
HETATM   17  N3  UNL     1      25.259  -0.827  54.502  1.00  0.00    -0.344 N 
HETATM   18  H11 UNL     1      25.600  -1.540  55.213  1.00  0.00     0.167 HD
BRANCH  17  19
HETATM   19  C10 UNL     1      23.866  -0.800  54.241  1.00  0.00     0.035 A 
HETATM   20  C11 UNL     1      22.881  -1.222  55.091  1.00  0.00     0.029 A 
HETATM   21  C12 UNL     1      21.530  -1.195  54.824  1.00  0.00     0.004 A 
HETATM   22  C13 UNL     1      21.106  -0.708  53.609  1.00  0.00     0.024 A 
HETATM   23  C14 UNL     1      22.057  -0.269  52.715  1.00  0.00     0.036 A 
HETATM   24 CL1  UNL     1      21.552   0.359  51.155  1.00  0.00    -0.084 Cl
HETATM   25  C15 UNL     1      23.388  -0.321  53.039  1.00  0.00     0.053 A 
ENDBRANCH  17  19
ENDBRANCH   4  17
TORSDOF 7
ENDMDL
MODEL 5
REMARK VINA RESULT:      -7.2      3.442      5.168
REMARK  7 active torsions:
REMARK  status: ('A' for Active; 'I' for Inactive)
REMARK    1  A    between atoms: C2_2  and  C3_3 
REMARK    2  A    between atoms: C4_4  and  C5_5 
REMARK    3  A    between atoms: C5_5  and  C6_6 
REMARK    4  A    between atoms: C6_6  and  N1_7 
REMARK    5  A    between atoms: C6_6  and  N2_8 
REMARK    6  A    between atoms: C9_11  and  N3_12 
REMARK    7  A    between atoms: N3_12  and  C10_13 
ROOT
HETATM    1  N2  UNL     1      25.200   1.487  53.593  1.00  0.00    -0.238 NA
HETATM    2  C7  UNL     1      24.985   2.380  52.688  1.00  0.00     0.131 A 
HETATM    3  C8  UNL     1      25.584   2.479  51.333  1.00  0.00     0.158 A 
HETATM    4  C9  UNL     1      25.031   3.660  50.655  1.00  0.00     0.113 A 
HETATM    5  N4  UNL     1      24.155   4.504  51.143  1.00  0.00    -0.228 NA
HETATM    6  C16 UNL     1      23.638   4.328  52.454  1.00  0.00     0.237 A 
HETATM    7  N5  UNL     1      24.039   3.324  53.168  1.00  0.00    -0.227 NA
ENDROOT
BRANCH   1   8
HETATM    8  C6  UNL     1      26.130   0.471  53.243  1.00  0.00     0.229 C 
BRANCH   8   9
HETATM    9  C5  UNL     1      27.078  -0.426  53.083  1.00  0.00     0.192 C 
BRANCH   9  10
HETATM   10  C4  UNL     1      26.842  -1.775  52.596  1.00  0.00    -0.017 C 
HETATM   11  C3  UNL     1      28.095  -2.225  52.813  1.00  0.00    -0.007 C 
BRANCH  11  12
HETATM   12  C2  UNL     1      29.057  -1.259  53.389  1.00  0.00    -0.027 C 
HETATM   13  C1  UNL     1      30.204  -0.605  53.594  1.00  0.00     0.031 C 
ENDBRANCH  11  12
ENDBRANCH   9  10
ENDBRANCH   8   9
BRANCH   8  14
HETATM   14  N1  UNL     1      26.488   1.068  54.507  1.00  0.00     0.104 N 
HETATM   15  H7  UNL     1      27.256   1.112  55.243  1.00  0.00     0.315 HD
HETATM   16  H8  UNL     1      27.278   1.082  55.214  1.00  0.00     0.315 HD
ENDBRANCH   8  14
ENDBRANCH   1   8
BRANCH   4  17
HETATM   17  N3  UNL     1      25.451   3.963  49.333  1.00  0.00    -0.344 N 
HETATM   18  H11 UNL     1      25.080   3.354  48.545  1.00  0.00     0.167 HD
BRANCH  17  19
HETATM   19  C10 UNL     1      26.333   5.012  48.970  1.00  0.00     0.035 A 
HETATM   20  C11 UNL     1      26.010   6.339  48.882  1.00  0.00     0.029 A 
HETATM   21  C12 UNL     1      26.874   7.348  48.523  1.00  0.00     0.004 A 
HETATM   22  C13 UNL     1      28.178   7.028  48.224  1.00  0.00     0.024 A 
HETATM   23  C14 UNL     1      28.557   5.706  48.298  1.00  0.00     0.036 A 
HETATM   24 CL1  UNL     1      30.214   5.261  47.922  1.00  0.00    -0.084 Cl
HETATM   25  C15 UNL     1      27.651   4.745  48.661  1.00  0.00     0.053 A 
ENDBRANCH  17  19
ENDBRANCH   4  17
TORSDOF 7
ENDMDL
MODEL 6
REMARK VINA RESULT:      -7.2      3.642      7.626
REMARK  7 active torsions:
REMARK  status: ('A' for Active; 'I' for Inactive)
REMARK    1  A    between atoms: C2_2  and  C3_3 
REMARK    2  A    between atoms: C4_4  and  C5_5 
REMARK    3  A    between atoms: C5_5  and  C6_6 
REMARK    4  A    between atoms: C6_6  and  N1_7 
REMARK    5  A    between atoms: C6_6  and  N2_8 
REMARK    6  A    between atoms: C9_11  and  N3_12 
REMARK    7  A    between atoms: N3_12  and  C10_13 
ROOT
HETATM    1  N2  UNL     1      24.431   5.391  50.148  1.00  0.00    -0.238 NA
HETATM    2  C7  UNL     1      24.343   4.299  50.828  1.00  0.00     0.131 A 
HETATM    3  C8  UNL     1      25.298   3.162  50.871  1.00  0.00     0.158 A 
HETATM    4  C9  UNL     1      24.780   2.143  51.794  1.00  0.00     0.113 A 
HETATM    5  N4  UNL     1      23.663   2.201  52.478  1.00  0.00    -0.228 NA
HETATM    6  C16 UNL     1      22.811   3.332  52.370  1.00  0.00     0.237 A 
HETATM    7  N5  UNL     1      23.145   4.310  51.590  1.00  0.00    -0.227 NA
ENDROOT
BRANCH   1   8
HETATM    8  C6  UNL     1      25.592   5.516  49.337  1.00  0.00     0.229 C 
BRANCH   8   9
HETATM    9  C5  UNL     1      26.719   5.768  48.709  1.00  0.00     0.192 C 
BRANCH   9  10
HETATM   10  C4  UNL     1      27.826   4.829  48.624  1.00  0.00    -0.017 C 
HETATM   11  C3  UNL     1      28.735   5.721  48.182  1.00  0.00    -0.007 C 
BRANCH  11  12
HETATM   12  C2  UNL     1      28.265   7.112  47.997  1.00  0.00    -0.027 C 
HETATM   13  C1  UNL     1      28.280   8.448  47.987  1.00  0.00     0.031 C 
ENDBRANCH  11  12
ENDBRANCH   9  10
ENDBRANCH   8   9
BRANCH   8  14
HETATM   14  N1  UNL     1      25.641   6.451  50.435  1.00  0.00     0.104 N 
HETATM   15  H7  UNL     1      26.131   6.660  51.357  1.00  0.00     0.315 HD
HETATM   16  H8  UNL     1      26.155   6.619  51.347  1.00  0.00     0.315 HD
ENDBRANCH   8  14
ENDBRANCH   1   8
BRANCH   4  17
HETATM   17  N3  UNL     1      25.528   0.955  52.008  1.00  0.00    -0.344 N 
HETATM   18  H11 UNL     1      25.102   0.038  51.681  1.00  0.00     0.167 HD
BRANCH  17  19
HETATM   19  C10 UNL     1      26.800   0.885  52.630  1.00  0.00     0.035 A 
HETATM   20  C11 UNL     1      27.492   1.937  53.164  1.00  0.00     0.029 A 
HETATM   21  C12 UNL     1      28.731   1.857  53.761  1.00  0.00     0.004 A 
HETATM   22  C13 UNL     1      29.348   0.630  53.841  1.00  0.00     0.024 A 
HETATM   23  C14 UNL     1      28.695  -0.464  53.319  1.00  0.00     0.036 A 
HETATM   24 CL1  UNL     1      29.453  -2.045  53.404  1.00  0.00    -0.084 Cl
HETATM   25  C15 UNL     1      27.462  -0.321  52.737  1.00  0.00     0.053 A 
ENDBRANCH  17  19
ENDBRANCH   4  17
TORSDOF 7
ENDMDL
MODEL 7
REMARK VINA RESULT:      -7.0      3.549      7.619
REMARK  7 active torsions:
REMARK  status: ('A' for Active; 'I' for Inactive)
REMARK    1  A    between atoms: C2_2  and  C3_3 
REMARK    2  A    between atoms: C4_4  and  C5_5 
REMARK    3  A    between atoms: C5_5  and  C6_6 
REMARK    4  A    between atoms: C6_6  and  N1_7 
REMARK    5  A    between atoms: C6_6  and  N2_8 
REMARK    6  A    between atoms: C9_11  and  N3_12 
REMARK    7  A    between atoms: N3_12  and  C10_13 
ROOT
HETATM    1  N2  UNL     1      24.594   6.490  50.251  1.00  0.00    -0.238 NA
HETATM    2  C7  UNL     1      23.987   5.443  50.698  1.00  0.00     0.131 A 
HETATM    3  C8  UNL     1      24.331   4.016  50.476  1.00  0.00     0.158 A 
HETATM    4  C9  UNL     1      23.358   3.178  51.191  1.00  0.00     0.113 A 
HETATM    5  N4  UNL     1      22.345   3.594  51.910  1.00  0.00    -0.228 NA
HETATM    6  C16 UNL     1      22.094   4.984  52.064  1.00  0.00     0.237 A 
HETATM    7  N5  UNL     1      22.876   5.841  51.487  1.00  0.00    -0.227 NA
ENDROOT
BRANCH   1   8
HETATM    8  C6  UNL     1      25.735   6.238  49.442  1.00  0.00     0.229 C 
BRANCH   8   9
HETATM    9  C5  UNL     1      26.886   6.115  48.818  1.00  0.00     0.192 C 
BRANCH   9  10
HETATM   10  C4  UNL     1      27.600   4.856  48.676  1.00  0.00    -0.017 C 
HETATM   11  C3  UNL     1      28.747   5.395  48.217  1.00  0.00    -0.007 C 
BRANCH  11  12
HETATM   12  C2  UNL     1      28.778   6.869  48.072  1.00  0.00    -0.027 C 
HETATM   13  C1  UNL     1      29.268   8.100  47.906  1.00  0.00     0.031 C 
ENDBRANCH  11  12
ENDBRANCH   9  10
ENDBRANCH   8   9
BRANCH   8  14
HETATM   14  N1  UNL     1      26.081   7.097  50.549  1.00  0.00     0.104 N 
HETATM   15  H7  UNL     1      26.834   7.755  50.916  1.00  0.00     0.315 HD
HETATM   16  H8  UNL     1      26.856   7.743  50.875  1.00  0.00     0.315 HD
ENDBRANCH   8  14
ENDBRANCH   1   8
BRANCH   4  17
HETATM   17  N3  UNL     1      23.483   1.764  51.133  1.00  0.00    -0.344 N 
HETATM   18  H11 UNL     1      23.288   1.289  50.202  1.00  0.00     0.167 HD
BRANCH  17  19
HETATM   19  C10 UNL     1      23.844   0.926  52.217  1.00  0.00     0.035 A 
HETATM   20  C11 UNL     1      25.103   0.775  52.731  1.00  0.00     0.029 A 
HETATM   21  C12 UNL     1      25.443  -0.047  53.782  1.00  0.00     0.004 A 
HETATM   22  C13 UNL     1      24.456  -0.792  54.385  1.00  0.00     0.024 A 
HETATM   23  C14 UNL     1      23.170  -0.678  53.907  1.00  0.00     0.036 A 
HETATM   24 CL1  UNL     1      21.885  -1.613  54.653  1.00  0.00    -0.084 Cl
HETATM   25  C15 UNL     1      22.893   0.158  52.857  1.00  0.00     0.053 A 
ENDBRANCH  17  19
ENDBRANCH   4  17
TORSDOF 7
ENDMDL
MODEL 8
REMARK VINA RESULT:      -7.0      3.574      7.627
REMARK  7 active torsions:
REMARK  status: ('A' for Active; 'I' for Inactive)
REMARK    1  A    between atoms: C2_2  and  C3_3 
REMARK    2  A    between atoms: C4_4  and  C5_5 
REMARK    3  A    between atoms: C5_5  and  C6_6 
REMARK    4  A    between atoms: C6_6  and  N1_7 
REMARK    5  A    between atoms: C6_6  and  N2_8 
REMARK    6  A    between atoms: C9_11  and  N3_12 
REMARK    7  A    between atoms: N3_12  and  C10_13 
ROOT
HETATM    1  N2  UNL     1      24.625   6.323  50.207  1.00  0.00    -0.238 NA
HETATM    2  C7  UNL     1      24.035   5.291  50.707  1.00  0.00     0.131 A 
HETATM    3  C8  UNL     1      24.378   3.858  50.527  1.00  0.00     0.158 A 
HETATM    4  C9  UNL     1      23.429   3.043  51.297  1.00  0.00     0.113 A 
HETATM    5  N4  UNL     1      22.434   3.481  52.028  1.00  0.00    -0.228 NA
HETATM    6  C16 UNL     1      22.181   4.875  52.140  1.00  0.00     0.237 A 
HETATM    7  N5  UNL     1      22.944   5.713  51.512  1.00  0.00    -0.227 NA
ENDROOT
BRANCH   1   8
HETATM    8  C6  UNL     1      25.745   6.046  49.377  1.00  0.00     0.229 C 
BRANCH   8   9
HETATM    9  C5  UNL     1      26.877   5.912  48.721  1.00  0.00     0.192 C 
BRANCH   9  10
HETATM   10  C4  UNL     1      27.709   4.722  48.777  1.00  0.00    -0.017 C 
HETATM   11  C3  UNL     1      28.783   5.271  48.173  1.00  0.00    -0.007 C 
BRANCH  11  12
HETATM   12  C2  UNL     1      28.661   6.688  47.762  1.00  0.00    -0.027 C 
HETATM   13  C1  UNL     1      28.859   7.810  47.066  1.00  0.00     0.031 C 
ENDBRANCH  11  12
ENDBRANCH   9  10
ENDBRANCH   8   9
BRANCH   8  14
HETATM   14  N1  UNL     1      26.101   6.997  50.403  1.00  0.00     0.104 N 
HETATM   15  H7  UNL     1      26.700   7.854  50.602  1.00  0.00     0.315 HD
HETATM   16  H8  UNL     1      26.714   7.848  50.556  1.00  0.00     0.315 HD
ENDBRANCH   8  14
ENDBRANCH   1   8
BRANCH   4  17
HETATM   17  N3  UNL     1      23.559   1.628  51.286  1.00  0.00    -0.344 N 
HETATM   18  H11 UNL     1      23.093   1.096  50.492  1.00  0.00     0.167 HD
BRANCH  17  19
HETATM   19  C10 UNL     1      24.256   0.859  52.250  1.00  0.00     0.035 A 
HETATM   20  C11 UNL     1      23.688   0.052  53.198  1.00  0.00     0.029 A 
HETATM   21  C12 UNL     1      24.377  -0.687  54.134  1.00  0.00     0.004 A 
HETATM   22  C13 UNL     1      25.751  -0.630  54.141  1.00  0.00     0.024 A 
HETATM   23  C14 UNL     1      26.375   0.167  53.207  1.00  0.00     0.036 A 
HETATM   24 CL1  UNL     1      28.128   0.263  53.186  1.00  0.00    -0.084 Cl
HETATM   25  C15 UNL     1      25.635   0.880  52.300  1.00  0.00     0.053 A 
ENDBRANCH  17  19
ENDBRANCH   4  17
TORSDOF 7
ENDMDL
MODEL 9
REMARK VINA RESULT:      -6.9      2.360      4.711
REMARK  7 active torsions:
REMARK  status: ('A' for Active; 'I' for Inactive)
REMARK    1  A    between atoms: C2_2  and  C3_3 
REMARK    2  A    between atoms: C4_4  and  C5_5 
REMARK    3  A    between atoms: C5_5  and  C6_6 
REMARK    4  A    between atoms: C6_6  and  N1_7 
REMARK    5  A    between atoms: C6_6  and  N2_8 
REMARK    6  A    between atoms: C9_11  and  N3_12 
REMARK    7  A    between atoms: N3_12  and  C10_13 
ROOT
HETATM    1  N2  UNL     1      24.690  -0.268  53.891  1.00  0.00    -0.238 NA
HETATM    2  C7  UNL     1      23.907   0.232  52.997  1.00  0.00     0.131 A 
HETATM    3  C8  UNL     1      24.226   1.241  51.955  1.00  0.00     0.158 A 
HETATM    4  C9  UNL     1      23.018   1.498  51.159  1.00  0.00     0.113 A 
HETATM    5  N4  UNL     1      21.841   0.944  51.320  1.00  0.00    -0.228 NA
HETATM    6  C16 UNL     1      21.631  -0.013  52.348  1.00  0.00     0.237 A 
HETATM    7  N5  UNL     1      22.612  -0.337  53.128  1.00  0.00    -0.227 NA
ENDROOT
BRANCH   1   8
HETATM    8  C6  UNL     1      26.027   0.213  53.873  1.00  0.00     0.229 C 
BRANCH   8   9
HETATM    9  C5  UNL     1      27.289   0.556  54.015  1.00  0.00     0.192 C 
BRANCH   9  10
HETATM   10  C4  UNL     1      27.776   1.920  53.891  1.00  0.00    -0.017 C 
HETATM   11  C3  UNL     1      29.053   1.589  53.611  1.00  0.00    -0.007 C 
BRANCH  11  12
HETATM   12  C2  UNL     1      29.368   0.143  53.558  1.00  0.00    -0.027 C 
HETATM   13  C1  UNL     1      30.024  -1.003  53.758  1.00  0.00     0.031 C 
ENDBRANCH  11  12
ENDBRANCH   9  10
ENDBRANCH   8   9
BRANCH   8  14
HETATM   14  N1  UNL     1      25.817  -0.647  55.012  1.00  0.00     0.104 N 
HETATM   15  H7  UNL     1      26.156  -1.541  55.482  1.00  0.00     0.315 HD
HETATM   16  H8  UNL     1      26.186  -1.542  55.445  1.00  0.00     0.315 HD
ENDBRANCH   8  14
ENDBRANCH   1   8
BRANCH   4  17
HETATM   17  N3  UNL     1      23.077   2.431  50.089  1.00  0.00    -0.344 N 
HETATM   18  H11 UNL     1      22.380   2.315  49.295  1.00  0.00     0.167 HD
BRANCH  17  19
HETATM   19  C10 UNL     1      23.993   3.507  49.986  1.00  0.00     0.035 A 
HETATM   20  C11 UNL     1      25.248   3.445  49.445  1.00  0.00     0.029 A 
HETATM   21  C12 UNL     1      26.132   4.498  49.356  1.00  0.00     0.004 A 
HETATM   22  C13 UNL     1      25.747   5.727  49.840  1.00  0.00     0.024 A 
HETATM   23  C14 UNL     1      24.493   5.845  50.395  1.00  0.00     0.036 A 
HETATM   24 CL1  UNL     1      23.970   7.399  51.023  1.00  0.00    -0.084 Cl
HETATM   25  C15 UNL     1      23.658   4.761  50.456  1.00  0.00     0.053 A 
ENDBRANCH  17  19
ENDBRANCH   4  17
TORSDOF 7
ENDMDL
