MODEL 1
REMARK VINA RESULT:      -8.3      0.000      0.000
REMARK  3 active torsions:
REMARK  status: ('A' for Active; 'I' for Inactive)
REMARK    1  A    between atoms: C2_2  and  O1_3 
REMARK    2  A    between atoms: O1_3  and  C3_4 
REMARK    3  A    between atoms: C3_4  and  C4_6 
ROOT
HETATM    1  C4  UNL     1      25.530   1.360  53.318  1.00  0.00     0.061 A 
HETATM    2  C5  UNL     1      24.393   0.668  52.944  1.00  0.00    -0.008 A 
HETATM    3  C6  UNL     1      23.473  -0.502  53.061  1.00  0.00     0.021 C 
HETATM    4  C7  UNL     1      22.139  -0.440  52.817  1.00  0.00    -0.025 A 
HETATM    5  C8  UNL     1      21.567  -1.266  53.920  1.00  0.00     0.010 A 
HETATM    6  C9  UNL     1      20.286  -1.453  54.188  1.00  0.00     0.001 A 
HETATM    7  C10 UNL     1      19.332  -0.793  53.306  1.00  0.00    -0.001 A 
HETATM    8  C11 UNL     1      19.826  -0.083  52.307  1.00  0.00     0.010 A 
HETATM    9  C12 UNL     1      21.198   0.182  51.877  1.00  0.00     0.184 A 
HETATM   10  O3  UNL     1      21.344   1.559  51.658  1.00  0.00    -0.340 OA
HETATM   11  C13 UNL     1      22.408   2.485  51.681  1.00  0.00     0.069 C 
HETATM   12  C14 UNL     1      22.329   3.096  50.479  1.00  0.00     0.035 C 
HETATM   13  C15 UNL     1      23.546   3.567  49.754  1.00  0.00     0.019 C 
HETATM   14  C16 UNL     1      24.807   3.173  50.032  1.00  0.00     0.084 C 
HETATM   15  N1  UNL     1      25.192   2.250  51.080  1.00  0.00    -0.380 N 
HETATM   16  C17 UNL     1      24.604   1.884  52.316  1.00  0.00     0.115 A 
HETATM   17  C18 UNL     1      23.458   2.807  52.738  1.00  0.00     0.176 C 
HETATM   18 CL1  UNL     1      24.007   4.462  52.675  1.00  0.00    -0.115 Cl
HETATM   19  H15 UNL     1      26.103   1.783  50.830  1.00  0.00     0.160 HD
ENDROOT
BRANCH   1  20
HETATM   20  C3  UNL     1      26.722   1.503  54.107  1.00  0.00     0.292 C 
HETATM   21  O2  UNL     1      27.417   2.576  54.081  1.00  0.00    -0.259 OA
BRANCH  20  22
HETATM   22  O1  UNL     1      27.214   0.513  54.945  1.00  0.00    -0.318 OA
BRANCH  22  23
HETATM   23  C2  UNL     1      28.610   0.193  54.882  1.00  0.00     0.174 C 
HETATM   24  C1  UNL     1      28.817  -0.693  53.675  1.00  0.00     0.034 C 
ENDBRANCH  22  23
ENDBRANCH  20  22
ENDBRANCH   1  20
TORSDOF 3
ENDMDL
MODEL 2
REMARK VINA RESULT:      -8.1      2.374      4.413
REMARK  3 active torsions:
REMARK  status: ('A' for Active; 'I' for Inactive)
REMARK    1  A    between atoms: C2_2  and  O1_3 
REMARK    2  A    between atoms: O1_3  and  C3_4 
REMARK    3  A    between atoms: C3_4  and  C4_6 
ROOT
HETATM    1  C4  UNL     1      24.621   2.485  51.368  1.00  0.00     0.061 A 
HETATM    2  C5  UNL     1      23.644   1.995  52.215  1.00  0.00    -0.008 A 
HETATM    3  C6  UNL     1      22.216   1.856  52.627  1.00  0.00     0.021 C 
HETATM    4  C7  UNL     1      21.721   0.771  53.276  1.00  0.00    -0.025 A 
HETATM    5  C8  UNL     1      20.410   0.556  52.596  1.00  0.00     0.010 A 
HETATM    6  C9  UNL     1      19.565  -0.440  52.799  1.00  0.00     0.001 A 
HETATM    7  C10 UNL     1      19.949  -1.426  53.802  1.00  0.00    -0.001 A 
HETATM    8  C11 UNL     1      21.093  -1.231  54.432  1.00  0.00     0.010 A 
HETATM    9  C12 UNL     1      22.098  -0.173  54.334  1.00  0.00     0.184 A 
HETATM   10  O3  UNL     1      23.365  -0.763  54.228  1.00  0.00    -0.340 OA
HETATM   11  C13 UNL     1      24.615  -0.399  53.687  1.00  0.00     0.069 C 
HETATM   12  C14 UNL     1      25.477  -0.584  54.710  1.00  0.00     0.035 C 
HETATM   13  C15 UNL     1      26.676   0.286  54.897  1.00  0.00     0.019 C 
HETATM   14  C16 UNL     1      26.854   1.486  54.304  1.00  0.00     0.084 C 
HETATM   15  N1  UNL     1      25.933   2.119  53.383  1.00  0.00    -0.380 N 
HETATM   16  C17 UNL     1      24.946   1.618  52.499  1.00  0.00     0.115 A 
HETATM   17  C18 UNL     1      25.022   0.101  52.305  1.00  0.00     0.176 C 
HETATM   18 CL1  UNL     1      26.654  -0.338  51.872  1.00  0.00    -0.115 Cl
HETATM   19  H15 UNL     1      26.063   3.164  53.407  1.00  0.00     0.160 HD
ENDROOT
BRANCH   1  20
HETATM   20  C3  UNL     1      25.037   3.246  50.223  1.00  0.00     0.292 C 
HETATM   21  O2  UNL     1      24.346   3.267  49.147  1.00  0.00    -0.259 OA
BRANCH  20  22
HETATM   22  O1  UNL     1      26.196   4.006  50.183  1.00  0.00    -0.318 OA
BRANCH  22  23
HETATM   23  C2  UNL     1      26.310   5.032  49.187  1.00  0.00     0.174 C 
HETATM   24  C1  UNL     1      27.701   4.945  48.605  1.00  0.00     0.034 C 
ENDBRANCH  22  23
ENDBRANCH  20  22
ENDBRANCH   1  20
TORSDOF 3
ENDMDL
MODEL 3
REMARK VINA RESULT:      -8.1      2.519      5.489
REMARK  3 active torsions:
REMARK  status: ('A' for Active; 'I' for Inactive)
REMARK    1  A    between atoms: C2_2  and  O1_3 
REMARK    2  A    between atoms: O1_3  and  C3_4 
REMARK    3  A    between atoms: C3_4  and  C4_6 
ROOT
HETATM    1  C4  UNL     1      24.919   3.805  50.193  1.00  0.00     0.061 A 
HETATM    2  C5  UNL     1      25.513   2.731  50.830  1.00  0.00    -0.008 A 
HETATM    3  C6  UNL     1      26.722   1.986  51.291  1.00  0.00     0.021 C 
HETATM    4  C7  UNL     1      26.744   1.195  52.395  1.00  0.00    -0.025 A 
HETATM    5  C8  UNL     1      28.060   1.534  53.011  1.00  0.00     0.010 A 
HETATM    6  C9  UNL     1      28.532   1.096  54.166  1.00  0.00     0.001 A 
HETATM    7  C10 UNL     1      27.681   0.175  54.910  1.00  0.00    -0.001 A 
HETATM    8  C11 UNL     1      26.526  -0.157  54.360  1.00  0.00     0.010 A 
HETATM    9  C12 UNL     1      25.899   0.220  53.094  1.00  0.00     0.184 A 
HETATM   10  O3  UNL     1      24.573   0.601  53.343  1.00  0.00    -0.340 OA
HETATM   11  C13 UNL     1      23.622   1.439  52.724  1.00  0.00     0.069 C 
HETATM   12  C14 UNL     1      22.541   0.644  52.573  1.00  0.00     0.035 C 
HETATM   13  C15 UNL     1      21.619   0.782  51.407  1.00  0.00     0.019 C 
HETATM   14  C16 UNL     1      21.913   1.448  50.269  1.00  0.00     0.084 C 
HETATM   15  N1  UNL     1      23.151   2.148  49.997  1.00  0.00    -0.380 N 
HETATM   16  C17 UNL     1      24.129   2.751  50.825  1.00  0.00     0.115 A 
HETATM   17  C18 UNL     1      23.681   2.896  52.282  1.00  0.00     0.176 C 
HETATM   18 CL1  UNL     1      22.127   3.688  52.324  1.00  0.00    -0.115 Cl
HETATM   19  H15 UNL     1      23.313   2.197  48.956  1.00  0.00     0.160 HD
ENDROOT
BRANCH   1  20
HETATM   20  C3  UNL     1      24.991   5.046  49.472  1.00  0.00     0.292 C 
HETATM   21  O2  UNL     1      24.106   5.369  48.607  1.00  0.00    -0.259 OA
BRANCH  20  22
HETATM   22  O1  UNL     1      26.001   5.981  49.647  1.00  0.00    -0.318 OA
BRANCH  22  23
HETATM   23  C2  UNL     1      26.910   6.217  48.564  1.00  0.00     0.174 C 
HETATM   24  C1  UNL     1      27.895   5.072  48.541  1.00  0.00     0.034 C 
ENDBRANCH  22  23
ENDBRANCH  20  22
ENDBRANCH   1  20
TORSDOF 3
ENDMDL
MODEL 4
REMARK VINA RESULT:      -7.9      2.361      5.531
REMARK  3 active torsions:
REMARK  status: ('A' for Active; 'I' for Inactive)
REMARK    1  A    between atoms: C2_2  and  O1_3 
REMARK    2  A    between atoms: O1_3  and  C3_4 
REMARK    3  A    between atoms: C3_4  and  C4_6 
ROOT
HETATM    1  C4  UNL     1      22.249   3.827  51.699  1.00  0.00     0.061 A 
HETATM    2  C5  UNL     1      23.388   3.201  52.173  1.00  0.00    -0.008 A 
HETATM    3  C6  UNL     1      24.075   2.267  53.113  1.00  0.00     0.021 C 
HETATM    4  C7  UNL     1      25.201   1.575  52.799  1.00  0.00    -0.025 A 
HETATM    5  C8  UNL     1      24.929   0.230  53.388  1.00  0.00     0.010 A 
HETATM    6  C9  UNL     1      25.686  -0.849  53.282  1.00  0.00     0.001 A 
HETATM    7  C10 UNL     1      26.922  -0.706  52.521  1.00  0.00    -0.001 A 
HETATM    8  C11 UNL     1      27.188   0.487  52.022  1.00  0.00     0.010 A 
HETATM    9  C12 UNL     1      26.469   1.759  52.085  1.00  0.00     0.184 A 
HETATM   10  O3  UNL     1      26.391   2.298  50.793  1.00  0.00    -0.340 OA
HETATM   11  C13 UNL     1      25.526   3.176  50.108  1.00  0.00     0.069 C 
HETATM   12  C14 UNL     1      26.354   4.117  49.604  1.00  0.00     0.035 C 
HETATM   13  C15 UNL     1      25.932   5.541  49.461  1.00  0.00     0.019 C 
HETATM   14  C16 UNL     1      24.865   6.093  50.080  1.00  0.00     0.084 C 
HETATM   15  N1  UNL     1      23.951   5.401  50.964  1.00  0.00    -0.380 N 
HETATM   16  C17 UNL     1      23.559   4.045  51.088  1.00  0.00     0.115 A 
HETATM   17  C18 UNL     1      24.014   3.174  49.915  1.00  0.00     0.176 C 
HETATM   18 CL1  UNL     1      23.514   3.924  48.421  1.00  0.00    -0.115 Cl
HETATM   19  H15 UNL     1      23.506   6.087  51.629  1.00  0.00     0.160 HD
ENDROOT
BRANCH   1  20
HETATM   20  C3  UNL     1      20.835   4.075  51.734  1.00  0.00     0.292 C 
HETATM   21  O2  UNL     1      20.294   4.968  50.996  1.00  0.00    -0.259 OA
BRANCH  20  22
HETATM   22  O1  UNL     1      19.952   3.385  52.552  1.00  0.00    -0.318 OA
BRANCH  22  23
HETATM   23  C2  UNL     1      19.594   2.043  52.195  1.00  0.00     0.174 C 
HETATM   24  C1  UNL     1      20.416   1.111  53.055  1.00  0.00     0.034 C 
ENDBRANCH  22  23
ENDBRANCH  20  22
ENDBRANCH   1  20
TORSDOF 3
ENDMDL
MODEL 5
REMARK VINA RESULT:      -7.3      3.829      6.044
REMARK  3 active torsions:
REMARK  status: ('A' for Active; 'I' for Inactive)
REMARK    1  A    between atoms: C2_2  and  O1_3 
REMARK    2  A    between atoms: O1_3  and  C3_4 
REMARK    3  A    between atoms: C3_4  and  C4_6 
ROOT
HETATM    1  C4  UNL     1      26.551   5.759  48.880  1.00  0.00     0.061 A 
HETATM    2  C5  UNL     1      26.094   4.551  49.374  1.00  0.00    -0.008 A 
HETATM    3  C6  UNL     1      26.320   3.135  49.789  1.00  0.00     0.021 C 
HETATM    4  C7  UNL     1      25.596   2.506  50.750  1.00  0.00    -0.025 A 
HETATM    5  C8  UNL     1      26.640   1.746  51.499  1.00  0.00     0.010 A 
HETATM    6  C9  UNL     1      26.466   1.031  52.597  1.00  0.00     0.001 A 
HETATM    7  C10 UNL     1      25.108   0.968  53.125  1.00  0.00    -0.001 A 
HETATM    8  C11 UNL     1      24.169   1.611  52.453  1.00  0.00     0.010 A 
HETATM    9  C12 UNL     1      24.211   2.404  51.225  1.00  0.00     0.184 A 
HETATM   10  O3  UNL     1      23.530   3.610  51.443  1.00  0.00    -0.340 OA
HETATM   11  C13 UNL     1      23.572   4.913  50.906  1.00  0.00     0.069 C 
HETATM   12  C14 UNL     1      22.291   5.159  50.557  1.00  0.00     0.035 C 
HETATM   13  C15 UNL     1      21.945   5.996  49.370  1.00  0.00     0.019 C 
HETATM   14  C16 UNL     1      22.803   6.312  48.376  1.00  0.00     0.084 C 
HETATM   15  N1  UNL     1      24.194   5.914  48.303  1.00  0.00    -0.380 N 
HETATM   16  C17 UNL     1      25.158   5.568  49.280  1.00  0.00     0.115 A 
HETATM   17  C18 UNL     1      24.717   5.899  50.708  1.00  0.00     0.176 C 
HETATM   18 CL1  UNL     1      24.204   7.566  50.774  1.00  0.00    -0.115 Cl
HETATM   19  H15 UNL     1      24.509   5.897  47.297  1.00  0.00     0.160 HD
ENDROOT
BRANCH   1  20
HETATM   20  C3  UNL     1      27.596   6.606  48.375  1.00  0.00     0.292 C 
HETATM   21  O2  UNL     1      28.719   6.127  47.994  1.00  0.00    -0.259 OA
BRANCH  20  22
HETATM   22  O1  UNL     1      27.483   7.983  48.260  1.00  0.00    -0.318 OA
BRANCH  22  23
HETATM   23  C2  UNL     1      28.267   8.810  49.131  1.00  0.00     0.174 C 
HETATM   24  C1  UNL     1      27.364   9.271  50.251  1.00  0.00     0.034 C 
ENDBRANCH  22  23
ENDBRANCH  20  22
ENDBRANCH   1  20
TORSDOF 3
ENDMDL
MODEL 6
REMARK VINA RESULT:      -7.2      7.756     11.048
REMARK  3 active torsions:
REMARK  status: ('A' for Active; 'I' for Inactive)
REMARK    1  A    between atoms: C2_2  and  O1_3 
REMARK    2  A    between atoms: O1_3  and  C3_4 
REMARK    3  A    between atoms: C3_4  and  C4_6 
ROOT
HETATM    1  C4  UNL     1      28.592   5.731  48.349  1.00  0.00     0.061 A 
HETATM    2  C5  UNL     1      29.929   5.725  47.996  1.00  0.00    -0.008 A 
HETATM    3  C6  UNL     1      31.195   5.004  47.668  1.00  0.00     0.021 C 
HETATM    4  C7  UNL     1      32.148   5.495  46.835  1.00  0.00    -0.025 A 
HETATM    5  C8  UNL     1      32.540   4.291  46.044  1.00  0.00     0.010 A 
HETATM    6  C9  UNL     1      33.382   4.250  45.026  1.00  0.00     0.001 A 
HETATM    7  C10 UNL     1      34.003   5.513  44.643  1.00  0.00    -0.001 A 
HETATM    8  C11 UNL     1      33.688   6.580  45.355  1.00  0.00     0.010 A 
HETATM    9  C12 UNL     1      32.809   6.764  46.509  1.00  0.00     0.184 A 
HETATM   10  O3  UNL     1      31.975   7.865  46.270  1.00  0.00    -0.340 OA
HETATM   11  C13 UNL     1      30.700   8.288  46.701  1.00  0.00     0.069 C 
HETATM   12  C14 UNL     1      30.913   9.541  47.157  1.00  0.00     0.035 C 
HETATM   13  C15 UNL     1      30.143  10.102  48.306  1.00  0.00     0.019 C 
HETATM   14  C16 UNL     1      29.424   9.367  49.183  1.00  0.00     0.084 C 
HETATM   15  N1  UNL     1      29.266   7.928  49.146  1.00  0.00    -0.380 N 
HETATM   16  C17 UNL     1      29.331   6.969  48.106  1.00  0.00     0.115 A 
HETATM   17  C18 UNL     1      29.343   7.593  46.708  1.00  0.00     0.176 C 
HETATM   18 CL1  UNL     1      28.005   8.704  46.569  1.00  0.00    -0.115 Cl
HETATM   19  H15 UNL     1      29.056   7.566  50.114  1.00  0.00     0.160 HD
ENDROOT
BRANCH   1  20
HETATM   20  C3  UNL     1      27.368   5.056  48.682  1.00  0.00     0.292 C 
HETATM   21  O2  UNL     1      26.235   5.641  48.588  1.00  0.00    -0.259 OA
BRANCH  20  22
HETATM   22  O1  UNL     1      27.309   3.743  49.123  1.00  0.00    -0.318 OA
BRANCH  22  23
HETATM   23  C2  UNL     1      26.110   3.289  49.766  1.00  0.00     0.174 C 
HETATM   24  C1  UNL     1      26.522   2.452  50.954  1.00  0.00     0.034 C 
ENDBRANCH  22  23
ENDBRANCH  20  22
ENDBRANCH   1  20
TORSDOF 3
ENDMDL
MODEL 7
REMARK VINA RESULT:      -7.1      4.777      6.891
REMARK  3 active torsions:
REMARK  status: ('A' for Active; 'I' for Inactive)
REMARK    1  A    between atoms: C2_2  and  O1_3 
REMARK    2  A    between atoms: O1_3  and  C3_4 
REMARK    3  A    between atoms: C3_4  and  C4_6 
ROOT
HETATM    1  C4  UNL     1      27.557   6.157  48.367  1.00  0.00     0.061 A 
HETATM    2  C5  UNL     1      26.632   5.318  48.961  1.00  0.00    -0.008 A 
HETATM    3  C6  UNL     1      26.225   3.984  49.495  1.00  0.00     0.021 C 
HETATM    4  C7  UNL     1      25.333   3.817  50.505  1.00  0.00    -0.025 A 
HETATM    5  C8  UNL     1      25.961   2.734  51.317  1.00  0.00     0.010 A 
HETATM    6  C9  UNL     1      25.529   2.257  52.472  1.00  0.00     0.001 A 
HETATM    7  C10 UNL     1      24.302   2.841  53.001  1.00  0.00    -0.001 A 
HETATM    8  C11 UNL     1      23.720   3.779  52.275  1.00  0.00     0.010 A 
HETATM    9  C12 UNL     1      24.063   4.375  50.984  1.00  0.00     0.184 A 
HETATM   10  O3  UNL     1      23.992   5.770  51.098  1.00  0.00    -0.340 OA
HETATM   11  C13 UNL     1      24.585   6.875  50.452  1.00  0.00     0.069 C 
HETATM   12  C14 UNL     1      23.532   7.635  50.081  1.00  0.00     0.035 C 
HETATM   13  C15 UNL     1      23.548   8.444  48.826  1.00  0.00     0.019 C 
HETATM   14  C16 UNL     1      24.422   8.270  47.811  1.00  0.00     0.084 C 
HETATM   15  N1  UNL     1      25.490   7.293  47.774  1.00  0.00    -0.380 N 
HETATM   16  C17 UNL     1      26.238   6.633  48.780  1.00  0.00     0.115 A 
HETATM   17  C18 UNL     1      26.040   7.234  50.173  1.00  0.00     0.176 C 
HETATM   18 CL1  UNL     1      26.317   8.955  50.096  1.00  0.00    -0.115 Cl
HETATM   19  H15 UNL     1      25.729   7.061  46.774  1.00  0.00     0.160 HD
ENDROOT
BRANCH   1  20
HETATM   20  C3  UNL     1      28.849   6.412  47.794  1.00  0.00     0.292 C 
HETATM   21  O2  UNL     1      29.793   5.551  47.862  1.00  0.00    -0.259 OA
BRANCH  20  22
HETATM   22  O1  UNL     1      29.180   7.585  47.133  1.00  0.00    -0.318 OA
BRANCH  22  23
HETATM   23  C2  UNL     1      29.027   8.830  47.827  1.00  0.00     0.174 C 
HETATM   24  C1  UNL     1      30.005   8.829  48.979  1.00  0.00     0.034 C 
ENDBRANCH  22  23
ENDBRANCH  20  22
ENDBRANCH   1  20
TORSDOF 3
ENDMDL
MODEL 8
REMARK VINA RESULT:      -7.1      2.582      4.445
REMARK  3 active torsions:
REMARK  status: ('A' for Active; 'I' for Inactive)
REMARK    1  A    between atoms: C2_2  and  O1_3 
REMARK    2  A    between atoms: O1_3  and  C3_4 
REMARK    3  A    between atoms: C3_4  and  C4_6 
ROOT
HETATM    1  C4  UNL     1      23.941   2.884  50.881  1.00  0.00     0.061 A 
HETATM    2  C5  UNL     1      23.811   1.649  51.488  1.00  0.00    -0.008 A 
HETATM    3  C6  UNL     1      24.369   0.513  52.281  1.00  0.00     0.021 C 
HETATM    4  C7  UNL     1      23.623  -0.274  53.098  1.00  0.00    -0.025 A 
HETATM    5  C8  UNL     1      24.508  -0.437  54.288  1.00  0.00     0.010 A 
HETATM    6  C9  UNL     1      24.210  -1.052  55.420  1.00  0.00     0.001 A 
HETATM    7  C10 UNL     1      22.880  -1.644  55.509  1.00  0.00    -0.001 A 
HETATM    8  C11 UNL     1      22.099  -1.533  54.450  1.00  0.00     0.010 A 
HETATM    9  C12 UNL     1      22.304  -0.917  53.139  1.00  0.00     0.184 A 
HETATM   10  O3  UNL     1      21.200  -0.107  52.843  1.00  0.00    -0.340 OA
HETATM   11  C13 UNL     1      20.957   1.031  52.046  1.00  0.00     0.069 C 
HETATM   12  C14 UNL     1      19.909   0.668  51.276  1.00  0.00     0.035 C 
HETATM   13  C15 UNL     1      19.754   1.161  49.875  1.00  0.00     0.019 C 
HETATM   14  C16 UNL     1      20.741   1.722  49.144  1.00  0.00     0.084 C 
HETATM   15  N1  UNL     1      22.098   1.955  49.595  1.00  0.00    -0.380 N 
HETATM   16  C17 UNL     1      22.677   2.150  50.872  1.00  0.00     0.115 A 
HETATM   17  C18 UNL     1      21.642   2.391  51.975  1.00  0.00     0.176 C 
HETATM   18 CL1  UNL     1      20.568   3.673  51.478  1.00  0.00    -0.115 Cl
HETATM   19  H15 UNL     1      22.751   1.982  48.767  1.00  0.00     0.160 HD
ENDROOT
BRANCH   1  20
HETATM   20  C3  UNL     1      24.708   4.047  50.529  1.00  0.00     0.292 C 
HETATM   21  O2  UNL     1      25.979   3.998  50.408  1.00  0.00    -0.259 OA
BRANCH  20  22
HETATM   22  O1  UNL     1      24.150   5.295  50.296  1.00  0.00    -0.318 OA
BRANCH  22  23
HETATM   23  C2  UNL     1      24.208   5.835  48.969  1.00  0.00     0.174 C 
HETATM   24  C1  UNL     1      23.094   5.197  48.172  1.00  0.00     0.034 C 
ENDBRANCH  22  23
ENDBRANCH  20  22
ENDBRANCH   1  20
TORSDOF 3
ENDMDL
MODEL 9
REMARK VINA RESULT:      -7.0      6.744      9.277
REMARK  3 active torsions:
REMARK  status: ('A' for Active; 'I' for Inactive)
REMARK    1  A    between atoms: C2_2  and  O1_3 
REMARK    2  A    between atoms: O1_3  and  C3_4 
REMARK    3  A    between atoms: C3_4  and  C4_6 
ROOT
HETATM    1  C4  UNL     1      27.500   9.497  48.869  1.00  0.00     0.061 A 
HETATM    2  C5  UNL     1      26.999   8.314  49.381  1.00  0.00    -0.008 A 
HETATM    3  C6  UNL     1      25.930   7.533  50.070  1.00  0.00     0.021 C 
HETATM    4  C7  UNL     1      25.704   6.212  49.854  1.00  0.00    -0.025 A 
HETATM    5  C8  UNL     1      24.213   6.140  49.813  1.00  0.00     0.010 A 
HETATM    6  C9  UNL     1      23.478   5.076  49.539  1.00  0.00     0.001 A 
HETATM    7  C10 UNL     1      24.199   3.840  49.259  1.00  0.00    -0.001 A 
HETATM    8  C11 UNL     1      25.518   3.884  49.322  1.00  0.00     0.010 A 
HETATM    9  C12 UNL     1      26.449   4.966  49.639  1.00  0.00     0.184 A 
HETATM   10  O3  UNL     1      27.456   4.995  48.664  1.00  0.00    -0.340 OA
HETATM   11  C13 UNL     1      28.328   5.967  48.132  1.00  0.00     0.069 C 
HETATM   12  C14 UNL     1      29.551   5.406  48.256  1.00  0.00     0.035 C 
HETATM   13  C15 UNL     1      30.769   6.225  48.528  1.00  0.00     0.019 C 
HETATM   14  C16 UNL     1      30.754   7.497  48.981  1.00  0.00     0.084 C 
HETATM   15  N1  UNL     1      29.568   8.280  49.261  1.00  0.00    -0.380 N 
HETATM   16  C17 UNL     1      28.240   8.241  48.771  1.00  0.00     0.115 A 
HETATM   17  C18 UNL     1      28.077   7.348  47.538  1.00  0.00     0.176 C 
HETATM   18 CL1  UNL     1      29.263   7.805  46.342  1.00  0.00    -0.115 Cl
HETATM   19  H15 UNL     1      29.789   9.022  49.977  1.00  0.00     0.160 HD
ENDROOT
BRANCH   1  20
HETATM   20  C3  UNL     1      27.392  10.904  48.596  1.00  0.00     0.292 C 
HETATM   21  O2  UNL     1      26.308  11.546  48.810  1.00  0.00    -0.259 OA
BRANCH  20  22
HETATM   22  O1  UNL     1      28.429  11.671  48.087  1.00  0.00    -0.318 OA
BRANCH  22  23
HETATM   23  C2  UNL     1      29.194  12.477  48.993  1.00  0.00     0.174 C 
HETATM   24  C1  UNL     1      30.582  11.883  49.067  1.00  0.00     0.034 C 
ENDBRANCH  22  23
ENDBRANCH  20  22
ENDBRANCH   1  20
TORSDOF 3
ENDMDL
