MODEL 1
REMARK VINA RESULT:      -9.2      0.000      0.000
REMARK  5 active torsions:
REMARK  status: ('A' for Active; 'I' for Inactive)
REMARK    1  A    between atoms: C8_9  and  N2_10 
REMARK    2  A    between atoms: C8_9  and  N3_11 
REMARK    3  A    between atoms: N4_12  and  C9_13 
REMARK    4  A    between atoms: C10_14  and  P1_15 
REMARK    5  A    between atoms: P1_15  and  C11_16 
ROOT
HETATM    1  N1  UNL     1      25.076  -1.270  55.821  1.00  0.00    -0.191 NA
HETATM    2  C1  UNL     1      24.208  -1.016  55.106  1.00  0.00     0.099 C 
HETATM    3  C2  UNL     1      23.115  -0.690  54.235  1.00  0.00     0.045 A 
HETATM    4  C3  UNL     1      21.932  -1.371  54.381  1.00  0.00     0.023 A 
HETATM    5  C4  UNL     1      20.999  -0.920  53.465  1.00  0.00     0.014 A 
HETATM    6  C5  UNL     1      21.171   0.068  52.510  1.00  0.00     0.027 A 
HETATM    7  C6  UNL     1      22.420   0.713  52.436  1.00  0.00     0.021 A 
HETATM    8  C7  UNL     1      23.383   0.308  53.320  1.00  0.00     0.035 A 
HETATM    9  C8  UNL     1      22.309   1.719  51.385  1.00  0.00     0.312 C 
HETATM   10  C16 UNL     1      21.893   3.095  51.653  1.00  0.00     0.045 C 
HETATM   11  C17 UNL     1      20.772   3.794  51.807  1.00  0.00     0.002 C 
HETATM   12  C18 UNL     1      19.303   3.604  51.803  1.00  0.00     0.028 C 
HETATM   13  C19 UNL     1      18.486   2.538  51.650  1.00  0.00     0.240 C 
HETATM   14  N6  UNL     1      18.826   1.120  51.436  1.00  0.00     0.113 N 
HETATM   15  C20 UNL     1      19.872   0.184  51.757  1.00  0.00     0.388 A 
HETATM   16  O1  UNL     1      19.935   1.255  52.154  1.00  0.00    -0.140 OA
HETATM   17  H17 UNL     1      18.123   0.541  50.867  1.00  0.00     0.329 HD
ENDROOT
BRANCH   9  18
HETATM   18  N2  UNL     1      21.656   1.190  50.159  1.00  0.00     0.119 N 
HETATM   19  H4  UNL     1      20.844   1.757  49.908  1.00  0.00     0.317 HD
HETATM   20  H5  UNL     1      22.386   1.164  49.412  1.00  0.00     0.317 HD
ENDBRANCH   9  18
BRANCH   9  21
HETATM   21  N3  UNL     1      23.676   1.810  50.814  1.00  0.00    -0.140 NA
HETATM   22  N4  UNL     1      24.395   2.788  51.133  1.00  0.00    -0.165 NA
BRANCH  22  23
HETATM   23  C9  UNL     1      25.705   2.943  50.629  1.00  0.00     0.141 C 
HETATM   24  C10 UNL     1      26.801   2.541  51.262  1.00  0.00     0.029 C 
BRANCH  24  25
HETATM   25  P1  UNL     1      26.505   1.738  52.900  1.00  0.00    -0.069 P 
HETATM   26  H8  UNL     1      25.119   1.318  52.903  1.00  0.00     0.066 HD
BRANCH  25  27
HETATM   27  C11 UNL     1      27.653   0.334  53.128  1.00  0.00    -0.013 A 
HETATM   28  C12 UNL     1      28.967   0.491  53.525  1.00  0.00     0.015 A 
HETATM   29  C13 UNL     1      29.797  -0.608  53.683  1.00  0.00     0.020 A 
HETATM   30  C14 UNL     1      29.231  -1.837  53.423  1.00  0.00     0.116 A 
HETATM   31  N5  UNL     1      27.951  -1.982  53.036  1.00  0.00    -0.272 NA
HETATM   32  C15 UNL     1      27.114  -0.920  52.873  1.00  0.00     0.128 A 
ENDBRANCH  25  27
ENDBRANCH  24  25
ENDBRANCH  22  23
ENDBRANCH   9  21
TORSDOF 5
ENDMDL
MODEL 2
REMARK VINA RESULT:      -9.0      2.366      6.168
REMARK  5 active torsions:
REMARK  status: ('A' for Active; 'I' for Inactive)
REMARK    1  A    between atoms: C8_9  and  N2_10 
REMARK    2  A    between atoms: C8_9  and  N3_11 
REMARK    3  A    between atoms: N4_12  and  C9_13 
REMARK    4  A    between atoms: C10_14  and  P1_15 
REMARK    5  A    between atoms: P1_15  and  C11_16 
ROOT
HETATM    1  N1  UNL     1      18.598  -0.075  52.320  1.00  0.00    -0.191 NA
HETATM    2  C1  UNL     1      19.680  -0.124  52.714  1.00  0.00     0.099 C 
HETATM    3  C2  UNL     1      21.032  -0.205  53.188  1.00  0.00     0.045 A 
HETATM    4  C3  UNL     1      21.390  -1.272  53.975  1.00  0.00     0.023 A 
HETATM    5  C4  UNL     1      22.724  -1.183  54.331  1.00  0.00     0.014 A 
HETATM    6  C5  UNL     1      23.620  -0.188  53.981  1.00  0.00     0.027 A 
HETATM    7  C6  UNL     1      23.163   0.867  53.169  1.00  0.00     0.021 A 
HETATM    8  C7  UNL     1      21.850   0.832  52.785  1.00  0.00     0.035 A 
HETATM    9  C8  UNL     1      24.308   1.737  52.930  1.00  0.00     0.312 C 
HETATM   10  C16 UNL     1      25.198   1.570  51.781  1.00  0.00     0.045 C 
HETATM   11  C17 UNL     1      26.256   0.845  51.426  1.00  0.00     0.002 C 
HETATM   12  C18 UNL     1      27.147  -0.207  51.967  1.00  0.00     0.028 C 
HETATM   13  C19 UNL     1      27.199  -0.901  53.127  1.00  0.00     0.240 C 
HETATM   14  N6  UNL     1      26.312  -0.832  54.300  1.00  0.00     0.113 N 
HETATM   15  C20 UNL     1      24.938  -0.538  54.620  1.00  0.00     0.388 A 
HETATM   16  O1  UNL     1      25.275  -0.532  53.526  1.00  0.00    -0.140 OA
HETATM   17  H17 UNL     1      26.759  -1.051  55.252  1.00  0.00     0.329 HD
ENDROOT
BRANCH   9  18
HETATM   18  N2  UNL     1      25.079   2.016  54.169  1.00  0.00     0.119 N 
HETATM   19  H4  UNL     1      25.684   1.227  54.405  1.00  0.00     0.317 HD
HETATM   20  H5  UNL     1      25.606   2.904  54.007  1.00  0.00     0.317 HD
ENDBRANCH   9  18
BRANCH   9  21
HETATM   21  N3  UNL     1      23.721   3.095  52.796  1.00  0.00    -0.140 NA
HETATM   22  N4  UNL     1      24.184   3.863  51.918  1.00  0.00    -0.165 NA
BRANCH  22  23
HETATM   23  C9  UNL     1      23.676   5.168  51.732  1.00  0.00     0.141 C 
HETATM   24  C10 UNL     1      23.276   5.655  50.564  1.00  0.00     0.029 C 
BRANCH  24  25
HETATM   25  P1  UNL     1      23.425   4.486  49.140  1.00  0.00    -0.069 P 
HETATM   26  H8  UNL     1      24.750   3.906  49.227  1.00  0.00     0.066 HD
BRANCH  25  27
HETATM   27  C11 UNL     1      22.110   3.221  49.225  1.00  0.00    -0.013 A 
HETATM   28  C12 UNL     1      22.356   1.867  49.104  1.00  0.00     0.015 A 
HETATM   29  C13 UNL     1      21.321   0.947  49.175  1.00  0.00     0.020 A 
HETATM   30  C14 UNL     1      20.060   1.469  49.371  1.00  0.00     0.116 A 
HETATM   31  N5  UNL     1      19.828   2.787  49.487  1.00  0.00    -0.272 NA
HETATM   32  C15 UNL     1      20.826   3.712  49.420  1.00  0.00     0.128 A 
ENDBRANCH  25  27
ENDBRANCH  24  25
ENDBRANCH  22  23
ENDBRANCH   9  21
TORSDOF 5
ENDMDL
MODEL 3
REMARK VINA RESULT:      -8.7      1.432      1.652
REMARK  5 active torsions:
REMARK  status: ('A' for Active; 'I' for Inactive)
REMARK    1  A    between atoms: C8_9  and  N2_10 
REMARK    2  A    between atoms: C8_9  and  N3_11 
REMARK    3  A    between atoms: N4_12  and  C9_13 
REMARK    4  A    between atoms: C10_14  and  P1_15 
REMARK    5  A    between atoms: P1_15  and  C11_16 
ROOT
HETATM    1  N1  UNL     1      23.424  -1.476  55.742  1.00  0.00    -0.191 NA
HETATM    2  C1  UNL     1      22.595  -1.182  54.996  1.00  0.00     0.099 C 
HETATM    3  C2  UNL     1      21.551  -0.805  54.088  1.00  0.00     0.045 A 
HETATM    4  C3  UNL     1      20.329  -1.421  54.197  1.00  0.00     0.023 A 
HETATM    5  C4  UNL     1      19.452  -0.929  53.247  1.00  0.00     0.014 A 
HETATM    6  C5  UNL     1      19.708   0.041  52.293  1.00  0.00     0.027 A 
HETATM    7  C6  UNL     1      20.991   0.619  52.257  1.00  0.00     0.021 A 
HETATM    8  C7  UNL     1      21.901   0.171  53.175  1.00  0.00     0.035 A 
HETATM    9  C8  UNL     1      20.968   1.621  51.198  1.00  0.00     0.312 C 
HETATM   10  C16 UNL     1      20.617   3.019  51.443  1.00  0.00     0.045 C 
HETATM   11  C17 UNL     1      19.530   3.778  51.555  1.00  0.00     0.002 C 
HETATM   12  C18 UNL     1      18.054   3.665  51.503  1.00  0.00     0.028 C 
HETATM   13  C19 UNL     1      17.187   2.642  51.329  1.00  0.00     0.240 C 
HETATM   14  N6  UNL     1      17.459   1.207  51.135  1.00  0.00     0.113 N 
HETATM   15  C20 UNL     1      18.443   0.219  51.496  1.00  0.00     0.388 A 
HETATM   16  O1  UNL     1      18.549   1.289  51.889  1.00  0.00    -0.140 OA
HETATM   17  H17 UNL     1      16.746   0.661  50.545  1.00  0.00     0.329 HD
ENDROOT
BRANCH   9  18
HETATM   18  N2  UNL     1      20.330   1.118  49.953  1.00  0.00     0.119 N 
HETATM   19  H4  UNL     1      19.629   1.779  49.613  1.00  0.00     0.317 HD
HETATM   20  H5  UNL     1      21.097   0.943  49.267  1.00  0.00     0.317 HD
ENDBRANCH   9  18
BRANCH   9  21
HETATM   21  N3  UNL     1      22.357   1.636  50.672  1.00  0.00    -0.140 NA
HETATM   22  N4  UNL     1      23.037   2.682  50.807  1.00  0.00    -0.165 NA
BRANCH  22  23
HETATM   23  C9  UNL     1      24.365   2.771  50.332  1.00  0.00     0.141 C 
HETATM   24  C10 UNL     1      25.441   2.616  51.092  1.00  0.00     0.029 C 
BRANCH  24  25
HETATM   25  P1  UNL     1      25.095   2.264  52.873  1.00  0.00    -0.069 P 
HETATM   26  H8  UNL     1      23.943   1.386  52.898  1.00  0.00     0.066 HD
BRANCH  25  27
HETATM   27  C11 UNL     1      26.559   1.505  53.660  1.00  0.00    -0.013 A 
HETATM   28  C12 UNL     1      27.843   1.987  53.488  1.00  0.00     0.015 A 
HETATM   29  C13 UNL     1      28.921   1.374  54.108  1.00  0.00     0.020 A 
HETATM   30  C14 UNL     1      28.626   0.277  54.889  1.00  0.00     0.116 A 
HETATM   31  N5  UNL     1      27.375  -0.186  55.051  1.00  0.00    -0.272 NA
HETATM   32  C15 UNL     1      26.299   0.397  54.454  1.00  0.00     0.128 A 
ENDBRANCH  25  27
ENDBRANCH  24  25
ENDBRANCH  22  23
ENDBRANCH   9  21
TORSDOF 5
ENDMDL
MODEL 4
REMARK VINA RESULT:      -8.7      3.195      6.245
REMARK  5 active torsions:
REMARK  status: ('A' for Active; 'I' for Inactive)
REMARK    1  A    between atoms: C8_9  and  N2_10 
REMARK    2  A    between atoms: C8_9  and  N3_11 
REMARK    3  A    between atoms: N4_12  and  C9_13 
REMARK    4  A    between atoms: C10_14  and  P1_15 
REMARK    5  A    between atoms: P1_15  and  C11_16 
ROOT
HETATM    1  N1  UNL     1      18.672   0.317  51.997  1.00  0.00    -0.191 NA
HETATM    2  C1  UNL     1      19.729   0.192  52.440  1.00  0.00     0.099 C 
HETATM    3  C2  UNL     1      21.048   0.018  52.975  1.00  0.00     0.045 A 
HETATM    4  C3  UNL     1      21.302  -1.083  53.755  1.00  0.00     0.023 A 
HETATM    5  C4  UNL     1      22.619  -1.086  54.175  1.00  0.00     0.014 A 
HETATM    6  C5  UNL     1      23.592  -0.143  53.888  1.00  0.00     0.027 A 
HETATM    7  C6  UNL     1      23.240   0.953  53.078  1.00  0.00     0.021 A 
HETATM    8  C7  UNL     1      21.948   1.008  52.633  1.00  0.00     0.035 A 
HETATM    9  C8  UNL     1      24.448   1.753  52.911  1.00  0.00     0.312 C 
HETATM   10  C16 UNL     1      25.380   1.550  51.802  1.00  0.00     0.045 C 
HETATM   11  C17 UNL     1      26.406   0.767  51.481  1.00  0.00     0.002 C 
HETATM   12  C18 UNL     1      27.203  -0.349  52.041  1.00  0.00     0.028 C 
HETATM   13  C19 UNL     1      27.157  -1.065  53.187  1.00  0.00     0.240 C 
HETATM   14  N6  UNL     1      26.219  -0.961  54.319  1.00  0.00     0.113 N 
HETATM   15  C20 UNL     1      24.853  -0.588  54.580  1.00  0.00     0.388 A 
HETATM   16  O1  UNL     1      25.242  -0.583  53.504  1.00  0.00    -0.140 OA
HETATM   17  H17 UNL     1      26.607  -1.226  55.286  1.00  0.00     0.329 HD
ENDROOT
BRANCH   9  18
HETATM   18  N2  UNL     1      25.175   1.961  54.190  1.00  0.00     0.119 N 
HETATM   19  H4  UNL     1      24.881   2.832  54.636  1.00  0.00     0.317 HD
HETATM   20  H5  UNL     1      24.999   1.117  54.781  1.00  0.00     0.317 HD
ENDBRANCH   9  18
BRANCH   9  21
HETATM   21  N3  UNL     1      23.954   3.147  52.778  1.00  0.00    -0.140 NA
HETATM   22  N4  UNL     1      24.205   3.773  51.719  1.00  0.00    -0.165 NA
BRANCH  22  23
HETATM   23  C9  UNL     1      23.768   5.102  51.521  1.00  0.00     0.141 C 
HETATM   24  C10 UNL     1      24.174   5.882  50.527  1.00  0.00     0.029 C 
BRANCH  24  25
HETATM   25  P1  UNL     1      25.390   5.104  49.374  1.00  0.00    -0.069 P 
HETATM   26  H8  UNL     1      24.648   4.742  48.184  1.00  0.00     0.066 HD
BRANCH  25  27
HETATM   27  C11 UNL     1      26.749   6.271  49.012  1.00  0.00    -0.013 A 
HETATM   28  C12 UNL     1      27.886   5.913  48.314  1.00  0.00     0.015 A 
HETATM   29  C13 UNL     1      28.889   6.838  48.067  1.00  0.00     0.020 A 
HETATM   30  C14 UNL     1      28.674   8.109  48.554  1.00  0.00     0.116 A 
HETATM   31  N5  UNL     1      27.565   8.450  49.233  1.00  0.00    -0.272 NA
HETATM   32  C15 UNL     1      26.565   7.562  49.490  1.00  0.00     0.128 A 
ENDBRANCH  25  27
ENDBRANCH  24  25
ENDBRANCH  22  23
ENDBRANCH   9  21
TORSDOF 5
ENDMDL
MODEL 5
REMARK VINA RESULT:      -8.6      2.965      5.694
REMARK  5 active torsions:
REMARK  status: ('A' for Active; 'I' for Inactive)
REMARK    1  A    between atoms: C8_9  and  N2_10 
REMARK    2  A    between atoms: C8_9  and  N3_11 
REMARK    3  A    between atoms: N4_12  and  C9_13 
REMARK    4  A    between atoms: C10_14  and  P1_15 
REMARK    5  A    between atoms: P1_15  and  C11_16 
ROOT
HETATM    1  N1  UNL     1      26.308  -1.465  52.701  1.00  0.00    -0.191 NA
HETATM    2  C1  UNL     1      25.851  -0.407  52.709  1.00  0.00     0.099 C 
HETATM    3  C2  UNL     1      25.305   0.919  52.714  1.00  0.00     0.045 A 
HETATM    4  C3  UNL     1      25.617   1.756  53.757  1.00  0.00     0.023 A 
HETATM    5  C4  UNL     1      25.008   2.986  53.589  1.00  0.00     0.014 A 
HETATM    6  C5  UNL     1      24.188   3.380  52.546  1.00  0.00     0.027 A 
HETATM    7  C6  UNL     1      23.924   2.454  51.519  1.00  0.00     0.021 A 
HETATM    8  C7  UNL     1      24.501   1.219  51.632  1.00  0.00     0.035 A 
HETATM    9  C8  UNL     1      23.077   3.138  50.548  1.00  0.00     0.312 C 
HETATM   10  C16 UNL     1      23.622   3.872  49.407  1.00  0.00     0.045 C 
HETATM   11  C17 UNL     1      24.122   5.074  49.130  1.00  0.00     0.002 C 
HETATM   12  C18 UNL     1      24.424   6.361  49.798  1.00  0.00     0.028 C 
HETATM   13  C19 UNL     1      24.312   6.821  51.064  1.00  0.00     0.240 C 
HETATM   14  N6  UNL     1      23.830   6.129  52.273  1.00  0.00     0.113 N 
HETATM   15  C20 UNL     1      23.772   4.800  52.825  1.00  0.00     0.388 A 
HETATM   16  O1  UNL     1      24.290   4.969  51.819  1.00  0.00    -0.140 OA
HETATM   17  H17 UNL     1      23.359   6.742  53.018  1.00  0.00     0.329 HD
ENDROOT
BRANCH   9  18
HETATM   18  N2  UNL     1      21.969   3.891  51.190  1.00  0.00     0.119 N 
HETATM   19  H4  UNL     1      21.410   3.276  51.786  1.00  0.00     0.317 HD
HETATM   20  H5  UNL     1      22.402   4.685  51.712  1.00  0.00     0.317 HD
ENDBRANCH   9  18
BRANCH   9  21
HETATM   21  N3  UNL     1      22.230   2.062  49.973  1.00  0.00    -0.140 NA
HETATM   22  N4  UNL     1      20.993   2.257  49.885  1.00  0.00    -0.165 NA
BRANCH  22  23
HETATM   23  C9  UNL     1      20.124   1.280  49.350  1.00  0.00     0.141 C 
HETATM   24  C10 UNL     1      19.116   0.731  50.017  1.00  0.00     0.029 C 
BRANCH  24  25
HETATM   25  P1  UNL     1      18.905   1.338  51.750  1.00  0.00    -0.069 P 
HETATM   26  H8  UNL     1      17.498   1.195  52.062  1.00  0.00     0.066 HD
BRANCH  25  27
HETATM   27  C11 UNL     1      19.966   0.377  52.886  1.00  0.00    -0.013 A 
HETATM   28  C12 UNL     1      21.211   0.810  53.303  1.00  0.00     0.015 A 
HETATM   29  C13 UNL     1      21.977   0.041  54.166  1.00  0.00     0.020 A 
HETATM   30  C14 UNL     1      21.421  -1.154  54.568  1.00  0.00     0.116 A 
HETATM   31  N5  UNL     1      20.211  -1.568  54.157  1.00  0.00    -0.272 NA
HETATM   32  C15 UNL     1      19.437  -0.835  53.310  1.00  0.00     0.128 A 
ENDBRANCH  25  27
ENDBRANCH  24  25
ENDBRANCH  22  23
ENDBRANCH   9  21
TORSDOF 5
ENDMDL
MODEL 6
REMARK VINA RESULT:      -8.2      3.620      6.444
REMARK  5 active torsions:
REMARK  status: ('A' for Active; 'I' for Inactive)
REMARK    1  A    between atoms: C8_9  and  N2_10 
REMARK    2  A    between atoms: C8_9  and  N3_11 
REMARK    3  A    between atoms: N4_12  and  C9_13 
REMARK    4  A    between atoms: C10_14  and  P1_15 
REMARK    5  A    between atoms: P1_15  and  C11_16 
ROOT
HETATM    1  N1  UNL     1      20.082   3.257  46.822  1.00  0.00    -0.191 NA
HETATM    2  C1  UNL     1      20.619   2.874  47.768  1.00  0.00     0.099 C 
HETATM    3  C2  UNL     1      21.299   2.380  48.930  1.00  0.00     0.045 A 
HETATM    4  C3  UNL     1      20.958   1.141  49.415  1.00  0.00     0.023 A 
HETATM    5  C4  UNL     1      21.717   0.833  50.530  1.00  0.00     0.014 A 
HETATM    6  C5  UNL     1      22.692   1.617  51.123  1.00  0.00     0.027 A 
HETATM    7  C6  UNL     1      22.975   2.873  50.554  1.00  0.00     0.021 A 
HETATM    8  C7  UNL     1      22.254   3.232  49.447  1.00  0.00     0.035 A 
HETATM    9  C8  UNL     1      24.052   3.457  51.346  1.00  0.00     0.312 C 
HETATM   10  C16 UNL     1      25.464   3.267  51.016  1.00  0.00     0.045 C 
HETATM   11  C17 UNL     1      26.429   2.371  51.206  1.00  0.00     0.002 C 
HETATM   12  C18 UNL     1      26.648   1.054  51.849  1.00  0.00     0.028 C 
HETATM   13  C19 UNL     1      25.861   0.186  52.523  1.00  0.00     0.240 C 
HETATM   14  N6  UNL     1      24.425   0.277  52.843  1.00  0.00     0.113 N 
HETATM   15  C20 UNL     1      23.217   0.847  52.306  1.00  0.00     0.388 A 
HETATM   16  O1  UNL     1      24.196   0.951  51.722  1.00  0.00    -0.140 OA
HETATM   17  H17 UNL     1      24.107  -0.203  53.750  1.00  0.00     0.329 HD
ENDROOT
BRANCH   9  18
HETATM   18  N2  UNL     1      23.820   3.323  52.808  1.00  0.00     0.119 N 
HETATM   19  H4  UNL     1      24.576   2.796  53.248  1.00  0.00     0.317 HD
HETATM   20  H5  UNL     1      23.717   4.290  53.189  1.00  0.00     0.317 HD
ENDBRANCH   9  18
BRANCH   9  21
HETATM   21  N3  UNL     1      23.811   4.921  51.277  1.00  0.00    -0.140 NA
HETATM   22  N4  UNL     1      24.768   5.671  50.966  1.00  0.00    -0.165 NA
BRANCH  22  23
HETATM   23  C9  UNL     1      24.614   7.073  50.881  1.00  0.00     0.141 C 
HETATM   24  C10 UNL     1      24.768   7.774  49.764  1.00  0.00     0.029 C 
BRANCH  24  25
HETATM   25  P1  UNL     1      25.211   6.778  48.272  1.00  0.00    -0.069 P 
HETATM   26  H8  UNL     1      24.735   7.527  47.127  1.00  0.00     0.066 HD
BRANCH  25  27
HETATM   27  C11 UNL     1      27.016   6.502  48.215  1.00  0.00    -0.013 A 
HETATM   28  C12 UNL     1      27.918   7.481  47.846  1.00  0.00     0.015 A 
HETATM   29  C13 UNL     1      29.280   7.219  47.818  1.00  0.00     0.020 A 
HETATM   30  C14 UNL     1      29.658   5.944  48.178  1.00  0.00     0.116 A 
HETATM   31  N5  UNL     1      28.775   4.996  48.536  1.00  0.00    -0.272 NA
HETATM   32  C15 UNL     1      27.433   5.226  48.571  1.00  0.00     0.128 A 
ENDBRANCH  25  27
ENDBRANCH  24  25
ENDBRANCH  22  23
ENDBRANCH   9  21
TORSDOF 5
ENDMDL
MODEL 7
REMARK VINA RESULT:      -8.1      3.142      5.925
REMARK  5 active torsions:
REMARK  status: ('A' for Active; 'I' for Inactive)
REMARK    1  A    between atoms: C8_9  and  N2_10 
REMARK    2  A    between atoms: C8_9  and  N3_11 
REMARK    3  A    between atoms: N4_12  and  C9_13 
REMARK    4  A    between atoms: C10_14  and  P1_15 
REMARK    5  A    between atoms: P1_15  and  C11_16 
ROOT
HETATM    1  N1  UNL     1      27.412   0.621  54.979  1.00  0.00    -0.191 NA
HETATM    2  C1  UNL     1      26.420   0.574  54.393  1.00  0.00     0.099 C 
HETATM    3  C2  UNL     1      25.173   0.519  53.686  1.00  0.00     0.045 A 
HETATM    4  C3  UNL     1      24.345  -0.557  53.894  1.00  0.00     0.023 A 
HETATM    5  C4  UNL     1      23.195  -0.435  53.135  1.00  0.00     0.014 A 
HETATM    6  C5  UNL     1      22.867   0.594  52.270  1.00  0.00     0.027 A 
HETATM    7  C6  UNL     1      23.778   1.657  52.122  1.00  0.00     0.021 A 
HETATM    8  C7  UNL     1      24.935   1.591  52.849  1.00  0.00     0.035 A 
HETATM    9  C8  UNL     1      23.169   2.603  51.194  1.00  0.00     0.312 C 
HETATM   10  C16 UNL     1      22.328   3.714  51.640  1.00  0.00     0.045 C 
HETATM   11  C17 UNL     1      21.064   3.942  51.986  1.00  0.00     0.002 C 
HETATM   12  C18 UNL     1      19.776   3.225  52.126  1.00  0.00     0.028 C 
HETATM   13  C19 UNL     1      19.383   1.942  51.961  1.00  0.00     0.240 C 
HETATM   14  N6  UNL     1      20.175   0.762  51.572  1.00  0.00     0.113 N 
HETATM   15  C20 UNL     1      21.521   0.262  51.681  1.00  0.00     0.388 A 
HETATM   16  O1  UNL     1      21.250   1.259  52.172  1.00  0.00    -0.140 OA
HETATM   17  H17 UNL     1      19.655  -0.005  51.029  1.00  0.00     0.329 HD
ENDROOT
BRANCH   9  18
HETATM   18  N2  UNL     1      22.585   1.935  50.001  1.00  0.00     0.119 N 
HETATM   19  H4  UNL     1      22.066   2.604  49.429  1.00  0.00     0.317 HD
HETATM   20  H5  UNL     1      23.374   1.481  49.490  1.00  0.00     0.317 HD
ENDBRANCH   9  18
BRANCH   9  21
HETATM   21  N3  UNL     1      24.318   3.221  50.486  1.00  0.00    -0.140 NA
HETATM   22  N4  UNL     1      24.131   4.293  49.861  1.00  0.00    -0.165 NA
BRANCH  22  23
HETATM   23  C9  UNL     1      25.177   4.939  49.164  1.00  0.00     0.141 C 
HETATM   24  C10 UNL     1      25.600   6.169  49.425  1.00  0.00     0.029 C 
BRANCH  24  25
HETATM   25  P1  UNL     1      24.712   7.024  50.802  1.00  0.00    -0.069 P 
HETATM   26  H8  UNL     1      25.620   8.033  51.307  1.00  0.00     0.066 HD
BRANCH  25  27
HETATM   27  C11 UNL     1      23.149   7.745  50.189  1.00  0.00    -0.013 A 
HETATM   28  C12 UNL     1      21.906   7.352  50.648  1.00  0.00     0.015 A 
HETATM   29  C13 UNL     1      20.749   7.931  50.149  1.00  0.00     0.020 A 
HETATM   30  C14 UNL     1      20.924   8.903  49.188  1.00  0.00     0.116 A 
HETATM   31  N5  UNL     1      22.136   9.280  48.747  1.00  0.00    -0.272 NA
HETATM   32  C15 UNL     1      23.288   8.728  49.219  1.00  0.00     0.128 A 
ENDBRANCH  25  27
ENDBRANCH  24  25
ENDBRANCH  22  23
ENDBRANCH   9  21
TORSDOF 5
ENDMDL
MODEL 8
REMARK VINA RESULT:      -8.1      3.145      7.305
REMARK  5 active torsions:
REMARK  status: ('A' for Active; 'I' for Inactive)
REMARK    1  A    between atoms: C8_9  and  N2_10 
REMARK    2  A    between atoms: C8_9  and  N3_11 
REMARK    3  A    between atoms: N4_12  and  C9_13 
REMARK    4  A    between atoms: C10_14  and  P1_15 
REMARK    5  A    between atoms: P1_15  and  C11_16 
ROOT
HETATM    1  N1  UNL     1      24.945   8.943  48.550  1.00  0.00    -0.191 NA
HETATM    2  C1  UNL     1      25.159   7.844  48.827  1.00  0.00     0.099 C 
HETATM    3  C2  UNL     1      25.444   6.486  49.189  1.00  0.00     0.045 A 
HETATM    4  C3  UNL     1      26.636   5.934  48.788  1.00  0.00     0.023 A 
HETATM    5  C4  UNL     1      26.737   4.628  49.230  1.00  0.00     0.014 A 
HETATM    6  C5  UNL     1      25.806   3.919  49.970  1.00  0.00     0.027 A 
HETATM    7  C6  UNL     1      24.612   4.568  50.338  1.00  0.00     0.021 A 
HETATM    8  C7  UNL     1      24.457   5.864  49.928  1.00  0.00     0.035 A 
HETATM    9  C8  UNL     1      23.845   3.614  51.131  1.00  0.00     0.312 C 
HETATM   10  C16 UNL     1      23.957   3.531  52.587  1.00  0.00     0.045 C 
HETATM   11  C17 UNL     1      24.738   2.969  53.505  1.00  0.00     0.002 C 
HETATM   12  C18 UNL     1      25.940   2.109  53.604  1.00  0.00     0.028 C 
HETATM   13  C19 UNL     1      26.780   1.548  52.705  1.00  0.00     0.240 C 
HETATM   14  N6  UNL     1      26.769   1.631  51.234  1.00  0.00     0.113 N 
HETATM   15  C20 UNL     1      26.375   2.542  50.191  1.00  0.00     0.388 A 
HETATM   16  O1  UNL     1      26.263   2.857  51.286  1.00  0.00    -0.140 OA
HETATM   17  H17 UNL     1      27.157   0.780  50.705  1.00  0.00     0.329 HD
ENDROOT
BRANCH   9  18
HETATM   18  N2  UNL     1      23.813   2.260  50.518  1.00  0.00     0.119 N 
HETATM   19  H4  UNL     1      23.064   1.696  50.925  1.00  0.00     0.317 HD
HETATM   20  H5  UNL     1      23.713   2.395  49.487  1.00  0.00     0.317 HD
ENDBRANCH   9  18
BRANCH   9  21
HETATM   21  N3  UNL     1      22.428   3.953  50.849  1.00  0.00    -0.140 NA
HETATM   22  N4  UNL     1      21.540   3.499  51.612  1.00  0.00    -0.165 NA
BRANCH  22  23
HETATM   23  C9  UNL     1      20.171   3.778  51.406  1.00  0.00     0.141 C 
HETATM   24  C10 UNL     1      19.309   2.929  50.862  1.00  0.00     0.029 C 
BRANCH  24  25
HETATM   25  P1  UNL     1      20.026   1.299  50.368  1.00  0.00    -0.069 P 
HETATM   26  H8  UNL     1      21.196   1.595  49.567  1.00  0.00     0.066 HD
BRANCH  25  27
HETATM   27  C11 UNL     1      20.436   0.317  51.854  1.00  0.00    -0.013 A 
HETATM   28  C12 UNL     1      21.733   0.089  52.273  1.00  0.00     0.015 A 
HETATM   29  C13 UNL     1      21.990  -0.665  53.408  1.00  0.00     0.020 A 
HETATM   30  C14 UNL     1      20.886  -1.156  54.071  1.00  0.00     0.116 A 
HETATM   31  N5  UNL     1      19.628  -0.930  53.657  1.00  0.00    -0.272 NA
HETATM   32  C15 UNL     1      19.347  -0.195  52.546  1.00  0.00     0.128 A 
ENDBRANCH  25  27
ENDBRANCH  24  25
ENDBRANCH  22  23
ENDBRANCH   9  21
TORSDOF 5
ENDMDL
MODEL 9
REMARK VINA RESULT:      -8.0      3.263      7.173
REMARK  5 active torsions:
REMARK  status: ('A' for Active; 'I' for Inactive)
REMARK    1  A    between atoms: C8_9  and  N2_10 
REMARK    2  A    between atoms: C8_9  and  N3_11 
REMARK    3  A    between atoms: N4_12  and  C9_13 
REMARK    4  A    between atoms: C10_14  and  P1_15 
REMARK    5  A    between atoms: P1_15  and  C11_16 
ROOT
HETATM    1  N1  UNL     1      20.144  -1.679  53.874  1.00  0.00    -0.191 NA
HETATM    2  C1  UNL     1      21.047  -0.979  53.718  1.00  0.00     0.099 C 
HETATM    3  C2  UNL     1      22.180  -0.126  53.507  1.00  0.00     0.045 A 
HETATM    4  C3  UNL     1      23.400  -0.516  54.003  1.00  0.00     0.023 A 
HETATM    5  C4  UNL     1      24.368   0.424  53.701  1.00  0.00     0.014 A 
HETATM    6  C5  UNL     1      24.198   1.609  53.006  1.00  0.00     0.027 A 
HETATM    7  C6  UNL     1      22.911   1.926  52.534  1.00  0.00     0.021 A 
HETATM    8  C7  UNL     1      21.911   1.031  52.803  1.00  0.00     0.035 A 
HETATM    9  C8  UNL     1      23.028   3.190  51.816  1.00  0.00     0.312 C 
HETATM   10  C16 UNL     1      23.302   3.259  50.381  1.00  0.00     0.045 C 
HETATM   11  C17 UNL     1      24.342   3.219  49.553  1.00  0.00     0.002 C 
HETATM   12  C18 UNL     1      25.816   3.080  49.584  1.00  0.00     0.028 C 
HETATM   13  C19 UNL     1      26.730   2.902  50.564  1.00  0.00     0.240 C 
HETATM   14  N6  UNL     1      26.531   2.765  52.017  1.00  0.00     0.113 N 
HETATM   15  C20 UNL     1      25.544   2.282  52.947  1.00  0.00     0.388 A 
HETATM   16  O1  UNL     1      25.356   2.179  51.823  1.00  0.00    -0.140 OA
HETATM   17  H17 UNL     1      27.328   3.121  52.644  1.00  0.00     0.329 HD
ENDROOT
BRANCH   9  18
HETATM   18  N2  UNL     1      23.829   4.195  52.563  1.00  0.00     0.119 N 
HETATM   19  H4  UNL     1      23.313   5.072  52.658  1.00  0.00     0.317 HD
HETATM   20  H5  UNL     1      24.078   3.765  53.482  1.00  0.00     0.317 HD
ENDBRANCH   9  18
BRANCH   9  21
HETATM   21  N3  UNL     1      21.714   3.852  52.013  1.00  0.00    -0.140 NA
HETATM   22  N4  UNL     1      20.923   3.914  51.041  1.00  0.00    -0.165 NA
BRANCH  22  23
HETATM   23  C9  UNL     1      19.656   4.529  51.153  1.00  0.00     0.141 C 
HETATM   24  C10 UNL     1      18.508   3.932  50.856  1.00  0.00     0.029 C 
BRANCH  24  25
HETATM   25  P1  UNL     1      18.665   2.188  50.266  1.00  0.00    -0.069 P 
HETATM   26  H8  UNL     1      20.057   1.825  50.435  1.00  0.00     0.066 HD
BRANCH  25  27
HETATM   27  C11 UNL     1      17.547   1.100  51.216  1.00  0.00    -0.013 A 
HETATM   28  C12 UNL     1      17.874  -0.196  51.567  1.00  0.00     0.015 A 
HETATM   29  C13 UNL     1      16.988  -0.981  52.289  1.00  0.00     0.020 A 
HETATM   30  C14 UNL     1      15.788  -0.390  52.624  1.00  0.00     0.116 A 
HETATM   31  N5  UNL     1      15.478   0.871  52.278  1.00  0.00    -0.272 NA
HETATM   32  C15 UNL     1      16.328   1.664  51.569  1.00  0.00     0.128 A 
ENDBRANCH  25  27
ENDBRANCH  24  25
ENDBRANCH  22  23
ENDBRANCH   9  21
TORSDOF 5
ENDMDL
