MODEL 1
REMARK VINA RESULT:      -7.8      0.000      0.000
REMARK  4 active torsions:
REMARK  status: ('A' for Active; 'I' for Inactive)
REMARK    1  A    between atoms: O1_2  and  C2_3 
REMARK    2  A    between atoms: C6_9  and  N3_10 
REMARK    3  A    between atoms: N3_10  and  C7_11 
REMARK    4  A    between atoms: C14_20  and  O2_21 
ROOT
HETATM    1  C2  UNL     1      20.467   0.291  52.566  1.00  0.00     0.104 A 
HETATM    2  C3  UNL     1      20.558  -0.429  53.660  1.00  0.00     0.078 A 
HETATM    3  C4  UNL     1      21.886  -0.720  54.252  1.00  0.00     0.099 A 
HETATM    4  N1  UNL     1      22.243  -1.392  55.307  1.00  0.00    -0.235 NA
HETATM    5  C5  UNL     1      23.663  -1.473  55.594  1.00  0.00     0.237 A 
HETATM    6  N2  UNL     1      24.765  -1.035  55.064  1.00  0.00    -0.218 NA
HETATM    7  C6  UNL     1      24.739  -0.236  53.859  1.00  0.00     0.168 A 
HETATM    8  S1  UNL     1      23.232   0.014  53.306  1.00  0.00    -0.071 SA
HETATM    9  C13 UNL     1      22.727   0.940  51.851  1.00  0.00     0.088 A 
HETATM   10  C14 UNL     1      21.383   0.953  51.675  1.00  0.00     0.107 A 
ENDROOT
BRANCH   7  11
HETATM   11  N3  UNL     1      25.792   0.345  53.119  1.00  0.00    -0.335 N 
HETATM   12  H6  UNL     1      25.643   1.022  52.378  1.00  0.00     0.168 HD
BRANCH  11  13
HETATM   13  C7  UNL     1      27.172   0.072  53.296  1.00  0.00     0.036 A 
HETATM   14  C8  UNL     1      28.058   1.090  53.665  1.00  0.00     0.029 A 
HETATM   15  C9  UNL     1      29.388   0.758  53.815  1.00  0.00     0.005 A 
HETATM   16  C10 UNL     1      29.889  -0.517  53.622  1.00  0.00     0.042 A 
HETATM   17  C11 UNL     1      28.987  -1.499  53.258  1.00  0.00     0.118 A 
HETATM   18  F1  UNL     1      29.440  -2.768  53.057  1.00  0.00    -0.206 F 
HETATM   19  C12 UNL     1      27.649  -1.204  53.099  1.00  0.00     0.071 A 
ENDBRANCH  11  13
ENDBRANCH   7  11
BRANCH  10  20
HETATM   20  O2  UNL     1      21.073   1.679  50.542  1.00  0.00    -0.353 OA
HETATM   21  C15 UNL     1      21.229   1.065  49.282  1.00  0.00     0.210 C 
ENDBRANCH  10  20
BRANCH   1  22
HETATM   22  O1  UNL     1      19.154   0.456  52.165  1.00  0.00    -0.353 OA
HETATM   23  C1  UNL     1      18.173  -0.509  52.020  1.00  0.00     0.210 C 
ENDBRANCH   1  22
TORSDOF 4
ENDMDL
MODEL 2
REMARK VINA RESULT:      -7.6      2.055      3.490
REMARK  4 active torsions:
REMARK  status: ('A' for Active; 'I' for Inactive)
REMARK    1  A    between atoms: O1_2  and  C2_3 
REMARK    2  A    between atoms: C6_9  and  N3_10 
REMARK    3  A    between atoms: N3_10  and  C7_11 
REMARK    4  A    between atoms: C14_20  and  O2_21 
ROOT
HETATM    1  C2  UNL     1      21.683   0.659  51.459  1.00  0.00     0.104 A 
HETATM    2  C3  UNL     1      22.094   1.506  50.544  1.00  0.00     0.078 A 
HETATM    3  C4  UNL     1      23.451   2.099  50.633  1.00  0.00     0.099 A 
HETATM    4  N1  UNL     1      24.086   2.943  49.873  1.00  0.00    -0.235 NA
HETATM    5  C5  UNL     1      25.432   3.312  50.271  1.00  0.00     0.237 A 
HETATM    6  N2  UNL     1      26.249   3.022  51.238  1.00  0.00    -0.218 NA
HETATM    7  C6  UNL     1      25.862   2.097  52.280  1.00  0.00     0.168 A 
HETATM    8  S1  UNL     1      24.359   1.515  52.074  1.00  0.00    -0.071 SA
HETATM    9  C13 UNL     1      23.472   0.350  53.116  1.00  0.00     0.088 A 
HETATM   10  C14 UNL     1      22.227   0.074  52.657  1.00  0.00     0.107 A 
ENDROOT
BRANCH   7  11
HETATM   11  N3  UNL     1      26.575   1.633  53.408  1.00  0.00    -0.335 N 
HETATM   12  H6  UNL     1      26.409   1.976  54.348  1.00  0.00     0.168 HD
BRANCH  11  13
HETATM   13  C7  UNL     1      27.597   0.651  53.391  1.00  0.00     0.036 A 
HETATM   14  C8  UNL     1      28.925   1.000  53.659  1.00  0.00     0.029 A 
HETATM   15  C9  UNL     1      29.870  -0.004  53.620  1.00  0.00     0.005 A 
HETATM   16  C10 UNL     1      29.578  -1.325  53.335  1.00  0.00     0.042 A 
HETATM   17  C11 UNL     1      28.257  -1.636  53.075  1.00  0.00     0.118 A 
HETATM   18  F1  UNL     1      27.928  -2.926  52.787  1.00  0.00    -0.206 F 
HETATM   19  C12 UNL     1      27.283  -0.659  53.104  1.00  0.00     0.071 A 
ENDBRANCH  11  13
ENDBRANCH   7  11
BRANCH  10  20
HETATM   20  O2  UNL     1      21.610  -0.823  53.505  1.00  0.00    -0.353 OA
HETATM   21  C15 UNL     1      22.108  -0.965  54.817  1.00  0.00     0.210 C 
ENDBRANCH  10  20
BRANCH   1  22
HETATM   22  O1  UNL     1      20.398   0.214  51.210  1.00  0.00    -0.353 OA
HETATM   23  C1  UNL     1      19.324   0.930  50.712  1.00  0.00     0.210 C 
ENDBRANCH   1  22
TORSDOF 4
ENDMDL
MODEL 3
REMARK VINA RESULT:      -7.3      2.575      3.533
REMARK  4 active torsions:
REMARK  status: ('A' for Active; 'I' for Inactive)
REMARK    1  A    between atoms: O1_2  and  C2_3 
REMARK    2  A    between atoms: C6_9  and  N3_10 
REMARK    3  A    between atoms: N3_10  and  C7_11 
REMARK    4  A    between atoms: C14_20  and  O2_21 
ROOT
HETATM    1  C2  UNL     1      23.166   2.821  49.593  1.00  0.00     0.104 A 
HETATM    2  C3  UNL     1      22.339   1.932  50.093  1.00  0.00     0.078 A 
HETATM    3  C4  UNL     1      22.720   1.156  51.299  1.00  0.00     0.099 A 
HETATM    4  N1  UNL     1      22.098   0.238  51.978  1.00  0.00    -0.235 NA
HETATM    5  C5  UNL     1      22.784  -0.316  53.131  1.00  0.00     0.237 A 
HETATM    6  N2  UNL     1      23.927  -0.148  53.726  1.00  0.00    -0.218 NA
HETATM    7  C6  UNL     1      24.884   0.815  53.229  1.00  0.00     0.168 A 
HETATM    8  S1  UNL     1      24.356   1.599  51.909  1.00  0.00    -0.071 SA
HETATM    9  C13 UNL     1      25.206   2.869  50.962  1.00  0.00     0.088 A 
HETATM   10  C14 UNL     1      24.479   3.317  49.910  1.00  0.00     0.107 A 
ENDROOT
BRANCH   7  11
HETATM   11  N3  UNL     1      26.165   1.168  53.709  1.00  0.00    -0.335 N 
HETATM   12  H6  UNL     1      26.360   2.047  54.177  1.00  0.00     0.168 HD
BRANCH  11  13
HETATM   13  C7  UNL     1      27.333   0.370  53.606  1.00  0.00     0.036 A 
HETATM   14  C8  UNL     1      28.589   0.903  53.913  1.00  0.00     0.029 A 
HETATM   15  C9  UNL     1      29.684   0.074  53.786  1.00  0.00     0.005 A 
HETATM   16  C10 UNL     1      29.607  -1.245  53.377  1.00  0.00     0.042 A 
HETATM   17  C11 UNL     1      28.351  -1.740  53.082  1.00  0.00     0.118 A 
HETATM   18  F1  UNL     1      28.232  -3.034  52.672  1.00  0.00    -0.206 F 
HETATM   19  C12 UNL     1      27.232  -0.940  53.196  1.00  0.00     0.071 A 
ENDBRANCH  11  13
ENDBRANCH   7  11
BRANCH  10  20
HETATM   20  O2  UNL     1      25.194   4.285  49.233  1.00  0.00    -0.353 OA
HETATM   21  C15 UNL     1      25.439   5.517  49.876  1.00  0.00     0.210 C 
ENDBRANCH  10  20
BRANCH   1  22
HETATM   22  O1  UNL     1      22.640   3.441  48.474  1.00  0.00    -0.353 OA
HETATM   23  C1  UNL     1      21.881   4.596  48.410  1.00  0.00     0.210 C 
ENDBRANCH   1  22
TORSDOF 4
ENDMDL
MODEL 4
REMARK VINA RESULT:      -7.2      4.414      5.540
REMARK  4 active torsions:
REMARK  status: ('A' for Active; 'I' for Inactive)
REMARK    1  A    between atoms: O1_2  and  C2_3 
REMARK    2  A    between atoms: C6_9  and  N3_10 
REMARK    3  A    between atoms: N3_10  and  C7_11 
REMARK    4  A    between atoms: C14_20  and  O2_21 
ROOT
HETATM    1  C2  UNL     1      23.305  -0.312  53.356  1.00  0.00     0.104 A 
HETATM    2  C3  UNL     1      24.541  -0.370  53.797  1.00  0.00     0.078 A 
HETATM    3  C4  UNL     1      25.581   0.515  53.218  1.00  0.00     0.099 A 
HETATM    4  N1  UNL     1      26.850   0.652  53.472  1.00  0.00    -0.235 NA
HETATM    5  C5  UNL     1      27.580   1.637  52.695  1.00  0.00     0.237 A 
HETATM    6  N2  UNL     1      27.314   2.487  51.748  1.00  0.00    -0.218 NA
HETATM    7  C6  UNL     1      25.974   2.603  51.215  1.00  0.00     0.168 A 
HETATM    8  S1  UNL     1      24.926   1.586  51.926  1.00  0.00    -0.071 SA
HETATM    9  C13 UNL     1      23.173   1.387  51.584  1.00  0.00     0.088 A 
HETATM   10  C14 UNL     1      22.588   0.444  52.363  1.00  0.00     0.107 A 
ENDROOT
BRANCH   7  11
HETATM   11  N3  UNL     1      25.457   3.446  50.207  1.00  0.00    -0.335 N 
HETATM   12  H6  UNL     1      24.530   3.334  49.811  1.00  0.00     0.168 HD
BRANCH  11  13
HETATM   13  C7  UNL     1      26.141   4.539  49.615  1.00  0.00     0.036 A 
HETATM   14  C8  UNL     1      25.596   5.827  49.657  1.00  0.00     0.029 A 
HETATM   15  C9  UNL     1      26.310   6.843  49.056  1.00  0.00     0.005 A 
HETATM   16  C10 UNL     1      27.526   6.658  48.423  1.00  0.00     0.042 A 
HETATM   17  C11 UNL     1      28.035   5.374  48.400  1.00  0.00     0.118 A 
HETATM   18  F1  UNL     1      29.229   5.149  47.783  1.00  0.00    -0.206 F 
HETATM   19  C12 UNL     1      27.349   4.332  48.989  1.00  0.00     0.071 A 
ENDBRANCH  11  13
ENDBRANCH   7  11
BRANCH  10  20
HETATM   20  O2  UNL     1      21.248   0.348  52.044  1.00  0.00    -0.353 OA
HETATM   21  C15 UNL     1      20.856   0.562  50.706  1.00  0.00     0.210 C 
ENDBRANCH  10  20
BRANCH   1  22
HETATM   22  O1  UNL     1      22.481  -1.207  54.012  1.00  0.00    -0.353 OA
HETATM   23  C1  UNL     1      22.529  -1.606  55.336  1.00  0.00     0.210 C 
ENDBRANCH   1  22
TORSDOF 4
ENDMDL
MODEL 5
REMARK VINA RESULT:      -7.1      3.638      7.223
REMARK  4 active torsions:
REMARK  status: ('A' for Active; 'I' for Inactive)
REMARK    1  A    between atoms: O1_2  and  C2_3 
REMARK    2  A    between atoms: C6_9  and  N3_10 
REMARK    3  A    between atoms: N3_10  and  C7_11 
REMARK    4  A    between atoms: C14_20  and  O2_21 
ROOT
HETATM    1  C2  UNL     1      27.322   0.824  53.478  1.00  0.00     0.104 A 
HETATM    2  C3  UNL     1      26.986  -0.042  54.407  1.00  0.00     0.078 A 
HETATM    3  C4  UNL     1      25.563  -0.416  54.597  1.00  0.00     0.099 A 
HETATM    4  N1  UNL     1      24.979  -1.230  55.426  1.00  0.00    -0.235 NA
HETATM    5  C5  UNL     1      23.536  -1.356  55.328  1.00  0.00     0.237 A 
HETATM    6  N2  UNL     1      22.587  -0.853  54.598  1.00  0.00    -0.218 NA
HETATM    7  C6  UNL     1      22.885   0.105  53.556  1.00  0.00     0.168 A 
HETATM    8  S1  UNL     1      24.472   0.435  53.444  1.00  0.00    -0.071 SA
HETATM    9  C13 UNL     1      25.291   1.558  52.304  1.00  0.00     0.088 A 
HETATM   10  C14 UNL     1      26.634   1.601  52.480  1.00  0.00     0.107 A 
ENDROOT
BRANCH   7  11
HETATM   11  N3  UNL     1      22.032   0.770  52.647  1.00  0.00    -0.335 N 
HETATM   12  H6  UNL     1      22.307   1.599  52.133  1.00  0.00     0.168 HD
BRANCH  11  13
HETATM   13  C7  UNL     1      20.703   0.387  52.334  1.00  0.00     0.036 A 
HETATM   14  C8  UNL     1      20.109   0.795  51.134  1.00  0.00     0.029 A 
HETATM   15  C9  UNL     1      18.812   0.392  50.894  1.00  0.00     0.005 A 
HETATM   16  C10 UNL     1      18.074  -0.388  51.767  1.00  0.00     0.042 A 
HETATM   17  C11 UNL     1      18.691  -0.773  52.941  1.00  0.00     0.118 A 
HETATM   18  F1  UNL     1      17.999  -1.540  53.829  1.00  0.00    -0.206 F 
HETATM   19  C12 UNL     1      19.988  -0.389  53.217  1.00  0.00     0.071 A 
ENDBRANCH  11  13
ENDBRANCH   7  11
BRANCH  10  20
HETATM   20  O2  UNL     1      27.191   2.480  51.573  1.00  0.00    -0.353 OA
HETATM   21  C15 UNL     1      26.439   2.845  50.437  1.00  0.00     0.210 C 
ENDBRANCH  10  20
BRANCH   1  22
HETATM   22  O1  UNL     1      28.686   1.047  53.450  1.00  0.00    -0.353 OA
HETATM   23  C1  UNL     1      29.704   0.186  53.819  1.00  0.00     0.210 C 
ENDBRANCH   1  22
TORSDOF 4
ENDMDL
MODEL 6
REMARK VINA RESULT:      -7.1      3.778      7.403
REMARK  4 active torsions:
REMARK  status: ('A' for Active; 'I' for Inactive)
REMARK    1  A    between atoms: O1_2  and  C2_3 
REMARK    2  A    between atoms: C6_9  and  N3_10 
REMARK    3  A    between atoms: N3_10  and  C7_11 
REMARK    4  A    between atoms: C14_20  and  O2_21 
ROOT
HETATM    1  C2  UNL     1      27.018  -0.115  53.352  1.00  0.00     0.104 A 
HETATM    2  C3  UNL     1      27.514   0.679  52.431  1.00  0.00     0.078 A 
HETATM    3  C4  UNL     1      26.665   1.727  51.814  1.00  0.00     0.099 A 
HETATM    4  N1  UNL     1      26.908   2.621  50.901  1.00  0.00    -0.235 NA
HETATM    5  C5  UNL     1      25.819   3.506  50.531  1.00  0.00     0.237 A 
HETATM    6  N2  UNL     1      24.577   3.677  50.871  1.00  0.00    -0.218 NA
HETATM    7  C6  UNL     1      23.966   2.839  51.880  1.00  0.00     0.168 A 
HETATM    8  S1  UNL     1      24.992   1.732  52.480  1.00  0.00    -0.071 SA
HETATM    9  C13 UNL     1      24.667   0.491  53.740  1.00  0.00     0.088 A 
HETATM   10  C14 UNL     1      25.748  -0.280  54.010  1.00  0.00     0.107 A 
ENDROOT
BRANCH   7  11
HETATM   11  N3  UNL     1      22.656   2.844  52.408  1.00  0.00    -0.335 N 
HETATM   12  H6  UNL     1      22.344   3.505  53.111  1.00  0.00     0.168 HD
BRANCH  11  13
HETATM   13  C7  UNL     1      21.617   1.951  52.045  1.00  0.00     0.036 A 
HETATM   14  C8  UNL     1      21.237   1.806  50.706  1.00  0.00     0.029 A 
HETATM   15  C9  UNL     1      20.216   0.924  50.422  1.00  0.00     0.005 A 
HETATM   16  C10 UNL     1      19.553   0.180  51.382  1.00  0.00     0.042 A 
HETATM   17  C11 UNL     1      19.953   0.346  52.694  1.00  0.00     0.118 A 
HETATM   18  F1  UNL     1      19.324  -0.366  53.670  1.00  0.00    -0.206 F 
HETATM   19  C12 UNL     1      20.971   1.220  53.017  1.00  0.00     0.071 A 
ENDBRANCH  11  13
ENDBRANCH   7  11
BRANCH  10  20
HETATM   20  O2  UNL     1      25.424  -1.206  54.982  1.00  0.00    -0.353 OA
HETATM   21  C15 UNL     1      24.102  -1.233  55.474  1.00  0.00     0.210 C 
ENDBRANCH  10  20
BRANCH   1  22
HETATM   22  O1  UNL     1      27.954  -1.024  53.808  1.00  0.00    -0.353 OA
HETATM   23  C1  UNL     1      29.333  -0.939  53.748  1.00  0.00     0.210 C 
ENDBRANCH   1  22
TORSDOF 4
ENDMDL
MODEL 7
REMARK VINA RESULT:      -7.0      3.600      6.593
REMARK  4 active torsions:
REMARK  status: ('A' for Active; 'I' for Inactive)
REMARK    1  A    between atoms: O1_2  and  C2_3 
REMARK    2  A    between atoms: C6_9  and  N3_10 
REMARK    3  A    between atoms: N3_10  and  C7_11 
REMARK    4  A    between atoms: C14_20  and  O2_21 
ROOT
HETATM    1  C2  UNL     1      26.442   0.137  53.422  1.00  0.00     0.104 A 
HETATM    2  C3  UNL     1      25.699  -0.645  54.171  1.00  0.00     0.078 A 
HETATM    3  C4  UNL     1      24.222  -0.501  54.163  1.00  0.00     0.099 A 
HETATM    4  N1  UNL     1      23.281  -1.135  54.798  1.00  0.00    -0.235 NA
HETATM    5  C5  UNL     1      21.913  -0.721  54.543  1.00  0.00     0.237 A 
HETATM    6  N2  UNL     1      21.311   0.166  53.809  1.00  0.00    -0.218 NA
HETATM    7  C6  UNL     1      22.067   1.059  52.960  1.00  0.00     0.168 A 
HETATM    8  S1  UNL     1      23.669   0.806  53.054  1.00  0.00    -0.071 SA
HETATM    9  C13 UNL     1      24.980   1.675  52.183  1.00  0.00     0.088 A 
HETATM   10  C14 UNL     1      26.215   1.212  52.493  1.00  0.00     0.107 A 
ENDROOT
BRANCH   7  11
HETATM   11  N3  UNL     1      21.635   2.081  52.085  1.00  0.00    -0.335 N 
HETATM   12  H6  UNL     1      21.147   2.912  52.400  1.00  0.00     0.168 HD
BRANCH  11  13
HETATM   13  C7  UNL     1      21.814   2.091  50.678  1.00  0.00     0.036 A 
HETATM   14  C8  UNL     1      21.360   1.025  49.894  1.00  0.00     0.029 A 
HETATM   15  C9  UNL     1      21.572   1.097  48.533  1.00  0.00     0.005 A 
HETATM   16  C10 UNL     1      22.202   2.158  47.907  1.00  0.00     0.042 A 
HETATM   17  C11 UNL     1      22.637   3.194  48.711  1.00  0.00     0.118 A 
HETATM   18  F1  UNL     1      23.265   4.257  48.134  1.00  0.00    -0.206 F 
HETATM   19  C12 UNL     1      22.444   3.158  50.077  1.00  0.00     0.071 A 
ENDBRANCH  11  13
ENDBRANCH   7  11
BRANCH  10  20
HETATM   20  O2  UNL     1      27.165   1.925  51.790  1.00  0.00    -0.353 OA
HETATM   21  C15 UNL     1      26.732   2.885  50.852  1.00  0.00     0.210 C 
ENDBRANCH  10  20
BRANCH   1  22
HETATM   22  O1  UNL     1      27.789  -0.144  53.561  1.00  0.00    -0.353 OA
HETATM   23  C1  UNL     1      28.620   0.147  54.628  1.00  0.00     0.210 C 
ENDBRANCH   1  22
TORSDOF 4
ENDMDL
MODEL 8
REMARK VINA RESULT:      -7.0      3.640      6.925
REMARK  4 active torsions:
REMARK  status: ('A' for Active; 'I' for Inactive)
REMARK    1  A    between atoms: O1_2  and  C2_3 
REMARK    2  A    between atoms: C6_9  and  N3_10 
REMARK    3  A    between atoms: N3_10  and  C7_11 
REMARK    4  A    between atoms: C14_20  and  O2_21 
ROOT
HETATM    1  C2  UNL     1      27.213   0.824  53.528  1.00  0.00     0.104 A 
HETATM    2  C3  UNL     1      26.853   0.103  54.565  1.00  0.00     0.078 A 
HETATM    3  C4  UNL     1      25.461  -0.400  54.675  1.00  0.00     0.099 A 
HETATM    4  N1  UNL     1      24.863  -1.119  55.579  1.00  0.00    -0.235 NA
HETATM    5  C5  UNL     1      23.463  -1.431  55.359  1.00  0.00     0.237 A 
HETATM    6  N2  UNL     1      22.566  -1.183  54.453  1.00  0.00    -0.218 NA
HETATM    7  C6  UNL     1      22.894  -0.395  53.286  1.00  0.00     0.168 A 
HETATM    8  S1  UNL     1      24.441   0.098  53.277  1.00  0.00    -0.071 SA
HETATM    9  C13 UNL     1      25.279   1.091  52.035  1.00  0.00     0.088 A 
HETATM   10  C14 UNL     1      26.580   1.325  52.337  1.00  0.00     0.107 A 
ENDROOT
BRANCH   7  11
HETATM   11  N3  UNL     1      22.097  -0.008  52.185  1.00  0.00    -0.335 N 
HETATM   12  H6  UNL     1      22.043  -0.542  51.324  1.00  0.00     0.168 HD
BRANCH  11  13
HETATM   13  C7  UNL     1      21.283   1.151  52.123  1.00  0.00     0.036 A 
HETATM   14  C8  UNL     1      19.901   1.041  51.933  1.00  0.00     0.029 A 
HETATM   15  C9  UNL     1      19.169   2.209  51.877  1.00  0.00     0.005 A 
HETATM   16  C10 UNL     1      19.722   3.471  52.000  1.00  0.00     0.042 A 
HETATM   17  C11 UNL     1      21.089   3.543  52.187  1.00  0.00     0.118 A 
HETATM   18  F1  UNL     1      21.674   4.767  52.310  1.00  0.00    -0.206 F 
HETATM   19  C12 UNL     1      21.855   2.397  52.248  1.00  0.00     0.071 A 
ENDBRANCH  11  13
ENDBRANCH   7  11
BRANCH  10  20
HETATM   20  O2  UNL     1      27.154   2.091  51.342  1.00  0.00    -0.353 OA
HETATM   21  C15 UNL     1      26.320   2.912  50.555  1.00  0.00     0.210 C 
ENDBRANCH  10  20
BRANCH   1  22
HETATM   22  O1  UNL     1      28.541   1.201  53.599  1.00  0.00    -0.353 OA
HETATM   23  C1  UNL     1      29.647   0.405  53.842  1.00  0.00     0.210 C 
ENDBRANCH   1  22
TORSDOF 4
ENDMDL
MODEL 9
REMARK VINA RESULT:      -7.0      4.037      7.843
REMARK  4 active torsions:
REMARK  status: ('A' for Active; 'I' for Inactive)
REMARK    1  A    between atoms: O1_2  and  C2_3 
REMARK    2  A    between atoms: C6_9  and  N3_10 
REMARK    3  A    between atoms: N3_10  and  C7_11 
REMARK    4  A    between atoms: C14_20  and  O2_21 
ROOT
HETATM    1  C2  UNL     1      26.183   1.318  53.874  1.00  0.00     0.104 A 
HETATM    2  C3  UNL     1      25.770   2.557  53.735  1.00  0.00     0.078 A 
HETATM    3  C4  UNL     1      24.442   2.836  53.135  1.00  0.00     0.099 A 
HETATM    4  N1  UNL     1      23.812   3.948  52.891  1.00  0.00    -0.235 NA
HETATM    5  C5  UNL     1      22.499   3.846  52.282  1.00  0.00     0.237 A 
HETATM    6  N2  UNL     1      21.710   2.896  51.879  1.00  0.00    -0.218 NA
HETATM    7  C6  UNL     1      22.101   1.509  52.002  1.00  0.00     0.168 A 
HETATM    8  S1  UNL     1      23.570   1.330  52.672  1.00  0.00    -0.071 SA
HETATM    9  C13 UNL     1      24.452  -0.199  53.013  1.00  0.00     0.088 A 
HETATM   10  C14 UNL     1      25.665   0.008  53.580  1.00  0.00     0.107 A 
ENDROOT
BRANCH   7  11
HETATM   11  N3  UNL     1      21.417   0.326  51.645  1.00  0.00    -0.335 N 
HETATM   12  H6  UNL     1      21.890  -0.537  51.401  1.00  0.00     0.168 HD
BRANCH  11  13
HETATM   13  C7  UNL     1      20.008   0.178  51.576  1.00  0.00     0.036 A 
HETATM   14  C8  UNL     1      19.299   0.626  50.456  1.00  0.00     0.029 A 
HETATM   15  C9  UNL     1      17.930   0.455  50.456  1.00  0.00     0.005 A 
HETATM   16  C10 UNL     1      17.228  -0.130  51.493  1.00  0.00     0.042 A 
HETATM   17  C11 UNL     1      17.958  -0.562  52.584  1.00  0.00     0.118 A 
HETATM   18  F1  UNL     1      17.304  -1.142  53.628  1.00  0.00    -0.206 F 
HETATM   19  C12 UNL     1      19.329  -0.408  52.620  1.00  0.00     0.071 A 
ENDBRANCH  11  13
ENDBRANCH   7  11
BRANCH  10  20
HETATM   20  O2  UNL     1      26.280  -1.207  53.811  1.00  0.00    -0.353 OA
HETATM   21  C15 UNL     1      26.920  -1.855  52.735  1.00  0.00     0.210 C 
ENDBRANCH  10  20
BRANCH   1  22
HETATM   22  O1  UNL     1      27.439   1.255  54.450  1.00  0.00    -0.353 OA
HETATM   23  C1  UNL     1      28.663   1.539  53.872  1.00  0.00     0.210 C 
ENDBRANCH   1  22
TORSDOF 4
ENDMDL
