MODEL 1
REMARK VINA RESULT:      -9.1      0.000      0.000
REMARK  6 active torsions:
REMARK  status: ('A' for Active; 'I' for Inactive)
REMARK       I    between atoms: C1_2  and  N1_3 
REMARK       I    between atoms: C1_2  and  N2_10 
REMARK    1  A    between atoms: N1_3  and  C2_4 
REMARK    2  A    between atoms: N2_10  and  C8_11 
REMARK    3  A    between atoms: N2_10  and  P1_21 
REMARK    4  A    between atoms: C8_11  and  C9_12 
REMARK    5  A    between atoms: C11_14  and  O2_15 
REMARK    6  A    between atoms: P1_21  and  C15_22 
ROOT
HETATM    1  O1  UNL     1      23.603   2.833  48.938  1.00  0.00    -0.247 OA
HETATM    2  C1  UNL     1      23.672   2.761  50.205  1.00  0.00     0.326 C 
HETATM    3  N1  UNL     1      24.738   3.553  50.718  1.00  0.00    -0.309 N 
HETATM    4  N2  UNL     1      22.825   2.004  51.062  1.00  0.00    -0.304 N 
HETATM    5  H1  UNL     1      24.933   3.605  51.745  1.00  0.00     0.170 HD
ENDROOT
BRANCH   4   6
HETATM    6  C8  UNL     1      22.969   1.971  52.508  1.00  0.00     0.160 C 
BRANCH   6   7
HETATM    7  C9  UNL     1      23.725   0.799  52.941  1.00  0.00     0.007 C 
HETATM    8  C10 UNL     1      24.958   0.568  53.308  1.00  0.00     0.016 C 
HETATM    9  C11 UNL     1      25.974   1.613  53.363  1.00  0.00     0.073 C 
HETATM   10  C14 UNL     1      25.334  -0.817  53.681  1.00  0.00     0.253 C 
HETATM   11  C12 UNL     1      27.228   1.203  53.096  1.00  0.00     0.036 C 
HETATM   12  C13 UNL     1      27.410  -0.223  52.789  1.00  0.00     0.200 C 
HETATM   13  O3  UNL     1      26.652  -1.098  53.506  1.00  0.00    -0.362 OA
HETATM   14 CL1  UNL     1      24.937  -0.970  55.426  1.00  0.00    -0.090 Cl
BRANCH   9  15
HETATM   15  O2  UNL     1      25.581   2.906  53.676  1.00  0.00    -0.360 OA
HETATM   16  H10 UNL     1      25.255   3.116  54.608  1.00  0.00     0.217 HD
ENDBRANCH   9  15
ENDBRANCH   6   7
ENDBRANCH   4   6
BRANCH   4  17
HETATM   17  P1  UNL     1      21.547   1.076  50.220  1.00  0.00     0.012 P 
HETATM   18  H15 UNL     1      22.067   0.113  49.296  1.00  0.00     0.085 HD
BRANCH  17  19
HETATM   19  C15 UNL     1      20.319   0.366  51.352  1.00  0.00    -0.013 A 
HETATM   20  C16 UNL     1      18.983   0.402  50.963  1.00  0.00     0.017 A 
HETATM   21  C17 UNL     1      18.031  -0.122  51.786  1.00  0.00     0.043 A 
HETATM   22  C18 UNL     1      18.378  -0.677  52.982  1.00  0.00     0.116 A 
HETATM   23  F1  UNL     1      17.429  -1.195  53.795  1.00  0.00    -0.206 F 
HETATM   24  C19 UNL     1      19.716  -0.702  53.349  1.00  0.00     0.043 A 
HETATM   25  C20 UNL     1      20.712  -0.188  52.554  1.00  0.00     0.017 A 
ENDBRANCH  17  19
ENDBRANCH   4  17
BRANCH   3  26
HETATM   26  C2  UNL     1      25.642   4.344  49.971  1.00  0.00     0.036 A 
HETATM   27  C3  UNL     1      26.814   3.910  49.364  1.00  0.00     0.029 A 
HETATM   28  C4  UNL     1      27.614   4.787  48.661  1.00  0.00     0.002 A 
HETATM   29  C5  UNL     1      27.247   6.093  48.563  1.00  0.00     0.000 A 
HETATM   30  C6  UNL     1      26.092   6.607  49.141  1.00  0.00     0.002 A 
HETATM   31  C7  UNL     1      25.320   5.692  49.837  1.00  0.00     0.029 A 
ENDBRANCH   3  26
TORSDOF 6
ENDMDL
MODEL 2
REMARK VINA RESULT:      -9.1      2.131      2.964
REMARK  6 active torsions:
REMARK  status: ('A' for Active; 'I' for Inactive)
REMARK       I    between atoms: C1_2  and  N1_3 
REMARK       I    between atoms: C1_2  and  N2_10 
REMARK    1  A    between atoms: N1_3  and  C2_4 
REMARK    2  A    between atoms: N2_10  and  C8_11 
REMARK    3  A    between atoms: N2_10  and  P1_21 
REMARK    4  A    between atoms: C8_11  and  C9_12 
REMARK    5  A    between atoms: C11_14  and  O2_15 
REMARK    6  A    between atoms: P1_21  and  C15_22 
ROOT
HETATM    1  O1  UNL     1      23.869   5.029  51.466  1.00  0.00    -0.247 OA
HETATM    2  C1  UNL     1      24.914   4.383  51.143  1.00  0.00     0.326 C 
HETATM    3  N1  UNL     1      25.729   5.123  50.239  1.00  0.00    -0.309 N 
HETATM    4  N2  UNL     1      25.285   3.085  51.591  1.00  0.00    -0.304 N 
HETATM    5  H1  UNL     1      26.630   4.733  49.874  1.00  0.00     0.170 HD
ENDROOT
BRANCH   4   6
HETATM    6  C8  UNL     1      26.502   2.408  51.174  1.00  0.00     0.160 C 
BRANCH   6   7
HETATM    7  C9  UNL     1      26.608   1.084  51.779  1.00  0.00     0.007 C 
HETATM    8  C10 UNL     1      27.284   0.562  52.768  1.00  0.00     0.016 C 
HETATM    9  C11 UNL     1      28.211   1.336  53.586  1.00  0.00     0.073 C 
HETATM   10  C14 UNL     1      27.100  -0.879  53.065  1.00  0.00     0.253 C 
HETATM   11  C12 UNL     1      29.265   0.647  54.061  1.00  0.00     0.036 C 
HETATM   12  C13 UNL     1      29.346  -0.776  53.701  1.00  0.00     0.200 C 
HETATM   13  O3  UNL     1      28.169  -1.460  53.672  1.00  0.00    -0.362 OA
HETATM   14 CL1  UNL     1      25.690  -0.965  54.173  1.00  0.00    -0.090 Cl
BRANCH   9  15
HETATM   15  O2  UNL     1      27.943   2.681  53.802  1.00  0.00    -0.360 OA
HETATM   16  H10 UNL     1      27.259   3.151  53.227  1.00  0.00     0.217 HD
ENDBRANCH   9  15
ENDBRANCH   6   7
ENDBRANCH   4   6
BRANCH   4  17
HETATM   17  P1  UNL     1      24.125   2.325  52.722  1.00  0.00     0.012 P 
HETATM   18  H15 UNL     1      23.832   3.143  53.861  1.00  0.00     0.085 HD
BRANCH  17  19
HETATM   19  C15 UNL     1      22.628   1.708  51.902  1.00  0.00    -0.013 A 
HETATM   20  C16 UNL     1      21.530   1.403  52.701  1.00  0.00     0.017 A 
HETATM   21  C17 UNL     1      20.388   0.937  52.121  1.00  0.00     0.043 A 
HETATM   22  C18 UNL     1      20.315   0.769  50.770  1.00  0.00     0.116 A 
HETATM   23  F1  UNL     1      19.180   0.306  50.200  1.00  0.00    -0.206 F 
HETATM   24  C19 UNL     1      21.423   1.079  49.994  1.00  0.00     0.043 A 
HETATM   25  C20 UNL     1      22.596   1.552  50.530  1.00  0.00     0.017 A 
ENDBRANCH  17  19
ENDBRANCH   4  17
BRANCH   3  26
HETATM   26  C2  UNL     1      25.470   6.414  49.726  1.00  0.00     0.036 A 
HETATM   27  C3  UNL     1      25.773   7.624  50.339  1.00  0.00     0.029 A 
HETATM   28  C4  UNL     1      25.465   8.823  49.730  1.00  0.00     0.002 A 
HETATM   29  C5  UNL     1      24.856   8.816  48.513  1.00  0.00     0.000 A 
HETATM   30  C6  UNL     1      24.520   7.652  47.834  1.00  0.00     0.002 A 
HETATM   31  C7  UNL     1      24.847   6.472  48.483  1.00  0.00     0.029 A 
ENDBRANCH   3  26
TORSDOF 6
ENDMDL
MODEL 3
REMARK VINA RESULT:      -8.9      3.535      7.292
REMARK  6 active torsions:
REMARK  status: ('A' for Active; 'I' for Inactive)
REMARK       I    between atoms: C1_2  and  N1_3 
REMARK       I    between atoms: C1_2  and  N2_10 
REMARK    1  A    between atoms: N1_3  and  C2_4 
REMARK    2  A    between atoms: N2_10  and  C8_11 
REMARK    3  A    between atoms: N2_10  and  P1_21 
REMARK    4  A    between atoms: C8_11  and  C9_12 
REMARK    5  A    between atoms: C11_14  and  O2_15 
REMARK    6  A    between atoms: P1_21  and  C15_22 
ROOT
HETATM    1  O1  UNL     1      22.546   2.152  50.923  1.00  0.00    -0.247 OA
HETATM    2  C1  UNL     1      23.714   2.155  51.424  1.00  0.00     0.326 C 
HETATM    3  N1  UNL     1      23.786   1.341  52.589  1.00  0.00    -0.309 N 
HETATM    4  N2  UNL     1      24.848   2.860  50.934  1.00  0.00    -0.304 N 
HETATM    5  H1  UNL     1      24.680   1.235  53.125  1.00  0.00     0.170 HD
ENDROOT
BRANCH   4   6
HETATM    6  C8  UNL     1      26.156   2.815  51.565  1.00  0.00     0.160 C 
BRANCH   6   7
HETATM    7  C9  UNL     1      26.550   1.444  51.875  1.00  0.00     0.007 C 
HETATM    8  C10 UNL     1      27.356   0.877  52.734  1.00  0.00     0.016 C 
HETATM    9  C11 UNL     1      28.140   1.636  53.701  1.00  0.00     0.073 C 
HETATM   10  C14 UNL     1      27.476  -0.601  52.717  1.00  0.00     0.253 C 
HETATM   11  C12 UNL     1      29.328   1.093  54.024  1.00  0.00     0.036 C 
HETATM   12  C13 UNL     1      29.679  -0.177  53.369  1.00  0.00     0.200 C 
HETATM   13  O3  UNL     1      28.663  -1.066  53.190  1.00  0.00    -0.362 OA
HETATM   14 CL1  UNL     1      26.157  -1.204  53.775  1.00  0.00    -0.090 Cl
BRANCH   9  15
HETATM   15  O2  UNL     1      27.616   2.821  54.198  1.00  0.00    -0.360 OA
HETATM   16  H10 UNL     1      27.699   3.668  53.654  1.00  0.00     0.217 HD
ENDBRANCH   9  15
ENDBRANCH   6   7
ENDBRANCH   4   6
BRANCH   4  17
HETATM   17  P1  UNL     1      24.546   3.827  49.458  1.00  0.00     0.012 P 
HETATM   18  H15 UNL     1      23.293   4.520  49.485  1.00  0.00     0.085 HD
BRANCH  17  19
HETATM   19  C15 UNL     1      25.934   4.910  49.019  1.00  0.00    -0.013 A 
HETATM   20  C16 UNL     1      27.190   4.328  48.874  1.00  0.00     0.017 A 
HETATM   21  C17 UNL     1      28.257   5.110  48.544  1.00  0.00     0.043 A 
HETATM   22  C18 UNL     1      28.103   6.451  48.356  1.00  0.00     0.116 A 
HETATM   23  F1  UNL     1      29.165   7.222  48.030  1.00  0.00    -0.206 F 
HETATM   24  C19 UNL     1      26.841   7.010  48.507  1.00  0.00     0.043 A 
HETATM   25  C20 UNL     1      25.735   6.265  48.837  1.00  0.00     0.017 A 
ENDBRANCH  17  19
ENDBRANCH   4  17
BRANCH   3  26
HETATM   26  C2  UNL     1      22.735   0.596  53.171  1.00  0.00     0.036 A 
HETATM   27  C3  UNL     1      21.530   1.099  53.645  1.00  0.00     0.029 A 
HETATM   28  C4  UNL     1      20.581   0.261  54.195  1.00  0.00     0.002 A 
HETATM   29  C5  UNL     1      20.832  -1.074  54.270  1.00  0.00     0.000 A 
HETATM   30  C6  UNL     1      22.009  -1.656  53.819  1.00  0.00     0.002 A 
HETATM   31  C7  UNL     1      22.934  -0.778  53.276  1.00  0.00     0.029 A 
ENDBRANCH   3  26
TORSDOF 6
ENDMDL
MODEL 4
REMARK VINA RESULT:      -8.6      4.154      7.726
REMARK  6 active torsions:
REMARK  status: ('A' for Active; 'I' for Inactive)
REMARK       I    between atoms: C1_2  and  N1_3 
REMARK       I    between atoms: C1_2  and  N2_10 
REMARK    1  A    between atoms: N1_3  and  C2_4 
REMARK    2  A    between atoms: N2_10  and  C8_11 
REMARK    3  A    between atoms: N2_10  and  P1_21 
REMARK    4  A    between atoms: C8_11  and  C9_12 
REMARK    5  A    between atoms: C11_14  and  O2_15 
REMARK    6  A    between atoms: P1_21  and  C15_22 
ROOT
HETATM    1  O1  UNL     1      26.898   2.858  50.408  1.00  0.00    -0.247 OA
HETATM    2  C1  UNL     1      25.943   3.176  51.184  1.00  0.00     0.326 C 
HETATM    3  N1  UNL     1      26.020   2.481  52.424  1.00  0.00    -0.309 N 
HETATM    4  N2  UNL     1      24.896   4.101  50.910  1.00  0.00    -0.304 N 
HETATM    5  H1  UNL     1      25.307   2.629  53.176  1.00  0.00     0.170 HD
ENDROOT
BRANCH   4   6
HETATM    6  C8  UNL     1      23.834   4.413  51.852  1.00  0.00     0.160 C 
BRANCH   6   7
HETATM    7  C9  UNL     1      22.529   4.018  51.329  1.00  0.00     0.007 C 
HETATM    8  C10 UNL     1      21.832   2.912  51.299  1.00  0.00     0.016 C 
HETATM    9  C11 UNL     1      22.310   1.662  51.877  1.00  0.00     0.073 C 
HETATM   10  C14 UNL     1      20.502   2.936  50.644  1.00  0.00     0.253 C 
HETATM   11  C12 UNL     1      21.893   0.547  51.250  1.00  0.00     0.036 C 
HETATM   12  C13 UNL     1      21.022   0.729  50.079  1.00  0.00     0.200 C 
HETATM   13  O3  UNL     1      20.102   1.730  50.160  1.00  0.00    -0.362 OA
HETATM   14 CL1  UNL     1      19.348   3.458  51.917  1.00  0.00    -0.090 Cl
BRANCH   9  15
HETATM   15  O2  UNL     1      23.132   1.718  52.994  1.00  0.00    -0.360 OA
HETATM   16  H10 UNL     1      23.469   2.612  53.320  1.00  0.00     0.217 HD
ENDBRANCH   9  15
ENDBRANCH   6   7
ENDBRANCH   4   6
BRANCH   4  17
HETATM   17  P1  UNL     1      24.980   4.868  49.295  1.00  0.00     0.012 P 
HETATM   18  H15 UNL     1      23.692   5.184  48.755  1.00  0.00     0.085 HD
BRANCH  17  19
HETATM   19  C15 UNL     1      26.130   6.270  49.230  1.00  0.00    -0.013 A 
HETATM   20  C16 UNL     1      25.859   7.368  50.040  1.00  0.00     0.017 A 
HETATM   21  C17 UNL     1      26.700   8.441  50.019  1.00  0.00     0.043 A 
HETATM   22  C18 UNL     1      27.799   8.444  49.213  1.00  0.00     0.116 A 
HETATM   23  F1  UNL     1      28.630   9.511  49.195  1.00  0.00    -0.206 F 
HETATM   24  C19 UNL     1      28.049   7.338  48.413  1.00  0.00     0.043 A 
HETATM   25  C20 UNL     1      27.233   6.233  48.399  1.00  0.00     0.017 A 
ENDBRANCH  17  19
ENDBRANCH   4  17
BRANCH   3  26
HETATM   26  C2  UNL     1      27.005   1.544  52.811  1.00  0.00     0.036 A 
HETATM   27  C3  UNL     1      28.234   1.829  53.394  1.00  0.00     0.029 A 
HETATM   28  C4  UNL     1      29.112   0.817  53.725  1.00  0.00     0.002 A 
HETATM   29  C5  UNL     1      28.766  -0.475  53.476  1.00  0.00     0.000 A 
HETATM   30  C6  UNL     1      27.559  -0.844  52.897  1.00  0.00     0.002 A 
HETATM   31  C7  UNL     1      26.709   0.203  52.580  1.00  0.00     0.029 A 
ENDBRANCH   3  26
TORSDOF 6
ENDMDL
MODEL 5
REMARK VINA RESULT:      -8.6      3.720      7.929
REMARK  6 active torsions:
REMARK  status: ('A' for Active; 'I' for Inactive)
REMARK       I    between atoms: C1_2  and  N1_3 
REMARK       I    between atoms: C1_2  and  N2_10 
REMARK    1  A    between atoms: N1_3  and  C2_4 
REMARK    2  A    between atoms: N2_10  and  C8_11 
REMARK    3  A    between atoms: N2_10  and  P1_21 
REMARK    4  A    between atoms: C8_11  and  C9_12 
REMARK    5  A    between atoms: C11_14  and  O2_15 
REMARK    6  A    between atoms: P1_21  and  C15_22 
ROOT
HETATM    1  O1  UNL     1      22.684  -1.116  52.709  1.00  0.00    -0.247 OA
HETATM    2  C1  UNL     1      22.832   0.146  52.743  1.00  0.00     0.326 C 
HETATM    3  N1  UNL     1      21.582   0.822  52.671  1.00  0.00    -0.309 N 
HETATM    4  N2  UNL     1      24.061   0.856  52.840  1.00  0.00    -0.304 N 
HETATM    5  H1  UNL     1      21.527   1.868  52.687  1.00  0.00     0.170 HD
ENDROOT
BRANCH   4   6
HETATM    6  C8  UNL     1      24.150   2.307  52.873  1.00  0.00     0.160 C 
BRANCH   6   7
HETATM    7  C9  UNL     1      24.308   2.860  51.531  1.00  0.00     0.007 C 
HETATM    8  C10 UNL     1      24.110   4.025  50.974  1.00  0.00     0.016 C 
HETATM    9  C11 UNL     1      23.612   5.180  51.713  1.00  0.00     0.073 C 
HETATM   10  C14 UNL     1      24.402   4.174  49.528  1.00  0.00     0.253 C 
HETATM   11  C12 UNL     1      22.855   6.033  50.998  1.00  0.00     0.036 C 
HETATM   12  C13 UNL     1      22.630   5.697  49.584  1.00  0.00     0.200 C 
HETATM   13  O3  UNL     1      23.686   5.155  48.916  1.00  0.00    -0.362 OA
HETATM   14 CL1  UNL     1      26.147   4.584  49.429  1.00  0.00    -0.090 Cl
BRANCH   9  15
HETATM   15  O2  UNL     1      23.946   5.304  53.054  1.00  0.00    -0.360 OA
HETATM   16  H10 UNL     1      23.496   4.712  53.737  1.00  0.00     0.217 HD
ENDBRANCH   9  15
ENDBRANCH   6   7
ENDBRANCH   4   6
BRANCH   4  17
HETATM   17  P1  UNL     1      25.519  -0.179  52.919  1.00  0.00     0.012 P 
HETATM   18  H15 UNL     1      25.763  -0.902  51.707  1.00  0.00     0.085 HD
BRANCH  17  19
HETATM   19  C15 UNL     1      26.989   0.702  53.515  1.00  0.00    -0.013 A 
HETATM   20  C16 UNL     1      27.686   0.150  54.585  1.00  0.00     0.017 A 
HETATM   21  C17 UNL     1      28.796   0.783  55.060  1.00  0.00     0.043 A 
HETATM   22  C18 UNL     1      29.224   1.948  54.497  1.00  0.00     0.116 A 
HETATM   23  F1  UNL     1      30.326   2.573  54.972  1.00  0.00    -0.206 F 
HETATM   24  C19 UNL     1      28.512   2.481  53.431  1.00  0.00     0.043 A 
HETATM   25  C20 UNL     1      27.389   1.881  52.916  1.00  0.00     0.017 A 
ENDBRANCH  17  19
ENDBRANCH   4  17
BRANCH   3  26
HETATM   26  C2  UNL     1      20.302   0.231  52.573  1.00  0.00     0.036 A 
HETATM   27  C3  UNL     1      19.687  -0.572  53.526  1.00  0.00     0.029 A 
HETATM   28  C4  UNL     1      18.428  -1.092  53.307  1.00  0.00     0.002 A 
HETATM   29  C5  UNL     1      17.783  -0.813  52.142  1.00  0.00     0.000 A 
HETATM   30  C6  UNL     1      18.327  -0.021  51.140  1.00  0.00     0.002 A 
HETATM   31  C7  UNL     1      19.593   0.480  51.401  1.00  0.00     0.029 A 
ENDBRANCH   3  26
TORSDOF 6
ENDMDL
MODEL 6
REMARK VINA RESULT:      -8.5      2.444      5.404
REMARK  6 active torsions:
REMARK  status: ('A' for Active; 'I' for Inactive)
REMARK       I    between atoms: C1_2  and  N1_3 
REMARK       I    between atoms: C1_2  and  N2_10 
REMARK    1  A    between atoms: N1_3  and  C2_4 
REMARK    2  A    between atoms: N2_10  and  C8_11 
REMARK    3  A    between atoms: N2_10  and  P1_21 
REMARK    4  A    between atoms: C8_11  and  C9_12 
REMARK    5  A    between atoms: C11_14  and  O2_15 
REMARK    6  A    between atoms: P1_21  and  C15_22 
ROOT
HETATM    1  O1  UNL     1      24.843  -0.584  54.308  1.00  0.00    -0.247 OA
HETATM    2  C1  UNL     1      24.658   0.074  53.236  1.00  0.00     0.326 C 
HETATM    3  N1  UNL     1      25.877   0.270  52.525  1.00  0.00    -0.309 N 
HETATM    4  N2  UNL     1      23.421   0.579  52.749  1.00  0.00    -0.304 N 
HETATM    5  H1  UNL     1      25.900   0.794  51.619  1.00  0.00     0.170 HD
ENDROOT
BRANCH   4   6
HETATM    6  C8  UNL     1      23.290   1.326  51.509  1.00  0.00     0.160 C 
BRANCH   6   7
HETATM    7  C9  UNL     1      23.324   2.765  51.750  1.00  0.00     0.007 C 
HETATM    8  C10 UNL     1      23.580   3.825  51.029  1.00  0.00     0.016 C 
HETATM    9  C11 UNL     1      23.938   3.752  49.617  1.00  0.00     0.073 C 
HETATM   10  C14 UNL     1      23.506   5.155  51.681  1.00  0.00     0.253 C 
HETATM   11  C12 UNL     1      24.776   4.715  49.190  1.00  0.00     0.036 C 
HETATM   12  C13 UNL     1      25.217   5.702  50.187  1.00  0.00     0.200 C 
HETATM   13  O3  UNL     1      24.285   6.103  51.095  1.00  0.00    -0.362 OA
HETATM   14 CL1  UNL     1      21.787   5.659  51.551  1.00  0.00    -0.090 Cl
BRANCH   9  15
HETATM   15  O2  UNL     1      23.403   2.728  48.848  1.00  0.00    -0.360 OA
HETATM   16  H10 UNL     1      23.902   2.407  48.031  1.00  0.00     0.217 HD
ENDBRANCH   9  15
ENDBRANCH   6   7
ENDBRANCH   4   6
BRANCH   4  17
HETATM   17  P1  UNL     1      22.008   0.225  53.790  1.00  0.00     0.012 P 
HETATM   18  H15 UNL     1      21.873   1.139  54.884  1.00  0.00     0.085 HD
BRANCH  17  19
HETATM   19  C15 UNL     1      20.466   0.021  52.855  1.00  0.00    -0.013 A 
HETATM   20  C16 UNL     1      19.458  -0.748  53.428  1.00  0.00     0.017 A 
HETATM   21  C17 UNL     1      18.285  -0.923  52.756  1.00  0.00     0.043 A 
HETATM   22  C18 UNL     1      18.095  -0.354  51.532  1.00  0.00     0.116 A 
HETATM   23  F1  UNL     1      16.930  -0.532  50.870  1.00  0.00    -0.206 F 
HETATM   24  C19 UNL     1      19.115   0.408  50.980  1.00  0.00     0.043 A 
HETATM   25  C20 UNL     1      20.314   0.616  51.617  1.00  0.00     0.017 A 
ENDBRANCH  17  19
ENDBRANCH   4  17
BRANCH   3  26
HETATM   26  C2  UNL     1      27.162  -0.181  52.905  1.00  0.00     0.036 A 
HETATM   27  C3  UNL     1      28.175   0.587  53.466  1.00  0.00     0.029 A 
HETATM   28  C4  UNL     1      29.392   0.024  53.792  1.00  0.00     0.002 A 
HETATM   29  C5  UNL     1      29.598  -1.300  53.560  1.00  0.00     0.000 A 
HETATM   30  C6  UNL     1      28.639  -2.136  53.003  1.00  0.00     0.002 A 
HETATM   31  C7  UNL     1      27.433  -1.529  52.691  1.00  0.00     0.029 A 
ENDBRANCH   3  26
TORSDOF 6
ENDMDL
MODEL 7
REMARK VINA RESULT:      -8.4      2.862      5.629
REMARK  6 active torsions:
REMARK  status: ('A' for Active; 'I' for Inactive)
REMARK       I    between atoms: C1_2  and  N1_3 
REMARK       I    between atoms: C1_2  and  N2_10 
REMARK    1  A    between atoms: N1_3  and  C2_4 
REMARK    2  A    between atoms: N2_10  and  C8_11 
REMARK    3  A    between atoms: N2_10  and  P1_21 
REMARK    4  A    between atoms: C8_11  and  C9_12 
REMARK    5  A    between atoms: C11_14  and  O2_15 
REMARK    6  A    between atoms: P1_21  and  C15_22 
ROOT
HETATM    1  O1  UNL     1      24.377   2.018  53.273  1.00  0.00    -0.247 OA
HETATM    2  C1  UNL     1      24.477   2.217  52.022  1.00  0.00     0.326 C 
HETATM    3  N1  UNL     1      25.761   1.842  51.533  1.00  0.00    -0.309 N 
HETATM    4  N2  UNL     1      23.475   2.744  51.161  1.00  0.00    -0.304 N 
HETATM    5  H1  UNL     1      26.008   1.943  50.520  1.00  0.00     0.170 HD
ENDROOT
BRANCH   4   6
HETATM    6  C8  UNL     1      23.666   2.945  49.734  1.00  0.00     0.160 C 
BRANCH   6   7
HETATM    7  C9  UNL     1      23.254   4.285  49.326  1.00  0.00     0.007 C 
HETATM    8  C10 UNL     1      23.712   5.496  49.507  1.00  0.00     0.016 C 
HETATM    9  C11 UNL     1      24.917   5.778  50.277  1.00  0.00     0.073 C 
HETATM   10  C14 UNL     1      22.967   6.627  48.903  1.00  0.00     0.253 C 
HETATM   11  C12 UNL     1      24.915   6.955  50.929  1.00  0.00     0.036 C 
HETATM   12  C13 UNL     1      23.716   7.794  50.784  1.00  0.00     0.200 C 
HETATM   13  O3  UNL     1      23.134   7.810  49.553  1.00  0.00    -0.362 OA
HETATM   14 CL1  UNL     1      23.608   6.789  47.234  1.00  0.00    -0.090 Cl
BRANCH   9  15
HETATM   15  O2  UNL     1      25.940   4.840  50.278  1.00  0.00    -0.360 OA
HETATM   16  H10 UNL     1      26.089   4.267  51.095  1.00  0.00     0.217 HD
ENDBRANCH   9  15
ENDBRANCH   6   7
ENDBRANCH   4   6
BRANCH   4  17
HETATM   17  P1  UNL     1      21.932   3.153  51.972  1.00  0.00     0.012 P 
HETATM   18  H15 UNL     1      21.219   4.212  51.324  1.00  0.00     0.085 HD
BRANCH  17  19
HETATM   19  C15 UNL     1      20.890   1.703  52.295  1.00  0.00    -0.013 A 
HETATM   20  C16 UNL     1      21.072   1.030  53.499  1.00  0.00     0.017 A 
HETATM   21  C17 UNL     1      20.307  -0.064  53.778  1.00  0.00     0.043 A 
HETATM   22  C18 UNL     1      19.370  -0.499  52.889  1.00  0.00     0.116 A 
HETATM   23  F1  UNL     1      18.615  -1.585  53.169  1.00  0.00    -0.206 F 
HETATM   24  C19 UNL     1      19.207   0.188  51.694  1.00  0.00     0.043 A 
HETATM   25  C20 UNL     1      19.952   1.295  51.367  1.00  0.00     0.017 A 
ENDBRANCH  17  19
ENDBRANCH   4  17
BRANCH   3  26
HETATM   26  C2  UNL     1      26.833   1.310  52.285  1.00  0.00     0.036 A 
HETATM   27  C3  UNL     1      27.817   2.033  52.948  1.00  0.00     0.029 A 
HETATM   28  C4  UNL     1      28.816   1.391  53.650  1.00  0.00     0.002 A 
HETATM   29  C5  UNL     1      28.833   0.031  53.692  1.00  0.00     0.000 A 
HETATM   30  C6  UNL     1      27.888  -0.765  53.058  1.00  0.00     0.002 A 
HETATM   31  C7  UNL     1      26.905  -0.078  52.364  1.00  0.00     0.029 A 
ENDBRANCH   3  26
TORSDOF 6
ENDMDL
MODEL 8
REMARK VINA RESULT:      -8.3      3.177      6.398
REMARK  6 active torsions:
REMARK  status: ('A' for Active; 'I' for Inactive)
REMARK       I    between atoms: C1_2  and  N1_3 
REMARK       I    between atoms: C1_2  and  N2_10 
REMARK    1  A    between atoms: N1_3  and  C2_4 
REMARK    2  A    between atoms: N2_10  and  C8_11 
REMARK    3  A    between atoms: N2_10  and  P1_21 
REMARK    4  A    between atoms: C8_11  and  C9_12 
REMARK    5  A    between atoms: C11_14  and  O2_15 
REMARK    6  A    between atoms: P1_21  and  C15_22 
ROOT
HETATM    1  O1  UNL     1      22.681   1.987  50.722  1.00  0.00    -0.247 OA
HETATM    2  C1  UNL     1      23.818   1.990  51.291  1.00  0.00     0.326 C 
HETATM    3  N1  UNL     1      23.799   1.244  52.504  1.00  0.00    -0.309 N 
HETATM    4  N2  UNL     1      24.999   2.636  50.831  1.00  0.00    -0.304 N 
HETATM    5  H1  UNL     1      24.656   1.147  53.097  1.00  0.00     0.170 HD
ENDROOT
BRANCH   4   6
HETATM    6  C8  UNL     1      26.266   2.595  51.541  1.00  0.00     0.160 C 
BRANCH   6   7
HETATM    7  C9  UNL     1      26.564   1.248  52.020  1.00  0.00     0.007 C 
HETATM    8  C10 UNL     1      27.360   0.733  52.919  1.00  0.00     0.016 C 
HETATM    9  C11 UNL     1      28.245   1.544  53.747  1.00  0.00     0.073 C 
HETATM   10  C14 UNL     1      27.363  -0.739  53.097  1.00  0.00     0.253 C 
HETATM   11  C12 UNL     1      29.401   0.950  54.099  1.00  0.00     0.036 C 
HETATM   12  C13 UNL     1      29.620  -0.419  53.610  1.00  0.00     0.200 C 
HETATM   13  O3  UNL     1      28.530  -1.235  53.587  1.00  0.00    -0.362 OA
HETATM   14 CL1  UNL     1      26.050  -1.084  54.272  1.00  0.00    -0.090 Cl
BRANCH   9  15
HETATM   15  O2  UNL     1      27.839   2.824  54.097  1.00  0.00    -0.360 OA
HETATM   16  H10 UNL     1      28.201   3.617  53.588  1.00  0.00     0.217 HD
ENDBRANCH   9  15
ENDBRANCH   6   7
ENDBRANCH   4   6
BRANCH   4  17
HETATM   17  P1  UNL     1      24.812   3.522  49.287  1.00  0.00     0.012 P 
HETATM   18  H15 UNL     1      24.111   2.771  48.288  1.00  0.00     0.085 HD
BRANCH  17  19
HETATM   19  C15 UNL     1      24.142   5.195  49.501  1.00  0.00    -0.013 A 
HETATM   20  C16 UNL     1      23.756   5.889  48.358  1.00  0.00     0.017 A 
HETATM   21  C17 UNL     1      23.248   7.148  48.479  1.00  0.00     0.043 A 
HETATM   22  C18 UNL     1      23.117   7.729  49.706  1.00  0.00     0.116 A 
HETATM   23  F1  UNL     1      22.613   8.978  49.820  1.00  0.00    -0.206 F 
HETATM   24  C19 UNL     1      23.510   7.017  50.831  1.00  0.00     0.043 A 
HETATM   25  C20 UNL     1      24.026   5.746  50.762  1.00  0.00     0.017 A 
ENDBRANCH  17  19
ENDBRANCH   4  17
BRANCH   3  26
HETATM   26  C2  UNL     1      22.694   0.561  53.063  1.00  0.00     0.036 A 
HETATM   27  C3  UNL     1      21.482   1.123  53.445  1.00  0.00     0.029 A 
HETATM   28  C4  UNL     1      20.478   0.344  53.982  1.00  0.00     0.002 A 
HETATM   29  C5  UNL     1      20.682  -0.993  54.137  1.00  0.00     0.000 A 
HETATM   30  C6  UNL     1      21.862  -1.632  53.780  1.00  0.00     0.002 A 
HETATM   31  C7  UNL     1      22.843  -0.811  53.246  1.00  0.00     0.029 A 
ENDBRANCH   3  26
TORSDOF 6
ENDMDL
MODEL 9
REMARK VINA RESULT:      -8.2      3.322      6.231
REMARK  6 active torsions:
REMARK  status: ('A' for Active; 'I' for Inactive)
REMARK       I    between atoms: C1_2  and  N1_3 
REMARK       I    between atoms: C1_2  and  N2_10 
REMARK    1  A    between atoms: N1_3  and  C2_4 
REMARK    2  A    between atoms: N2_10  and  C8_11 
REMARK    3  A    between atoms: N2_10  and  P1_21 
REMARK    4  A    between atoms: C8_11  and  C9_12 
REMARK    5  A    between atoms: C11_14  and  O2_15 
REMARK    6  A    between atoms: P1_21  and  C15_22 
ROOT
HETATM    1  O1  UNL     1      25.723   3.068  51.701  1.00  0.00    -0.247 OA
HETATM    2  C1  UNL     1      24.744   2.710  50.974  1.00  0.00     0.326 C 
HETATM    3  N1  UNL     1      24.757   3.372  49.714  1.00  0.00    -0.309 N 
HETATM    4  N2  UNL     1      23.728   1.773  51.315  1.00  0.00    -0.304 N 
HETATM    5  H1  UNL     1      24.018   3.190  48.995  1.00  0.00     0.170 HD
ENDROOT
BRANCH   4   6
HETATM    6  C8  UNL     1      22.635   1.415  50.426  1.00  0.00     0.160 C 
BRANCH   6   7
HETATM    7  C9  UNL     1      21.362   1.373  51.140  1.00  0.00     0.007 C 
HETATM    8  C10 UNL     1      20.113   1.606  50.833  1.00  0.00     0.016 C 
HETATM    9  C11 UNL     1      19.692   2.020  49.500  1.00  0.00     0.073 C 
HETATM   10  C14 UNL     1      19.086   1.444  51.890  1.00  0.00     0.253 C 
HETATM   11  C12 UNL     1      18.615   2.827  49.467  1.00  0.00     0.036 C 
HETATM   12  C13 UNL     1      18.011   3.183  50.759  1.00  0.00     0.200 C 
HETATM   13  O3  UNL     1      17.972   2.199  51.700  1.00  0.00    -0.362 OA
HETATM   14 CL1  UNL     1      18.623  -0.290  51.849  1.00  0.00    -0.090 Cl
BRANCH   9  15
HETATM   15  O2  UNL     1      20.411   1.563  48.404  1.00  0.00    -0.360 OA
HETATM   16  H10 UNL     1      19.985   1.577  47.489  1.00  0.00     0.217 HD
ENDBRANCH   9  15
ENDBRANCH   6   7
ENDBRANCH   4   6
BRANCH   4  17
HETATM   17  P1  UNL     1      23.892   1.054  52.946  1.00  0.00     0.012 P 
HETATM   18  H15 UNL     1      22.852   0.120  53.256  1.00  0.00     0.085 HD
BRANCH  17  19
HETATM   19  C15 UNL     1      25.549   0.388  53.268  1.00  0.00    -0.013 A 
HETATM   20  C16 UNL     1      26.231   0.860  54.386  1.00  0.00     0.017 A 
HETATM   21  C17 UNL     1      27.477   0.383  54.661  1.00  0.00     0.043 A 
HETATM   22  C18 UNL     1      28.058  -0.548  53.853  1.00  0.00     0.116 A 
HETATM   23  F1  UNL     1      29.295  -1.018  54.130  1.00  0.00    -0.206 F 
HETATM   24  C19 UNL     1      27.360  -1.004  52.743  1.00  0.00     0.043 A 
HETATM   25  C20 UNL     1      26.101  -0.555  52.424  1.00  0.00     0.017 A 
ENDBRANCH  17  19
ENDBRANCH   4  17
BRANCH   3  26
HETATM   26  C2  UNL     1      25.707   4.317  49.262  1.00  0.00     0.036 A 
HETATM   27  C3  UNL     1      27.060   4.088  49.041  1.00  0.00     0.029 A 
HETATM   28  C4  UNL     1      27.886   5.101  48.598  1.00  0.00     0.002 A 
HETATM   29  C5  UNL     1      27.364   6.338  48.376  1.00  0.00     0.000 A 
HETATM   30  C6  UNL     1      26.025   6.649  48.573  1.00  0.00     0.002 A 
HETATM   31  C7  UNL     1      25.233   5.603  49.018  1.00  0.00     0.029 A 
ENDBRANCH   3  26
TORSDOF 6
ENDMDL
