MODEL 1
REMARK VINA RESULT:      -7.7      0.000      0.000
REMARK  8 active torsions:
REMARK  status: ('A' for Active; 'I' for Inactive)
REMARK    1  A    between atoms: C2_2  and  C3_3 
REMARK    2  A    between atoms: C3_3  and  N1_4 
REMARK    3  A    between atoms: N1_4  and  C5_6 
REMARK    4  A    between atoms: C5_6  and  C6_7 
REMARK    5  A    between atoms: C6_7  and  C7_8 
REMARK       I    between atoms: C7_8  and  N2_10 
REMARK    6  A    between atoms: C14_20  and  N5_21 
REMARK    7  A    between atoms: N5_21  and  C15_22 
REMARK    8  A    between atoms: C15_22  and  C16_23 
ROOT
HETATM    1  C7  UNL     1      23.860   4.082  49.370  1.00  0.00     0.244 C 
HETATM    2  O1  UNL     1      25.075   3.812  49.250  1.00  0.00    -0.268 OA
HETATM    3  N2  UNL     1      23.512   4.150  50.742  1.00  0.00    -0.344 N 
HETATM    4  C8  UNL     1      24.598   3.892  51.647  1.00  0.00     0.131 C 
HETATM    5  C9  UNL     1      24.505   2.572  52.377  1.00  0.00     0.060 C 
HETATM    6  C10 UNL     1      23.103   2.148  52.609  1.00  0.00    -0.025 A 
HETATM    7  C11 UNL     1      22.104   3.046  52.223  1.00  0.00     0.010 A 
HETATM    8  S1  UNL     1      20.603   2.345  52.559  1.00  0.00    -0.072 SA
HETATM    9  C12 UNL     1      21.348   0.773  53.248  1.00  0.00     0.114 A 
HETATM   10  N3  UNL     1      20.698  -0.365  53.754  1.00  0.00    -0.234 NA
HETATM   11  C13 UNL     1      21.436  -1.374  54.181  1.00  0.00     0.236 A 
HETATM   12  N4  UNL     1      22.724  -1.204  54.088  1.00  0.00    -0.224 NA
HETATM   13  C14 UNL     1      23.351  -0.141  53.617  1.00  0.00     0.138 A 
HETATM   14  C22 UNL     1      22.739   0.977  53.138  1.00  0.00     0.053 A 
HETATM   15  C23 UNL     1      22.339   4.404  51.593  1.00  0.00     0.172 C 
ENDROOT
BRANCH   1  16
HETATM   16  C6  UNL     1      22.920   4.295  48.310  1.00  0.00     0.091 C 
BRANCH  16  17
HETATM   17  C5  UNL     1      21.860   4.357  47.562  1.00  0.00     0.090 C 
BRANCH  17  18
HETATM   18  N1  UNL     1      20.502   4.220  47.238  1.00  0.00    -0.394 N 
HETATM   19  C4  UNL     1      19.647   5.276  46.783  1.00  0.00     0.148 C 
BRANCH  18  20
HETATM   20  C3  UNL     1      19.969   2.897  47.380  1.00  0.00     0.121 C 
BRANCH  20  21
HETATM   21  C2  UNL     1      19.982   2.352  48.769  1.00  0.00     0.015 C 
HETATM   22  C1  UNL     1      20.946   1.231  48.997  1.00  0.00     0.006 C 
ENDBRANCH  20  21
ENDBRANCH  18  20
ENDBRANCH  17  18
ENDBRANCH  16  17
ENDBRANCH   1  16
BRANCH  13  23
HETATM   23  N5  UNL     1      24.760  -0.264  53.712  1.00  0.00    -0.370 N 
HETATM   24  H18 UNL     1      25.396   0.137  54.425  1.00  0.00     0.161 HD
BRANCH  23  25
HETATM   25  C15 UNL     1      25.729  -0.932  52.915  1.00  0.00     0.160 C 
BRANCH  25  26
HETATM   26  C16 UNL     1      27.098  -0.426  53.167  1.00  0.00    -0.041 A 
HETATM   27  C17 UNL     1      28.043  -1.463  53.151  1.00  0.00     0.009 A 
HETATM   28  C18 UNL     1      29.391  -1.322  53.352  1.00  0.00     0.001 A 
HETATM   29  C19 UNL     1      29.904  -0.066  53.595  1.00  0.00     0.000 A 
HETATM   30  C20 UNL     1      29.002   0.972  53.617  1.00  0.00     0.001 A 
HETATM   31  C21 UNL     1      27.659   0.827  53.415  1.00  0.00     0.009 A 
ENDBRANCH  25  26
ENDBRANCH  23  25
ENDBRANCH  13  23
TORSDOF 8
ENDMDL
MODEL 2
REMARK VINA RESULT:      -7.7      3.125      5.704
REMARK  8 active torsions:
REMARK  status: ('A' for Active; 'I' for Inactive)
REMARK    1  A    between atoms: C2_2  and  C3_3 
REMARK    2  A    between atoms: C3_3  and  N1_4 
REMARK    3  A    between atoms: N1_4  and  C5_6 
REMARK    4  A    between atoms: C5_6  and  C6_7 
REMARK    5  A    between atoms: C6_7  and  C7_8 
REMARK       I    between atoms: C7_8  and  N2_10 
REMARK    6  A    between atoms: C14_20  and  N5_21 
REMARK    7  A    between atoms: N5_21  and  C15_22 
REMARK    8  A    between atoms: C15_22  and  C16_23 
ROOT
HETATM    1  C7  UNL     1      19.773   1.821  50.933  1.00  0.00     0.244 C 
HETATM    2  O1  UNL     1      19.999   2.718  50.092  1.00  0.00    -0.268 OA
HETATM    3  N2  UNL     1      20.571   2.026  52.086  1.00  0.00    -0.344 N 
HETATM    4  C8  UNL     1      21.434   3.173  52.019  1.00  0.00     0.131 C 
HETATM    5  C9  UNL     1      22.902   2.846  51.879  1.00  0.00     0.060 C 
HETATM    6  C10 UNL     1      23.264   1.564  52.531  1.00  0.00    -0.025 A 
HETATM    7  C11 UNL     1      22.251   0.915  53.243  1.00  0.00     0.010 A 
HETATM    8  S1  UNL     1      22.883  -0.521  53.872  1.00  0.00    -0.072 SA
HETATM    9  C12 UNL     1      24.586  -0.240  53.147  1.00  0.00     0.114 A 
HETATM   10  N3  UNL     1      25.728  -1.053  53.231  1.00  0.00    -0.234 NA
HETATM   11  C13 UNL     1      26.831  -0.655  52.623  1.00  0.00     0.236 A 
HETATM   12  N4  UNL     1      26.743   0.481  51.992  1.00  0.00    -0.224 NA
HETATM   13  C14 UNL     1      25.678   1.258  51.904  1.00  0.00     0.138 A 
HETATM   14  C22 UNL     1      24.468   0.991  52.469  1.00  0.00     0.053 A 
HETATM   15  C23 UNL     1      20.830   1.413  53.398  1.00  0.00     0.172 C 
ENDROOT
BRANCH   1  16
HETATM   16  C6  UNL     1      18.858   0.727  50.796  1.00  0.00     0.091 C 
BRANCH  16  17
HETATM   17  C5  UNL     1      17.828  -0.064  50.834  1.00  0.00     0.090 C 
BRANCH  17  18
HETATM   18  N1  UNL     1      16.728  -0.719  51.405  1.00  0.00    -0.394 N 
HETATM   19  C4  UNL     1      15.607  -1.243  50.681  1.00  0.00     0.148 C 
BRANCH  18  20
HETATM   20  C3  UNL     1      16.771  -0.863  52.830  1.00  0.00     0.121 C 
BRANCH  20  21
HETATM   21  C2  UNL     1      17.865  -1.736  53.348  1.00  0.00     0.015 C 
HETATM   22  C1  UNL     1      17.489  -3.171  53.540  1.00  0.00     0.006 C 
ENDBRANCH  20  21
ENDBRANCH  18  20
ENDBRANCH  17  18
ENDBRANCH  16  17
ENDBRANCH   1  16
BRANCH  13  23
HETATM   23  N5  UNL     1      25.945   2.452  51.188  1.00  0.00    -0.370 N 
HETATM   24  H18 UNL     1      25.804   3.432  51.492  1.00  0.00     0.161 HD
BRANCH  23  25
HETATM   25  C15 UNL     1      26.460   2.705  49.887  1.00  0.00     0.160 C 
BRANCH  25  26
HETATM   26  C16 UNL     1      26.290   4.122  49.491  1.00  0.00    -0.041 A 
HETATM   27  C17 UNL     1      27.435   4.622  48.853  1.00  0.00     0.009 A 
HETATM   28  C18 UNL     1      27.593   5.895  48.371  1.00  0.00     0.001 A 
HETATM   29  C19 UNL     1      26.557   6.795  48.503  1.00  0.00     0.000 A 
HETATM   30  C20 UNL     1      25.421   6.335  49.124  1.00  0.00     0.001 A 
HETATM   31  C21 UNL     1      25.266   5.065  49.604  1.00  0.00     0.009 A 
ENDBRANCH  25  26
ENDBRANCH  23  25
ENDBRANCH  13  23
TORSDOF 8
ENDMDL
MODEL 3
REMARK VINA RESULT:      -7.6      1.417      2.195
REMARK  8 active torsions:
REMARK  status: ('A' for Active; 'I' for Inactive)
REMARK    1  A    between atoms: C2_2  and  C3_3 
REMARK    2  A    between atoms: C3_3  and  N1_4 
REMARK    3  A    between atoms: N1_4  and  C5_6 
REMARK    4  A    between atoms: C5_6  and  C6_7 
REMARK    5  A    between atoms: C6_7  and  C7_8 
REMARK       I    between atoms: C7_8  and  N2_10 
REMARK    6  A    between atoms: C14_20  and  N5_21 
REMARK    7  A    between atoms: N5_21  and  C15_22 
REMARK    8  A    between atoms: C15_22  and  C16_23 
ROOT
HETATM    1  C7  UNL     1      23.641   3.637  49.309  1.00  0.00     0.244 C 
HETATM    2  O1  UNL     1      24.862   3.389  49.201  1.00  0.00    -0.268 OA
HETATM    3  N2  UNL     1      23.296   3.789  50.674  1.00  0.00    -0.344 N 
HETATM    4  C8  UNL     1      24.390   3.618  51.590  1.00  0.00     0.131 C 
HETATM    5  C9  UNL     1      24.332   2.349  52.407  1.00  0.00     0.060 C 
HETATM    6  C10 UNL     1      22.941   1.908  52.674  1.00  0.00    -0.025 A 
HETATM    7  C11 UNL     1      21.919   2.754  52.233  1.00  0.00     0.010 A 
HETATM    8  S1  UNL     1      20.437   2.041  52.622  1.00  0.00    -0.072 SA
HETATM    9  C12 UNL     1      21.222   0.537  53.412  1.00  0.00     0.114 A 
HETATM   10  N3  UNL     1      20.602  -0.580  53.996  1.00  0.00    -0.234 NA
HETATM   11  C13 UNL     1      21.365  -1.540  54.486  1.00  0.00     0.236 A 
HETATM   12  N4  UNL     1      22.648  -1.346  54.377  1.00  0.00    -0.224 NA
HETATM   13  C14 UNL     1      23.248  -0.302  53.832  1.00  0.00     0.138 A 
HETATM   14  C22 UNL     1      22.607   0.767  53.281  1.00  0.00     0.053 A 
HETATM   15  C23 UNL     1      22.120   4.071  51.512  1.00  0.00     0.172 C 
ENDROOT
BRANCH   1  16
HETATM   16  C6  UNL     1      22.692   3.756  48.241  1.00  0.00     0.091 C 
BRANCH  16  17
HETATM   17  C5  UNL     1      22.048   4.082  47.162  1.00  0.00     0.090 C 
BRANCH  17  18
HETATM   18  N1  UNL     1      21.854   4.677  45.907  1.00  0.00    -0.394 N 
HETATM   19  C4  UNL     1      21.276   4.034  44.764  1.00  0.00     0.148 C 
BRANCH  18  20
HETATM   20  C3  UNL     1      22.276   6.042  45.804  1.00  0.00     0.121 C 
BRANCH  20  21
HETATM   21  C2  UNL     1      22.345   6.584  44.416  1.00  0.00     0.015 C 
HETATM   22  C1  UNL     1      23.533   7.449  44.134  1.00  0.00     0.006 C 
ENDBRANCH  20  21
ENDBRANCH  18  20
ENDBRANCH  17  18
ENDBRANCH  16  17
ENDBRANCH   1  16
BRANCH  13  23
HETATM   23  N5  UNL     1      24.659  -0.384  53.928  1.00  0.00    -0.370 N 
HETATM   24  H18 UNL     1      25.279  -0.005  54.667  1.00  0.00     0.161 HD
BRANCH  23  25
HETATM   25  C15 UNL     1      25.653  -0.973  53.099  1.00  0.00     0.160 C 
BRANCH  25  26
HETATM   26  C16 UNL     1      27.005  -0.444  53.394  1.00  0.00    -0.041 A 
HETATM   27  C17 UNL     1      28.003  -1.390  53.113  1.00  0.00     0.009 A 
HETATM   28  C18 UNL     1      29.350  -1.207  53.280  1.00  0.00     0.001 A 
HETATM   29  C19 UNL     1      29.807  -0.001  53.767  1.00  0.00     0.000 A 
HETATM   30  C20 UNL     1      28.853   0.946  54.052  1.00  0.00     0.001 A 
HETATM   31  C21 UNL     1      27.511   0.761  53.883  1.00  0.00     0.009 A 
ENDBRANCH  25  26
ENDBRANCH  23  25
ENDBRANCH  13  23
TORSDOF 8
ENDMDL
MODEL 4
REMARK VINA RESULT:      -7.6      3.142      6.408
REMARK  8 active torsions:
REMARK  status: ('A' for Active; 'I' for Inactive)
REMARK    1  A    between atoms: C2_2  and  C3_3 
REMARK    2  A    between atoms: C3_3  and  N1_4 
REMARK    3  A    between atoms: N1_4  and  C5_6 
REMARK    4  A    between atoms: C5_6  and  C6_7 
REMARK    5  A    between atoms: C6_7  and  C7_8 
REMARK       I    between atoms: C7_8  and  N2_10 
REMARK    6  A    between atoms: C14_20  and  N5_21 
REMARK    7  A    between atoms: N5_21  and  C15_22 
REMARK    8  A    between atoms: C15_22  and  C16_23 
ROOT
HETATM    1  C7  UNL     1      23.486   5.425  50.246  1.00  0.00     0.244 C 
HETATM    2  O1  UNL     1      22.249   5.542  50.385  1.00  0.00    -0.268 OA
HETATM    3  N2  UNL     1      23.809   4.095  49.879  1.00  0.00    -0.344 N 
HETATM    4  C8  UNL     1      22.678   3.215  49.765  1.00  0.00     0.131 C 
HETATM    5  C9  UNL     1      22.577   2.179  50.860  1.00  0.00     0.060 C 
HETATM    6  C10 UNL     1      23.904   1.772  51.382  1.00  0.00    -0.025 A 
HETATM    7  C11 UNL     1      25.023   2.312  50.740  1.00  0.00     0.010 A 
HETATM    8  S1  UNL     1      26.409   1.731  51.514  1.00  0.00    -0.072 SA
HETATM    9  C12 UNL     1      25.445   0.717  52.758  1.00  0.00     0.114 A 
HETATM   10  N3  UNL     1      25.925  -0.088  53.804  1.00  0.00    -0.234 NA
HETATM   11  C13 UNL     1      25.049  -0.709  54.574  1.00  0.00     0.236 A 
HETATM   12  N4  UNL     1      23.799  -0.506  54.275  1.00  0.00    -0.224 NA
HETATM   13  C14 UNL     1      23.330   0.247  53.295  1.00  0.00     0.138 A 
HETATM   14  C22 UNL     1      24.097   0.952  52.418  1.00  0.00     0.053 A 
HETATM   15  C23 UNL     1      24.985   3.268  49.566  1.00  0.00     0.172 C 
ENDROOT
BRANCH   1  16
HETATM   16  C6  UNL     1      24.470   6.451  50.424  1.00  0.00     0.091 C 
BRANCH  16  17
HETATM   17  C5  UNL     1      25.475   7.265  50.303  1.00  0.00     0.090 C 
BRANCH  17  18
HETATM   18  N1  UNL     1      26.513   7.941  49.645  1.00  0.00    -0.394 N 
HETATM   19  C4  UNL     1      27.252   9.047  50.179  1.00  0.00     0.148 C 
BRANCH  18  20
HETATM   20  C3  UNL     1      26.835   7.447  48.339  1.00  0.00     0.121 C 
BRANCH  20  21
HETATM   21  C2  UNL     1      28.156   6.763  48.225  1.00  0.00     0.015 C 
HETATM   22  C1  UNL     1      28.125   5.287  48.469  1.00  0.00     0.006 C 
ENDBRANCH  20  21
ENDBRANCH  18  20
ENDBRANCH  17  18
ENDBRANCH  16  17
ENDBRANCH   1  16
BRANCH  13  23
HETATM   23  N5  UNL     1      21.916   0.203  53.215  1.00  0.00    -0.370 N 
HETATM   24  H18 UNL     1      21.290   0.710  52.563  1.00  0.00     0.161 HD
BRANCH  23  25
HETATM   25  C15 UNL     1      20.926  -0.502  53.954  1.00  0.00     0.160 C 
BRANCH  25  26
HETATM   26  C16 UNL     1      19.644  -0.590  53.217  1.00  0.00    -0.041 A 
HETATM   27  C17 UNL     1      19.671   0.170  52.039  1.00  0.00     0.009 A 
HETATM   28  C18 UNL     1      18.643   0.296  51.142  1.00  0.00     0.001 A 
HETATM   29  C19 UNL     1      17.459  -0.368  51.383  1.00  0.00     0.000 A 
HETATM   30  C20 UNL     1      17.401  -1.123  52.530  1.00  0.00     0.001 A 
HETATM   31  C21 UNL     1      18.429  -1.247  53.422  1.00  0.00     0.009 A 
ENDBRANCH  25  26
ENDBRANCH  23  25
ENDBRANCH  13  23
TORSDOF 8
ENDMDL
MODEL 5
REMARK VINA RESULT:      -7.4      2.856      8.424
REMARK  8 active torsions:
REMARK  status: ('A' for Active; 'I' for Inactive)
REMARK    1  A    between atoms: C2_2  and  C3_3 
REMARK    2  A    between atoms: C3_3  and  N1_4 
REMARK    3  A    between atoms: N1_4  and  C5_6 
REMARK    4  A    between atoms: C5_6  and  C6_7 
REMARK    5  A    between atoms: C6_7  and  C7_8 
REMARK       I    between atoms: C7_8  and  N2_10 
REMARK    6  A    between atoms: C14_20  and  N5_21 
REMARK    7  A    between atoms: N5_21  and  C15_22 
REMARK    8  A    between atoms: C15_22  and  C16_23 
ROOT
HETATM    1  C7  UNL     1      24.504  -0.158  53.146  1.00  0.00     0.244 C 
HETATM    2  O1  UNL     1      23.683  -1.068  53.395  1.00  0.00    -0.268 OA
HETATM    3  N2  UNL     1      23.830   1.081  53.020  1.00  0.00    -0.344 N 
HETATM    4  C8  UNL     1      22.405   1.007  53.192  1.00  0.00     0.131 C 
HETATM    5  C9  UNL     1      21.609   1.206  51.923  1.00  0.00     0.060 C 
HETATM    6  C10 UNL     1      22.290   2.106  50.960  1.00  0.00    -0.025 A 
HETATM    7  C11 UNL     1      23.481   2.699  51.390  1.00  0.00     0.010 A 
HETATM    8  S1  UNL     1      24.082   3.652  50.130  1.00  0.00    -0.072 SA
HETATM    9  C12 UNL     1      22.673   3.236  48.971  1.00  0.00     0.114 A 
HETATM   10  N3  UNL     1      22.458   3.664  47.650  1.00  0.00    -0.234 NA
HETATM   11  C13 UNL     1      21.387   3.227  47.013  1.00  0.00     0.236 A 
HETATM   12  N4  UNL     1      20.619   2.424  47.692  1.00  0.00    -0.224 NA
HETATM   13  C14 UNL     1      20.805   2.013  48.934  1.00  0.00     0.138 A 
HETATM   14  C22 UNL     1      21.857   2.367  49.725  1.00  0.00     0.053 A 
HETATM   15  C23 UNL     1      24.122   2.497  52.747  1.00  0.00     0.172 C 
ENDROOT
BRANCH   1  16
HETATM   16  C6  UNL     1      25.922  -0.300  52.996  1.00  0.00     0.091 C 
BRANCH  16  17
HETATM   17  C5  UNL     1      27.172  -0.631  53.115  1.00  0.00     0.090 C 
BRANCH  17  18
HETATM   18  N1  UNL     1      28.431  -0.713  53.728  1.00  0.00    -0.394 N 
HETATM   19  C4  UNL     1      29.463  -1.645  53.383  1.00  0.00     0.148 C 
BRANCH  18  20
HETATM   20  C3  UNL     1      28.665   0.237  54.775  1.00  0.00     0.121 C 
BRANCH  20  21
HETATM   21  C2  UNL     1      29.425   1.455  54.370  1.00  0.00     0.015 C 
HETATM   22  C1  UNL     1      28.627   2.477  53.623  1.00  0.00     0.006 C 
ENDBRANCH  20  21
ENDBRANCH  18  20
ENDBRANCH  17  18
ENDBRANCH  16  17
ENDBRANCH   1  16
BRANCH  13  23
HETATM   23  N5  UNL     1      19.747   1.186  49.389  1.00  0.00    -0.370 N 
HETATM   24  H18 UNL     1      19.718   0.153  49.455  1.00  0.00     0.161 HD
BRANCH  23  25
HETATM   25  C15 UNL     1      18.442   1.467  49.878  1.00  0.00     0.160 C 
BRANCH  25  26
HETATM   26  C16 UNL     1      17.978   0.440  50.839  1.00  0.00    -0.041 A 
HETATM   27  C17 UNL     1      16.706  -0.046  50.503  1.00  0.00     0.009 A 
HETATM   28  C18 UNL     1      16.004  -0.998  51.194  1.00  0.00     0.001 A 
HETATM   29  C19 UNL     1      16.562  -1.553  52.325  1.00  0.00     0.000 A 
HETATM   30  C20 UNL     1      17.809  -1.097  52.681  1.00  0.00     0.001 A 
HETATM   31  C21 UNL     1      18.507  -0.148  51.990  1.00  0.00     0.009 A 
ENDBRANCH  25  26
ENDBRANCH  23  25
ENDBRANCH  13  23
TORSDOF 8
ENDMDL
MODEL 6
REMARK VINA RESULT:      -7.2      2.742      5.478
REMARK  8 active torsions:
REMARK  status: ('A' for Active; 'I' for Inactive)
REMARK    1  A    between atoms: C2_2  and  C3_3 
REMARK    2  A    between atoms: C3_3  and  N1_4 
REMARK    3  A    between atoms: N1_4  and  C5_6 
REMARK    4  A    between atoms: C5_6  and  C6_7 
REMARK    5  A    between atoms: C6_7  and  C7_8 
REMARK       I    between atoms: C7_8  and  N2_10 
REMARK    6  A    between atoms: C14_20  and  N5_21 
REMARK    7  A    between atoms: N5_21  and  C15_22 
REMARK    8  A    between atoms: C15_22  and  C16_23 
ROOT
HETATM    1  C7  UNL     1      21.304   4.253  50.405  1.00  0.00     0.244 C 
HETATM    2  O1  UNL     1      20.452   3.527  50.963  1.00  0.00    -0.268 OA
HETATM    3  N2  UNL     1      22.295   3.452  49.787  1.00  0.00    -0.344 N 
HETATM    4  C8  UNL     1      22.104   2.036  49.948  1.00  0.00     0.131 C 
HETATM    5  C9  UNL     1      23.096   1.371  50.874  1.00  0.00     0.060 C 
HETATM    6  C10 UNL     1      24.419   2.042  50.867  1.00  0.00    -0.025 A 
HETATM    7  C11 UNL     1      24.583   3.094  49.962  1.00  0.00     0.010 A 
HETATM    8  S1  UNL     1      26.145   3.714  50.149  1.00  0.00    -0.072 SA
HETATM    9  C12 UNL     1      26.600   2.507  51.506  1.00  0.00     0.114 A 
HETATM   10  N3  UNL     1      27.803   2.393  52.221  1.00  0.00    -0.234 NA
HETATM   11  C13 UNL     1      27.895   1.463  53.154  1.00  0.00     0.236 A 
HETATM   12  N4  UNL     1      26.834   0.727  53.318  1.00  0.00    -0.224 NA
HETATM   13  C14 UNL     1      25.695   0.820  52.654  1.00  0.00     0.138 A 
HETATM   14  C22 UNL     1      25.439   1.723  51.667  1.00  0.00     0.053 A 
HETATM   15  C23 UNL     1      23.529   3.597  48.999  1.00  0.00     0.172 C 
ENDROOT
BRANCH   1  16
HETATM   16  C6  UNL     1      21.320   5.686  50.372  1.00  0.00     0.091 C 
BRANCH  16  17
HETATM   17  C5  UNL     1      21.654   6.941  50.382  1.00  0.00     0.090 C 
BRANCH  17  18
HETATM   18  N1  UNL     1      22.360   8.089  49.994  1.00  0.00    -0.394 N 
HETATM   19  C4  UNL     1      21.817   9.184  49.246  1.00  0.00     0.148 C 
BRANCH  18  20
HETATM   20  C3  UNL     1      23.732   8.133  50.405  1.00  0.00     0.121 C 
BRANCH  20  21
HETATM   21  C2  UNL     1      24.724   8.269  49.299  1.00  0.00     0.015 C 
HETATM   22  C1  UNL     1      24.888   7.051  48.446  1.00  0.00     0.006 C 
ENDBRANCH  20  21
ENDBRANCH  18  20
ENDBRANCH  17  18
ENDBRANCH  16  17
ENDBRANCH   1  16
BRANCH  13  23
HETATM   23  N5  UNL     1      24.764  -0.174  53.046  1.00  0.00    -0.370 N 
HETATM   24  H18 UNL     1      24.312  -0.901  52.462  1.00  0.00     0.161 HD
BRANCH  23  25
HETATM   25  C15 UNL     1      24.162  -0.498  54.293  1.00  0.00     0.160 C 
BRANCH  25  26
HETATM   26  C16 UNL     1      22.700  -0.698  54.166  1.00  0.00    -0.041 A 
HETATM   27  C17 UNL     1      22.050   0.478  53.762  1.00  0.00     0.009 A 
HETATM   28  C18 UNL     1      20.703   0.620  53.558  1.00  0.00     0.001 A 
HETATM   29  C19 UNL     1      19.877  -0.466  53.756  1.00  0.00     0.000 A 
HETATM   30  C20 UNL     1      20.484  -1.634  54.153  1.00  0.00     0.001 A 
HETATM   31  C21 UNL     1      21.828  -1.772  54.355  1.00  0.00     0.009 A 
ENDBRANCH  25  26
ENDBRANCH  23  25
ENDBRANCH  13  23
TORSDOF 8
ENDMDL
MODEL 7
REMARK VINA RESULT:      -6.8      3.255      5.473
REMARK  8 active torsions:
REMARK  status: ('A' for Active; 'I' for Inactive)
REMARK    1  A    between atoms: C2_2  and  C3_3 
REMARK    2  A    between atoms: C3_3  and  N1_4 
REMARK    3  A    between atoms: N1_4  and  C5_6 
REMARK    4  A    between atoms: C5_6  and  C6_7 
REMARK    5  A    between atoms: C6_7  and  C7_8 
REMARK       I    between atoms: C7_8  and  N2_10 
REMARK    6  A    between atoms: C14_20  and  N5_21 
REMARK    7  A    between atoms: N5_21  and  C15_22 
REMARK    8  A    between atoms: C15_22  and  C16_23 
ROOT
HETATM    1  C7  UNL     1      19.654   2.320  50.098  1.00  0.00     0.244 C 
HETATM    2  O1  UNL     1      20.025   3.102  49.195  1.00  0.00    -0.268 OA
HETATM    3  N2  UNL     1      20.337   2.615  51.304  1.00  0.00    -0.344 N 
HETATM    4  C8  UNL     1      21.274   3.700  51.210  1.00  0.00     0.131 C 
HETATM    5  C9  UNL     1      22.725   3.284  51.273  1.00  0.00     0.060 C 
HETATM    6  C10 UNL     1      22.933   2.068  52.096  1.00  0.00    -0.025 A 
HETATM    7  C11 UNL     1      21.811   1.558  52.756  1.00  0.00     0.010 A 
HETATM    8  S1  UNL     1      22.279   0.173  53.604  1.00  0.00    -0.072 SA
HETATM    9  C12 UNL     1      24.063   0.280  53.048  1.00  0.00     0.114 A 
HETATM   10  N3  UNL     1      25.136  -0.576  53.348  1.00  0.00    -0.234 NA
HETATM   11  C13 UNL     1      26.320  -0.309  52.827  1.00  0.00     0.236 A 
HETATM   12  N4  UNL     1      26.373   0.750  52.072  1.00  0.00    -0.224 NA
HETATM   13  C14 UNL     1      25.375   1.567  51.780  1.00  0.00     0.138 A 
HETATM   14  C22 UNL     1      24.098   1.430  52.232  1.00  0.00     0.053 A 
HETATM   15  C23 UNL     1      20.416   2.144  52.696  1.00  0.00     0.172 C 
ENDROOT
BRANCH   1  16
HETATM   16  C6  UNL     1      18.690   1.268  49.979  1.00  0.00     0.091 C 
BRANCH  16  17
HETATM   17  C5  UNL     1      17.656   0.490  50.093  1.00  0.00     0.090 C 
BRANCH  17  18
HETATM   18  N1  UNL     1      16.480  -0.014  50.668  1.00  0.00    -0.394 N 
HETATM   19  C4  UNL     1      15.686  -1.080  50.133  1.00  0.00     0.148 C 
BRANCH  18  20
HETATM   20  C3  UNL     1      16.081   0.610  51.894  1.00  0.00     0.121 C 
BRANCH  20  21
HETATM   21  C2  UNL     1      15.045   1.675  51.757  1.00  0.00     0.015 C 
HETATM   22  C1  UNL     1      15.509   3.055  52.103  1.00  0.00     0.006 C 
ENDBRANCH  20  21
ENDBRANCH  18  20
ENDBRANCH  17  18
ENDBRANCH  16  17
ENDBRANCH   1  16
BRANCH  13  23
HETATM   23  N5  UNL     1      25.792   2.655  50.973  1.00  0.00    -0.370 N 
HETATM   24  H18 UNL     1      25.653   3.669  51.136  1.00  0.00     0.161 HD
BRANCH  23  25
HETATM   25  C15 UNL     1      26.495   2.731  49.740  1.00  0.00     0.160 C 
BRANCH  25  26
HETATM   26  C16 UNL     1      26.627   4.128  49.264  1.00  0.00    -0.041 A 
HETATM   27  C17 UNL     1      25.419   4.831  49.381  1.00  0.00     0.009 A 
HETATM   28  C18 UNL     1      25.213   6.138  49.026  1.00  0.00     0.001 A 
HETATM   29  C19 UNL     1      26.263   6.862  48.502  1.00  0.00     0.000 A 
HETATM   30  C20 UNL     1      27.461   6.201  48.374  1.00  0.00     0.001 A 
HETATM   31  C21 UNL     1      27.662   4.898  48.731  1.00  0.00     0.009 A 
ENDBRANCH  25  26
ENDBRANCH  23  25
ENDBRANCH  13  23
TORSDOF 8
ENDMDL
MODEL 8
REMARK VINA RESULT:      -6.7      2.835      5.967
REMARK  8 active torsions:
REMARK  status: ('A' for Active; 'I' for Inactive)
REMARK    1  A    between atoms: C2_2  and  C3_3 
REMARK    2  A    between atoms: C3_3  and  N1_4 
REMARK    3  A    between atoms: N1_4  and  C5_6 
REMARK    4  A    between atoms: C5_6  and  C6_7 
REMARK    5  A    between atoms: C6_7  and  C7_8 
REMARK       I    between atoms: C7_8  and  N2_10 
REMARK    6  A    between atoms: C14_20  and  N5_21 
REMARK    7  A    between atoms: N5_21  and  C15_22 
REMARK    8  A    between atoms: C15_22  and  C16_23 
ROOT
HETATM    1  C7  UNL     1      21.008   4.126  50.496  1.00  0.00     0.244 C 
HETATM    2  O1  UNL     1      19.870   3.633  50.660  1.00  0.00    -0.268 OA
HETATM    3  N2  UNL     1      21.924   3.114  50.115  1.00  0.00    -0.344 N 
HETATM    4  C8  UNL     1      21.354   1.798  50.020  1.00  0.00     0.131 C 
HETATM    5  C9  UNL     1      21.787   0.847  51.111  1.00  0.00     0.060 C 
HETATM    6  C10 UNL     1      23.157   1.132  51.604  1.00  0.00    -0.025 A 
HETATM    7  C11 UNL     1      23.864   2.141  50.942  1.00  0.00     0.010 A 
HETATM    8  S1  UNL     1      25.373   2.304  51.685  1.00  0.00    -0.072 SA
HETATM    9  C12 UNL     1      25.043   0.958  52.943  1.00  0.00     0.114 A 
HETATM   10  N3  UNL     1      25.872   0.488  53.975  1.00  0.00    -0.234 NA
HETATM   11  C13 UNL     1      25.420  -0.473  54.759  1.00  0.00     0.236 A 
HETATM   12  N4  UNL     1      24.220  -0.900  54.486  1.00  0.00    -0.224 NA
HETATM   13  C14 UNL     1      23.427  -0.471  53.520  1.00  0.00     0.138 A 
HETATM   14  C22 UNL     1      23.742   0.512  52.631  1.00  0.00     0.053 A 
HETATM   15  C23 UNL     1      23.346   2.955  49.775  1.00  0.00     0.172 C 
ENDROOT
BRANCH   1  16
HETATM   16  C6  UNL     1      21.379   5.500  50.659  1.00  0.00     0.091 C 
BRANCH  16  17
HETATM   17  C5  UNL     1      21.805   6.716  50.495  1.00  0.00     0.090 C 
BRANCH  17  18
HETATM   18  N1  UNL     1      22.741   7.732  50.256  1.00  0.00    -0.394 N 
HETATM   19  C4  UNL     1      24.073   7.775  50.784  1.00  0.00     0.148 C 
BRANCH  18  20
HETATM   20  C3  UNL     1      22.291   8.792  49.403  1.00  0.00     0.121 C 
BRANCH  20  21
HETATM   21  C2  UNL     1      21.916   8.379  48.019  1.00  0.00     0.015 C 
HETATM   22  C1  UNL     1      23.054   7.900  47.174  1.00  0.00     0.006 C 
ENDBRANCH  20  21
ENDBRANCH  18  20
ENDBRANCH  17  18
ENDBRANCH  16  17
ENDBRANCH   1  16
BRANCH  13  23
HETATM   23  N5  UNL     1      22.208  -1.191  53.469  1.00  0.00    -0.370 N 
HETATM   24  H18 UNL     1      21.887  -1.867  52.751  1.00  0.00     0.161 HD
BRANCH  23  25
HETATM   25  C15 UNL     1      21.072  -1.234  54.323  1.00  0.00     0.160 C 
BRANCH  25  26
HETATM   26  C16 UNL     1      19.808  -1.048  53.574  1.00  0.00    -0.041 A 
HETATM   27  C17 UNL     1      18.877  -2.054  53.872  1.00  0.00     0.009 A 
HETATM   28  C18 UNL     1      17.618  -2.164  53.343  1.00  0.00     0.001 A 
HETATM   29  C19 UNL     1      17.189  -1.221  52.434  1.00  0.00     0.000 A 
HETATM   30  C20 UNL     1      18.079  -0.221  52.121  1.00  0.00     0.001 A 
HETATM   31  C21 UNL     1      19.334  -0.115  52.650  1.00  0.00     0.009 A 
ENDBRANCH  25  26
ENDBRANCH  23  25
ENDBRANCH  13  23
TORSDOF 8
ENDMDL
MODEL 9
REMARK VINA RESULT:      -6.6      5.245      8.422
REMARK  8 active torsions:
REMARK  status: ('A' for Active; 'I' for Inactive)
REMARK    1  A    between atoms: C2_2  and  C3_3 
REMARK    2  A    between atoms: C3_3  and  N1_4 
REMARK    3  A    between atoms: N1_4  and  C5_6 
REMARK    4  A    between atoms: C5_6  and  C6_7 
REMARK    5  A    between atoms: C6_7  and  C7_8 
REMARK       I    between atoms: C7_8  and  N2_10 
REMARK    6  A    between atoms: C14_20  and  N5_21 
REMARK    7  A    between atoms: N5_21  and  C15_22 
REMARK    8  A    between atoms: C15_22  and  C16_23 
ROOT
HETATM    1  C7  UNL     1      25.172   2.525  51.468  1.00  0.00     0.244 C 
HETATM    2  O1  UNL     1      26.347   2.345  51.856  1.00  0.00    -0.268 OA
HETATM    3  N2  UNL     1      25.171   3.001  50.133  1.00  0.00    -0.344 N 
HETATM    4  C8  UNL     1      26.477   3.171  49.559  1.00  0.00     0.131 C 
HETATM    5  C9  UNL     1      26.895   4.610  49.364  1.00  0.00     0.060 C 
HETATM    6  C10 UNL     1      25.743   5.506  49.103  1.00  0.00    -0.025 A 
HETATM    7  C11 UNL     1      24.490   4.897  48.977  1.00  0.00     0.010 A 
HETATM    8  S1  UNL     1      23.339   6.106  48.709  1.00  0.00    -0.072 SA
HETATM    9  C12 UNL     1      24.594   7.493  48.768  1.00  0.00     0.114 A 
HETATM   10  N3  UNL     1      24.390   8.876  48.631  1.00  0.00    -0.234 NA
HETATM   11  C13 UNL     1      25.435   9.679  48.722  1.00  0.00     0.236 A 
HETATM   12  N4  UNL     1      26.576   9.090  48.932  1.00  0.00    -0.224 NA
HETATM   13  C14 UNL     1      26.786   7.792  49.063  1.00  0.00     0.138 A 
HETATM   14  C22 UNL     1      25.819   6.835  48.998  1.00  0.00     0.053 A 
HETATM   15  C23 UNL     1      24.222   3.411  49.086  1.00  0.00     0.172 C 
ENDROOT
BRANCH   1  16
HETATM   16  C6  UNL     1      23.975   2.302  52.223  1.00  0.00     0.091 C 
BRANCH  16  17
HETATM   17  C5  UNL     1      22.879   1.825  52.731  1.00  0.00     0.090 C 
BRANCH  17  18
HETATM   18  N1  UNL     1      21.539   1.413  52.747  1.00  0.00    -0.394 N 
HETATM   19  C4  UNL     1      20.402   2.283  52.696  1.00  0.00     0.148 C 
BRANCH  18  20
HETATM   20  C3  UNL     1      21.335  -0.004  52.811  1.00  0.00     0.121 C 
BRANCH  20  21
HETATM   21  C2  UNL     1      22.412  -0.771  53.503  1.00  0.00     0.015 C 
HETATM   22  C1  UNL     1      22.143  -1.079  54.942  1.00  0.00     0.006 C 
ENDBRANCH  20  21
ENDBRANCH  18  20
ENDBRANCH  17  18
ENDBRANCH  16  17
ENDBRANCH   1  16
BRANCH  13  23
HETATM   23  N5  UNL     1      28.160   7.486  49.228  1.00  0.00    -0.370 N 
HETATM   24  H18 UNL     1      28.643   7.119  50.069  1.00  0.00     0.161 HD
BRANCH  23  25
HETATM   25  C15 UNL     1      29.282   7.570  48.359  1.00  0.00     0.160 C 
BRANCH  25  26
HETATM   26  C16 UNL     1      29.927   8.902  48.416  1.00  0.00    -0.041 A 
HETATM   27  C17 UNL     1      30.453   9.276  47.170  1.00  0.00     0.009 A 
HETATM   28  C18 UNL     1      31.111  10.446  46.895  1.00  0.00     0.001 A 
HETATM   29  C19 UNL     1      31.292  11.366  47.906  1.00  0.00     0.000 A 
HETATM   30  C20 UNL     1      30.787  11.029  49.139  1.00  0.00     0.001 A 
HETATM   31  C21 UNL     1      30.131   9.862  49.409  1.00  0.00     0.009 A 
ENDBRANCH  25  26
ENDBRANCH  23  25
ENDBRANCH  13  23
TORSDOF 8
ENDMDL
