MODEL 1
REMARK VINA RESULT:      -7.3      0.000      0.000
REMARK  7 active torsions:
REMARK  status: ('A' for Active; 'I' for Inactive)
REMARK    1  A    between atoms: C10_13  and  C11_14 
REMARK    2  A    between atoms: C11_14  and  C12_15 
REMARK    3  A    between atoms: C12_15  and  O1_16 
REMARK    4  A    between atoms: C14_18  and  O2_19 
REMARK    5  A    between atoms: O2_19  and  C15_20 
REMARK    6  A    between atoms: C15_20  and  C16_21 
REMARK    7  A    between atoms: C16_21  and  O3_22 
ROOT
HETATM    1  C1  UNL     1      28.658   2.415  53.790  1.00  0.00     0.013 C 
HETATM    2  C2  UNL     1      27.724   1.635  53.597  1.00  0.00    -0.106 C 
HETATM    3  C3  UNL     1      26.580   0.649  53.372  1.00  0.00     0.041 C 
HETATM    4  C4  UNL     1      27.358  -0.516  52.670  1.00  0.00     0.031 C 
HETATM    5  C5  UNL     1      26.453   0.215  54.731  1.00  0.00     0.143 C 
HETATM    6  N1  UNL     1      25.544  -0.856  55.318  1.00  0.00    -0.373 N 
HETATM    7  C6  UNL     1      24.550  -0.900  54.277  1.00  0.00     0.121 C 
HETATM    8  N2  UNL     1      24.598  -0.787  52.851  1.00  0.00    -0.240 NA
HETATM    9  C7  UNL     1      24.519   0.794  52.828  1.00  0.00     0.150 A 
HETATM   10  N3  UNL     1      24.517   2.423  53.227  1.00  0.00    -0.280 NA
HETATM   11  C8  UNL     1      24.356   1.723  52.200  1.00  0.00     0.118 A 
HETATM   12  C9  UNL     1      25.823   1.394  52.269  1.00  0.00     0.111 A 
HETATM   13  C10 UNL     1      22.884   1.399  52.503  1.00  0.00     0.087 A 
HETATM   14  C14 UNL     1      21.986   0.696  53.312  1.00  0.00     0.062 C 
HETATM   15  C18 UNL     1      22.190  -0.145  54.520  1.00  0.00     0.037 C 
HETATM   16  C19 UNL     1      23.222  -0.934  55.016  1.00  0.00     0.052 C 
HETATM   17  H7  UNL     1      24.968  -1.581  55.757  1.00  0.00     0.161 HD
ENDROOT
BRANCH  13  18
HETATM   18  C11 UNL     1      22.121   2.153  51.524  1.00  0.00     0.050 C 
BRANCH  18  19
HETATM   19  C12 UNL     1      22.473   1.657  50.150  1.00  0.00     0.168 C 
BRANCH  19  20
HETATM   20  O1  UNL     1      21.559   0.799  49.588  1.00  0.00    -0.396 OA
HETATM   21  C13 UNL     1      20.263   1.271  49.526  1.00  0.00     0.201 C 
ENDBRANCH  19  20
ENDBRANCH  18  19
ENDBRANCH  13  18
BRANCH  14  22
HETATM   22  O2  UNL     1      20.682   0.726  53.023  1.00  0.00    -0.352 OA
BRANCH  22  23
HETATM   23  C15 UNL     1      19.920  -0.377  53.498  1.00  0.00     0.201 C 
BRANCH  23  24
HETATM   24  C16 UNL     1      18.650  -0.563  52.750  1.00  0.00     0.193 C 
BRANCH  24  25
HETATM   25  O3  UNL     1      17.600  -1.051  53.512  1.00  0.00    -0.394 OA
HETATM   26  C17 UNL     1      16.533  -1.478  52.739  1.00  0.00     0.201 C 
ENDBRANCH  24  25
ENDBRANCH  23  24
ENDBRANCH  22  23
ENDBRANCH  14  22
TORSDOF 7
ENDMDL
MODEL 2
REMARK VINA RESULT:      -7.0      2.053      3.935
REMARK  7 active torsions:
REMARK  status: ('A' for Active; 'I' for Inactive)
REMARK    1  A    between atoms: C10_13  and  C11_14 
REMARK    2  A    between atoms: C11_14  and  C12_15 
REMARK    3  A    between atoms: C12_15  and  O1_16 
REMARK    4  A    between atoms: C14_18  and  O2_19 
REMARK    5  A    between atoms: O2_19  and  C15_20 
REMARK    6  A    between atoms: C15_20  and  C16_21 
REMARK    7  A    between atoms: C16_21  and  O3_22 
ROOT
HETATM    1  C1  UNL     1      30.065  -1.275  53.498  1.00  0.00     0.013 C 
HETATM    2  C2  UNL     1      29.106  -0.520  53.669  1.00  0.00    -0.106 C 
HETATM    3  C3  UNL     1      27.935   0.436  53.881  1.00  0.00     0.041 C 
HETATM    4  C4  UNL     1      28.400   1.151  55.195  1.00  0.00     0.031 C 
HETATM    5  C5  UNL     1      28.275   1.362  52.841  1.00  0.00     0.143 C 
HETATM    6  N1  UNL     1      27.603   2.674  52.464  1.00  0.00    -0.373 N 
HETATM    7  C6  UNL     1      26.310   2.441  53.055  1.00  0.00     0.121 C 
HETATM    8  N2  UNL     1      25.867   1.795  54.253  1.00  0.00    -0.240 NA
HETATM    9  C7  UNL     1      25.816   0.343  53.625  1.00  0.00     0.150 A 
HETATM   10  N3  UNL     1      25.984  -1.004  52.639  1.00  0.00    -0.280 NA
HETATM   11  C8  UNL     1      25.465  -0.728  53.746  1.00  0.00     0.118 A 
HETATM   12  C9  UNL     1      26.859  -0.574  54.290  1.00  0.00     0.111 A 
HETATM   13  C10 UNL     1      24.181  -0.142  53.136  1.00  0.00     0.087 A 
HETATM   14  C14 UNL     1      23.603   0.915  52.427  1.00  0.00     0.062 C 
HETATM   15  C18 UNL     1      24.193   2.118  51.785  1.00  0.00     0.037 C 
HETATM   16  C19 UNL     1      25.317   2.908  52.003  1.00  0.00     0.052 C 
HETATM   17  H7  UNL     1      27.199   3.574  52.185  1.00  0.00     0.161 HD
ENDROOT
BRANCH  13  18
HETATM   18  C11 UNL     1      23.143  -1.112  53.435  1.00  0.00     0.050 C 
BRANCH  18  19
HETATM   19  C12 UNL     1      22.870  -1.090  54.913  1.00  0.00     0.168 C 
BRANCH  19  20
HETATM   20  O1  UNL     1      21.546  -1.194  55.263  1.00  0.00    -0.396 OA
HETATM   21  C13 UNL     1      20.677  -1.462  54.224  1.00  0.00     0.201 C 
ENDBRANCH  19  20
ENDBRANCH  18  19
ENDBRANCH  13  18
BRANCH  14  22
HETATM   22  O2  UNL     1      22.280   0.933  52.242  1.00  0.00    -0.352 OA
BRANCH  22  23
HETATM   23  C15 UNL     1      21.664   2.213  52.322  1.00  0.00     0.201 C 
BRANCH  23  24
HETATM   24  C16 UNL     1      20.207   2.133  52.601  1.00  0.00     0.193 C 
BRANCH  24  25
HETATM   25  O3  UNL     1      19.504   3.296  52.329  1.00  0.00    -0.394 OA
HETATM   26  C17 UNL     1      20.122   4.082  51.371  1.00  0.00     0.201 C 
ENDBRANCH  24  25
ENDBRANCH  23  24
ENDBRANCH  22  23
ENDBRANCH  14  22
TORSDOF 7
ENDMDL
MODEL 3
REMARK VINA RESULT:      -6.7      3.247      6.587
REMARK  7 active torsions:
REMARK  status: ('A' for Active; 'I' for Inactive)
REMARK    1  A    between atoms: C10_13  and  C11_14 
REMARK    2  A    between atoms: C11_14  and  C12_15 
REMARK    3  A    between atoms: C12_15  and  O1_16 
REMARK    4  A    between atoms: C14_18  and  O2_19 
REMARK    5  A    between atoms: O2_19  and  C15_20 
REMARK    6  A    between atoms: C15_20  and  C16_21 
REMARK    7  A    between atoms: C16_21  and  O3_22 
ROOT
HETATM    1  C1  UNL     1      21.568   7.344  50.818  1.00  0.00     0.013 C 
HETATM    2  C2  UNL     1      22.164   6.324  50.469  1.00  0.00    -0.106 C 
HETATM    3  C3  UNL     1      22.914   5.073  50.016  1.00  0.00     0.041 C 
HETATM    4  C4  UNL     1      22.315   4.903  48.578  1.00  0.00     0.031 C 
HETATM    5  C5  UNL     1      24.183   5.700  49.794  1.00  0.00     0.143 C 
HETATM    6  N1  UNL     1      25.468   5.101  49.240  1.00  0.00    -0.373 N 
HETATM    7  C6  UNL     1      25.201   3.712  49.510  1.00  0.00     0.121 C 
HETATM    8  N2  UNL     1      24.024   2.899  49.466  1.00  0.00    -0.240 NA
HETATM    9  C7  UNL     1      23.548   3.251  50.934  1.00  0.00     0.150 A 
HETATM   10  N3  UNL     1      23.346   3.934  52.453  1.00  0.00    -0.280 NA
HETATM   11  C8  UNL     1      22.851   2.993  51.790  1.00  0.00     0.118 A 
HETATM   12  C9  UNL     1      22.222   4.033  50.902  1.00  0.00     0.111 A 
HETATM   13  C10 UNL     1      23.981   2.004  52.118  1.00  0.00     0.087 A 
HETATM   14  C14 UNL     1      25.317   1.649  51.915  1.00  0.00     0.062 C 
HETATM   15  C18 UNL     1      26.419   2.318  51.175  1.00  0.00     0.037 C 
HETATM   16  C19 UNL     1      26.503   3.175  50.083  1.00  0.00     0.052 C 
HETATM   17  H7  UNL     1      26.350   4.751  48.854  1.00  0.00     0.161 HD
ENDROOT
BRANCH  13  18
HETATM   18  C11 UNL     1      23.386   1.038  53.025  1.00  0.00     0.050 C 
BRANCH  18  19
HETATM   19  C12 UNL     1      22.250   0.349  52.322  1.00  0.00     0.168 C 
BRANCH  19  20
HETATM   20  O1  UNL     1      21.458  -0.434  53.125  1.00  0.00    -0.396 OA
HETATM   21  C13 UNL     1      20.893   0.208  54.209  1.00  0.00     0.201 C 
ENDBRANCH  19  20
ENDBRANCH  18  19
ENDBRANCH  13  18
BRANCH  14  22
HETATM   22  O2  UNL     1      25.782   0.513  52.445  1.00  0.00    -0.352 OA
BRANCH  22  23
HETATM   23  C15 UNL     1      27.056   0.601  53.070  1.00  0.00     0.201 C 
BRANCH  23  24
HETATM   24  C16 UNL     1      27.007   0.284  54.521  1.00  0.00     0.193 C 
BRANCH  24  25
HETATM   25  O3  UNL     1      28.163  -0.293  55.023  1.00  0.00    -0.394 OA
HETATM   26  C17 UNL     1      29.141  -0.459  54.057  1.00  0.00     0.201 C 
ENDBRANCH  24  25
ENDBRANCH  23  24
ENDBRANCH  22  23
ENDBRANCH  14  22
TORSDOF 7
ENDMDL
MODEL 4
REMARK VINA RESULT:      -6.6      3.607      7.369
REMARK  7 active torsions:
REMARK  status: ('A' for Active; 'I' for Inactive)
REMARK    1  A    between atoms: C10_13  and  C11_14 
REMARK    2  A    between atoms: C11_14  and  C12_15 
REMARK    3  A    between atoms: C12_15  and  O1_16 
REMARK    4  A    between atoms: C14_18  and  O2_19 
REMARK    5  A    between atoms: O2_19  and  C15_20 
REMARK    6  A    between atoms: C15_20  and  C16_21 
REMARK    7  A    between atoms: C16_21  and  O3_22 
ROOT
HETATM    1  C1  UNL     1      20.810   0.250  54.734  1.00  0.00     0.013 C 
HETATM    2  C2  UNL     1      21.303   0.635  53.672  1.00  0.00    -0.106 C 
HETATM    3  C3  UNL     1      21.890   1.122  52.350  1.00  0.00     0.041 C 
HETATM    4  C4  UNL     1      21.011   0.302  51.344  1.00  0.00     0.031 C 
HETATM    5  C5  UNL     1      21.289   2.422  52.359  1.00  0.00     0.143 C 
HETATM    6  N1  UNL     1      21.339   3.512  51.298  1.00  0.00    -0.373 N 
HETATM    7  C6  UNL     1      22.525   3.090  50.599  1.00  0.00     0.121 C 
HETATM    8  N2  UNL     1      23.075   1.813  50.257  1.00  0.00    -0.240 NA
HETATM    9  C7  UNL     1      23.840   1.612  51.628  1.00  0.00     0.150 A 
HETATM   10  N3  UNL     1      24.404   1.734  53.203  1.00  0.00    -0.280 NA
HETATM   11  C8  UNL     1      24.618   1.016  52.198  1.00  0.00     0.118 A 
HETATM   12  C9  UNL     1      23.251   0.423  52.409  1.00  0.00     0.111 A 
HETATM   13  C10 UNL     1      25.561   2.026  51.526  1.00  0.00     0.087 A 
HETATM   14  C14 UNL     1      25.680   3.253  50.867  1.00  0.00     0.062 C 
HETATM   15  C18 UNL     1      24.688   4.321  50.574  1.00  0.00     0.037 C 
HETATM   16  C19 UNL     1      23.314   4.368  50.371  1.00  0.00     0.052 C 
HETATM   17  H7  UNL     1      21.326   4.269  50.607  1.00  0.00     0.161 HD
ENDROOT
BRANCH  13  18
HETATM   18  C11 UNL     1      26.884   1.436  51.630  1.00  0.00     0.050 C 
BRANCH  18  19
HETATM   19  C12 UNL     1      27.513   1.884  52.920  1.00  0.00     0.168 C 
BRANCH  19  20
HETATM   20  O1  UNL     1      27.792   0.879  53.813  1.00  0.00    -0.396 OA
HETATM   21  C13 UNL     1      27.997  -0.368  53.257  1.00  0.00     0.201 C 
ENDBRANCH  19  20
ENDBRANCH  18  19
ENDBRANCH  13  18
BRANCH  14  22
HETATM   22  O2  UNL     1      26.866   3.620  50.373  1.00  0.00    -0.352 OA
BRANCH  22  23
HETATM   23  C15 UNL     1      26.883   3.947  48.989  1.00  0.00     0.201 C 
BRANCH  23  24
HETATM   24  C16 UNL     1      27.666   5.176  48.698  1.00  0.00     0.193 C 
BRANCH  24  25
HETATM   25  O3  UNL     1      29.008   4.954  48.434  1.00  0.00    -0.394 OA
HETATM   26  C17 UNL     1      29.687   6.116  48.106  1.00  0.00     0.201 C 
ENDBRANCH  24  25
ENDBRANCH  23  24
ENDBRANCH  22  23
ENDBRANCH  14  22
TORSDOF 7
ENDMDL
MODEL 5
REMARK VINA RESULT:      -6.4      1.939      3.756
REMARK  7 active torsions:
REMARK  status: ('A' for Active; 'I' for Inactive)
REMARK    1  A    between atoms: C10_13  and  C11_14 
REMARK    2  A    between atoms: C11_14  and  C12_15 
REMARK    3  A    between atoms: C12_15  and  O1_16 
REMARK    4  A    between atoms: C14_18  and  O2_19 
REMARK    5  A    between atoms: O2_19  and  C15_20 
REMARK    6  A    between atoms: C15_20  and  C16_21 
REMARK    7  A    between atoms: C16_21  and  O3_22 
ROOT
HETATM    1  C1  UNL     1      27.086  -2.161  52.514  1.00  0.00     0.013 C 
HETATM    2  C2  UNL     1      26.546  -1.073  52.722  1.00  0.00    -0.106 C 
HETATM    3  C3  UNL     1      25.899   0.287  52.971  1.00  0.00     0.041 C 
HETATM    4  C4  UNL     1      26.941   0.908  53.963  1.00  0.00     0.031 C 
HETATM    5  C5  UNL     1      26.230   0.873  51.706  1.00  0.00     0.143 C 
HETATM    6  N1  UNL     1      25.984   2.290  51.208  1.00  0.00    -0.373 N 
HETATM    7  C6  UNL     1      24.919   2.660  52.104  1.00  0.00     0.121 C 
HETATM    8  N2  UNL     1      24.639   2.389  53.481  1.00  0.00    -0.240 NA
HETATM    9  C7  UNL     1      23.904   1.013  53.213  1.00  0.00     0.150 A 
HETATM   10  N3  UNL     1      23.298  -0.396  52.533  1.00  0.00    -0.280 NA
HETATM   11  C8  UNL     1      23.250   0.191  53.639  1.00  0.00     0.118 A 
HETATM   12  C9  UNL     1      24.702  -0.157  53.817  1.00  0.00     0.111 A 
HETATM   13  C10 UNL     1      22.137   1.163  53.212  1.00  0.00     0.087 A 
HETATM   14  C14 UNL     1      21.790   2.271  52.433  1.00  0.00     0.062 C 
HETATM   15  C18 UNL     1      22.555   3.056  51.431  1.00  0.00     0.037 C 
HETATM   16  C19 UNL     1      23.897   3.355  51.220  1.00  0.00     0.052 C 
HETATM   17  H7  UNL     1      25.860   3.236  50.835  1.00  0.00     0.161 HD
ENDROOT
BRANCH  13  18
HETATM   18  C11 UNL     1      20.956   0.727  53.935  1.00  0.00     0.050 C 
BRANCH  18  19
HETATM   19  C12 UNL     1      20.410  -0.508  53.272  1.00  0.00     0.168 C 
BRANCH  19  20
HETATM   20  O1  UNL     1      19.183  -0.354  52.675  1.00  0.00    -0.396 OA
HETATM   21  C13 UNL     1      18.175  -1.154  53.177  1.00  0.00     0.201 C 
ENDBRANCH  19  20
ENDBRANCH  18  19
ENDBRANCH  13  18
BRANCH  14  22
HETATM   22  O2  UNL     1      20.564   2.790  52.543  1.00  0.00    -0.352 OA
BRANCH  22  23
HETATM   23  C15 UNL     1      20.217   3.764  51.565  1.00  0.00     0.201 C 
BRANCH  23  24
HETATM   24  C16 UNL     1      18.821   3.617  51.078  1.00  0.00     0.193 C 
BRANCH  24  25
HETATM   25  O3  UNL     1      17.868   3.529  52.081  1.00  0.00    -0.394 OA
HETATM   26  C17 UNL     1      16.663   4.111  51.725  1.00  0.00     0.201 C 
ENDBRANCH  24  25
ENDBRANCH  23  24
ENDBRANCH  22  23
ENDBRANCH  14  22
TORSDOF 7
ENDMDL
MODEL 6
REMARK VINA RESULT:      -6.3      3.225      5.665
REMARK  7 active torsions:
REMARK  status: ('A' for Active; 'I' for Inactive)
REMARK    1  A    between atoms: C10_13  and  C11_14 
REMARK    2  A    between atoms: C11_14  and  C12_15 
REMARK    3  A    between atoms: C12_15  and  O1_16 
REMARK    4  A    between atoms: C14_18  and  O2_19 
REMARK    5  A    between atoms: O2_19  and  C15_20 
REMARK    6  A    between atoms: C15_20  and  C16_21 
REMARK    7  A    between atoms: C16_21  and  O3_22 
ROOT
HETATM    1  C1  UNL     1      24.053   6.724  47.764  1.00  0.00     0.013 C 
HETATM    2  C2  UNL     1      23.802   6.240  48.869  1.00  0.00    -0.106 C 
HETATM    3  C3  UNL     1      23.469   5.658  50.240  1.00  0.00     0.041 C 
HETATM    4  C4  UNL     1      23.572   6.952  51.118  1.00  0.00     0.031 C 
HETATM    5  C5  UNL     1      22.062   5.493  50.024  1.00  0.00     0.143 C 
HETATM    6  N1  UNL     1      20.989   5.021  50.994  1.00  0.00    -0.373 N 
HETATM    7  C6  UNL     1      21.828   4.323  51.934  1.00  0.00     0.121 C 
HETATM    8  N2  UNL     1      23.136   4.560  52.465  1.00  0.00    -0.240 NA
HETATM    9  C7  UNL     1      23.906   3.844  51.281  1.00  0.00     0.150 A 
HETATM   10  N3  UNL     1      24.332   3.106  49.836  1.00  0.00    -0.280 NA
HETATM   11  C8  UNL     1      24.891   3.421  50.912  1.00  0.00     0.118 A 
HETATM   12  C9  UNL     1      24.751   4.859  50.490  1.00  0.00     0.111 A 
HETATM   13  C10 UNL     1      24.392   2.185  51.676  1.00  0.00     0.087 A 
HETATM   14  C14 UNL     1      23.299   1.533  52.256  1.00  0.00     0.062 C 
HETATM   15  C18 UNL     1      21.849   1.857  52.278  1.00  0.00     0.037 C 
HETATM   16  C19 UNL     1      21.093   3.023  52.214  1.00  0.00     0.052 C 
HETATM   17  H7  UNL     1      20.228   4.728  51.615  1.00  0.00     0.161 HD
ENDROOT
BRANCH  13  18
HETATM   18  C11 UNL     1      25.569   1.356  51.866  1.00  0.00     0.050 C 
BRANCH  18  19
HETATM   19  C12 UNL     1      26.468   2.017  52.874  1.00  0.00     0.168 C 
BRANCH  19  20
HETATM   20  O1  UNL     1      27.781   2.143  52.489  1.00  0.00    -0.396 OA
HETATM   21  C13 UNL     1      28.682   2.351  53.514  1.00  0.00     0.201 C 
ENDBRANCH  19  20
ENDBRANCH  18  19
ENDBRANCH  13  18
BRANCH  14  22
HETATM   22  O2  UNL     1      23.498   0.400  52.937  1.00  0.00    -0.352 OA
BRANCH  22  23
HETATM   23  C15 UNL     1      22.677   0.220  54.085  1.00  0.00     0.201 C 
BRANCH  23  24
HETATM   24  C16 UNL     1      22.751  -1.159  54.633  1.00  0.00     0.193 C 
BRANCH  24  25
HETATM   25  O3  UNL     1      21.539  -1.672  55.066  1.00  0.00    -0.394 OA
HETATM   26  C17 UNL     1      20.521  -1.487  54.145  1.00  0.00     0.201 C 
ENDBRANCH  24  25
ENDBRANCH  23  24
ENDBRANCH  22  23
ENDBRANCH  14  22
TORSDOF 7
ENDMDL
MODEL 7
REMARK VINA RESULT:      -6.2      2.745      4.859
REMARK  7 active torsions:
REMARK  status: ('A' for Active; 'I' for Inactive)
REMARK    1  A    between atoms: C10_13  and  C11_14 
REMARK    2  A    between atoms: C11_14  and  C12_15 
REMARK    3  A    between atoms: C12_15  and  O1_16 
REMARK    4  A    between atoms: C14_18  and  O2_19 
REMARK    5  A    between atoms: O2_19  and  C15_20 
REMARK    6  A    between atoms: C15_20  and  C16_21 
REMARK    7  A    between atoms: C16_21  and  O3_22 
ROOT
HETATM    1  C1  UNL     1      27.430   4.525  48.745  1.00  0.00     0.013 C 
HETATM    2  C2  UNL     1      26.486   4.215  49.474  1.00  0.00    -0.106 C 
HETATM    3  C3  UNL     1      25.299   3.845  50.360  1.00  0.00     0.041 C 
HETATM    4  C4  UNL     1      24.745   5.274  50.685  1.00  0.00     0.031 C 
HETATM    5  C5  UNL     1      24.443   3.367  49.315  1.00  0.00     0.143 C 
HETATM    6  N1  UNL     1      23.003   2.881  49.399  1.00  0.00    -0.373 N 
HETATM    7  C6  UNL     1      22.960   2.551  50.800  1.00  0.00     0.121 C 
HETATM    8  N2  UNL     1      23.525   3.137  51.977  1.00  0.00    -0.240 NA
HETATM    9  C7  UNL     1      24.911   2.380  51.866  1.00  0.00     0.150 A 
HETATM   10  N3  UNL     1      26.232   1.484  51.350  1.00  0.00    -0.280 NA
HETATM   11  C8  UNL     1      25.880   2.100  52.383  1.00  0.00     0.118 A 
HETATM   12  C9  UNL     1      26.056   3.377  51.606  1.00  0.00     0.111 A 
HETATM   13  C10 UNL     1      25.005   0.954  52.916  1.00  0.00     0.087 A 
HETATM   14  C14 UNL     1      23.826   0.218  52.765  1.00  0.00     0.062 C 
HETATM   15  C18 UNL     1      22.766   0.247  51.723  1.00  0.00     0.037 C 
HETATM   16  C19 UNL     1      22.253   1.207  50.857  1.00  0.00     0.052 C 
HETATM   17  H7  UNL     1      22.029   2.564  49.399  1.00  0.00     0.161 HD
ENDROOT
BRANCH  13  18
HETATM   18  C11 UNL     1      25.728   0.425  54.059  1.00  0.00     0.050 C 
BRANCH  18  19
HETATM   19  C12 UNL     1      26.767  -0.543  53.569  1.00  0.00     0.168 C 
BRANCH  19  20
HETATM   20  O1  UNL     1      27.854  -0.698  54.394  1.00  0.00    -0.396 OA
HETATM   21  C13 UNL     1      29.068  -0.325  53.852  1.00  0.00     0.201 C 
ENDBRANCH  19  20
ENDBRANCH  18  19
ENDBRANCH  13  18
BRANCH  14  22
HETATM   22  O2  UNL     1      23.508  -0.705  53.677  1.00  0.00    -0.352 OA
BRANCH  22  23
HETATM   23  C15 UNL     1      22.157  -1.152  53.657  1.00  0.00     0.201 C 
BRANCH  23  24
HETATM   24  C16 UNL     1      21.344  -0.572  54.756  1.00  0.00     0.193 C 
BRANCH  24  25
HETATM   25  O3  UNL     1      20.248   0.164  54.334  1.00  0.00    -0.394 OA
HETATM   26  C17 UNL     1      19.547  -0.457  53.315  1.00  0.00     0.201 C 
ENDBRANCH  24  25
ENDBRANCH  23  24
ENDBRANCH  22  23
ENDBRANCH  14  22
TORSDOF 7
ENDMDL
MODEL 8
REMARK VINA RESULT:      -6.0      2.782      6.807
REMARK  7 active torsions:
REMARK  status: ('A' for Active; 'I' for Inactive)
REMARK    1  A    between atoms: C10_13  and  C11_14 
REMARK    2  A    between atoms: C11_14  and  C12_15 
REMARK    3  A    between atoms: C12_15  and  O1_16 
REMARK    4  A    between atoms: C14_18  and  O2_19 
REMARK    5  A    between atoms: O2_19  and  C15_20 
REMARK    6  A    between atoms: C15_20  and  C16_21 
REMARK    7  A    between atoms: C16_21  and  O3_22 
ROOT
HETATM    1  C1  UNL     1      17.859   3.558  50.687  1.00  0.00     0.013 C 
HETATM    2  C2  UNL     1      19.059   3.294  50.590  1.00  0.00    -0.106 C 
HETATM    3  C3  UNL     1      20.550   2.992  50.457  1.00  0.00     0.041 C 
HETATM    4  C4  UNL     1      20.705   3.067  48.899  1.00  0.00     0.031 C 
HETATM    5  C5  UNL     1      21.028   4.262  50.916  1.00  0.00     0.143 C 
HETATM    6  N1  UNL     1      22.457   4.778  51.000  1.00  0.00    -0.373 N 
HETATM    7  C6  UNL     1      23.151   3.516  51.004  1.00  0.00     0.121 C 
HETATM    8  N2  UNL     1      22.942   2.265  50.340  1.00  0.00    -0.240 NA
HETATM    9  C7  UNL     1      21.941   1.691  51.424  1.00  0.00     0.150 A 
HETATM   10  N3  UNL     1      20.880   1.496  52.709  1.00  0.00    -0.280 NA
HETATM   11  C8  UNL     1      21.397   0.779  51.820  1.00  0.00     0.118 A 
HETATM   12  C9  UNL     1      20.536   1.505  50.822  1.00  0.00     0.111 A 
HETATM   13  C10 UNL     1      22.724   0.590  52.573  1.00  0.00     0.087 A 
HETATM   14  C14 UNL     1      23.914   1.180  53.007  1.00  0.00     0.062 C 
HETATM   15  C18 UNL     1      24.409   2.580  52.937  1.00  0.00     0.037 C 
HETATM   16  C19 UNL     1      24.208   3.661  52.086  1.00  0.00     0.052 C 
HETATM   17  H7  UNL     1      23.398   5.179  51.057  1.00  0.00     0.161 HD
ENDROOT
BRANCH  13  18
HETATM   18  C11 UNL     1      22.717  -0.795  53.009  1.00  0.00     0.050 C 
BRANCH  18  19
HETATM   19  C12 UNL     1      21.583  -0.993  53.976  1.00  0.00     0.168 C 
BRANCH  19  20
HETATM   20  O1  UNL     1      21.944  -1.017  55.301  1.00  0.00    -0.396 OA
HETATM   21  C13 UNL     1      23.174  -1.583  55.570  1.00  0.00     0.201 C 
ENDBRANCH  19  20
ENDBRANCH  18  19
ENDBRANCH  13  18
BRANCH  14  22
HETATM   22  O2  UNL     1      24.840   0.425  53.606  1.00  0.00    -0.352 OA
BRANCH  22  23
HETATM   23  C15 UNL     1      26.038   1.097  53.977  1.00  0.00     0.201 C 
BRANCH  23  24
HETATM   24  C16 UNL     1      26.961   0.236  54.760  1.00  0.00     0.193 C 
BRANCH  24  25
HETATM   25  O3  UNL     1      28.186   0.817  55.045  1.00  0.00    -0.394 OA
HETATM   26  C17 UNL     1      29.176   0.441  54.153  1.00  0.00     0.201 C 
ENDBRANCH  24  25
ENDBRANCH  23  24
ENDBRANCH  22  23
ENDBRANCH  14  22
TORSDOF 7
ENDMDL
MODEL 9
REMARK VINA RESULT:      -5.8     10.139     13.656
REMARK  7 active torsions:
REMARK  status: ('A' for Active; 'I' for Inactive)
REMARK    1  A    between atoms: C10_13  and  C11_14 
REMARK    2  A    between atoms: C11_14  and  C12_15 
REMARK    3  A    between atoms: C12_15  and  O1_16 
REMARK    4  A    between atoms: C14_18  and  O2_19 
REMARK    5  A    between atoms: O2_19  and  C15_20 
REMARK    6  A    between atoms: C15_20  and  C16_21 
REMARK    7  A    between atoms: C16_21  and  O3_22 
ROOT
HETATM    1  C1  UNL     1      28.936  12.757  49.032  1.00  0.00     0.013 C 
HETATM    2  C2  UNL     1      29.609  11.942  48.399  1.00  0.00    -0.106 C 
HETATM    3  C3  UNL     1      30.454  10.952  47.601  1.00  0.00     0.041 C 
HETATM    4  C4  UNL     1      30.001  11.318  46.146  1.00  0.00     0.031 C 
HETATM    5  C5  UNL     1      31.708  11.627  47.757  1.00  0.00     0.143 C 
HETATM    6  N1  UNL     1      33.065  11.285  47.159  1.00  0.00    -0.373 N 
HETATM    7  C6  UNL     1      32.839   9.892  46.874  1.00  0.00     0.121 C 
HETATM    8  N2  UNL     1      31.710   9.142  46.414  1.00  0.00    -0.240 NA
HETATM    9  C7  UNL     1      31.083   8.926  47.851  1.00  0.00     0.150 A 
HETATM   10  N3  UNL     1      30.709   9.000  49.485  1.00  0.00    -0.280 NA
HETATM   11  C8  UNL     1      30.321   8.365  48.476  1.00  0.00     0.118 A 
HETATM   12  C9  UNL     1      29.731   9.654  47.970  1.00  0.00     0.111 A 
HETATM   13  C10 UNL     1      31.460   7.334  48.537  1.00  0.00     0.087 A 
HETATM   14  C14 UNL     1      32.824   7.090  48.358  1.00  0.00     0.062 C 
HETATM   15  C18 UNL     1      33.958   7.994  48.032  1.00  0.00     0.037 C 
HETATM   16  C19 UNL     1      34.104   9.193  47.344  1.00  0.00     0.052 C 
HETATM   17  H7  UNL     1      33.995  11.109  46.766  1.00  0.00     0.161 HD
ENDROOT
BRANCH  13  18
HETATM   18  C11 UNL     1      30.828   6.097  48.962  1.00  0.00     0.050 C 
BRANCH  18  19
HETATM   19  C12 UNL     1      29.643   5.830  48.076  1.00  0.00     0.168 C 
BRANCH  19  20
HETATM   20  O1  UNL     1      28.849   4.780  48.466  1.00  0.00    -0.396 OA
HETATM   21  C13 UNL     1      27.504   5.066  48.588  1.00  0.00     0.201 C 
ENDBRANCH  19  20
ENDBRANCH  18  19
ENDBRANCH  13  18
BRANCH  14  22
HETATM   22  O2  UNL     1      33.289   5.843  48.482  1.00  0.00    -0.352 OA
BRANCH  22  23
HETATM   23  C15 UNL     1      34.183   5.414  47.462  1.00  0.00     0.201 C 
BRANCH  23  24
HETATM   24  C16 UNL     1      34.821   4.108  47.769  1.00  0.00     0.193 C 
BRANCH  24  25
HETATM   25  O3  UNL     1      34.847   3.217  46.707  1.00  0.00    -0.394 OA
HETATM   26  C17 UNL     1      35.128   3.834  45.499  1.00  0.00     0.201 C 
ENDBRANCH  24  25
ENDBRANCH  23  24
ENDBRANCH  22  23
ENDBRANCH  14  22
TORSDOF 7
ENDMDL
