MODEL 1
REMARK VINA RESULT:      -9.1      0.000      0.000
REMARK  3 active torsions:
REMARK  status: ('A' for Active; 'I' for Inactive)
REMARK    1  A    between atoms: O1_1  and  C1_2 
REMARK    2  A    between atoms: C3_4  and  O2_5 
REMARK    3  A    between atoms: O2_5  and  C4_6 
ROOT
HETATM    1  C4  UNL     1      24.529   0.434  52.465  1.00  0.00     0.072 C 
HETATM    2  C5  UNL     1      23.604  -0.004  53.358  1.00  0.00     0.082 C 
HETATM    3  C6  UNL     1      23.653  -0.951  54.511  1.00  0.00     0.002 C 
HETATM    4  C7  UNL     1      22.361  -0.899  54.915  1.00  0.00     0.079 C 
HETATM    5  N1  UNL     1      21.627  -0.018  54.079  1.00  0.00    -0.399 N 
HETATM    6  C8  UNL     1      20.959   1.094  53.436  1.00  0.00     0.119 C 
HETATM    7  C9  UNL     1      20.359   0.677  52.085  1.00  0.00     0.024 C 
HETATM    8  C10 UNL     1      21.512   0.161  51.201  1.00  0.00     0.041 C 
HETATM    9  C11 UNL     1      22.509   1.263  51.065  1.00  0.00    -0.045 A 
HETATM   10  C12 UNL     1      22.020   2.288  50.302  1.00  0.00     0.008 A 
HETATM   11  C13 UNL     1      22.677   3.452  50.009  1.00  0.00     0.001 A 
HETATM   12  C14 UNL     1      23.940   3.647  50.508  1.00  0.00     0.001 A 
HETATM   13  C15 UNL     1      24.415   2.585  51.283  1.00  0.00     0.014 A 
HETATM   14  C16 UNL     1      23.791   1.370  51.617  1.00  0.00     0.001 A 
HETATM   15  H5  UNL     1      21.413  -0.891  53.491  1.00  0.00     0.158 HD
ENDROOT
BRANCH   1  16
HETATM   16  O2  UNL     1      25.879   0.416  51.968  1.00  0.00    -0.317 OA
BRANCH  16  17
HETATM   17  C3  UNL     1      26.895  -0.021  52.818  1.00  0.00     0.070 C 
HETATM   18  C2  UNL     1      26.979  -1.333  52.839  1.00  0.00     0.043 C 
HETATM   19  C1  UNL     1      28.142  -1.902  53.071  1.00  0.00     0.079 C 
HETATM   20  C19 UNL     1      29.299  -1.199  53.572  1.00  0.00     0.034 C 
HETATM   21  C18 UNL     1      29.118   0.104  53.838  1.00  0.00    -0.017 C 
HETATM   22  C17 UNL     1      27.813   0.792  53.634  1.00  0.00     0.093 C 
BRANCH  19  23
HETATM   23  O1  UNL     1      28.266  -3.258  52.819  1.00  0.00    -0.360 OA
HETATM   24  H1  UNL     1      29.083  -3.613  52.333  1.00  0.00     0.217 HD
ENDBRANCH  19  23
ENDBRANCH  16  17
ENDBRANCH   1  16
TORSDOF 3
ENDMDL
MODEL 2
REMARK VINA RESULT:      -8.9      1.932      3.818
REMARK  3 active torsions:
REMARK  status: ('A' for Active; 'I' for Inactive)
REMARK    1  A    between atoms: O1_1  and  C1_2 
REMARK    2  A    between atoms: C3_4  and  O2_5 
REMARK    3  A    between atoms: O2_5  and  C4_6 
ROOT
HETATM    1  C4  UNL     1      24.810   1.399  52.605  1.00  0.00     0.072 C 
HETATM    2  C5  UNL     1      24.679   2.096  51.447  1.00  0.00     0.082 C 
HETATM    3  C6  UNL     1      25.630   2.878  50.602  1.00  0.00     0.002 C 
HETATM    4  C7  UNL     1      24.790   3.295  49.624  1.00  0.00     0.079 C 
HETATM    5  N1  UNL     1      23.478   2.814  49.875  1.00  0.00    -0.399 N 
HETATM    6  C8  UNL     1      22.232   2.083  49.958  1.00  0.00     0.119 C 
HETATM    7  C9  UNL     1      21.238   2.782  50.897  1.00  0.00     0.024 C 
HETATM    8  C10 UNL     1      21.897   2.877  52.288  1.00  0.00     0.041 C 
HETATM    9  C11 UNL     1      22.221   1.490  52.733  1.00  0.00    -0.045 A 
HETATM   10  C12 UNL     1      21.088   0.779  53.018  1.00  0.00     0.008 A 
HETATM   11  C13 UNL     1      21.043  -0.526  53.427  1.00  0.00     0.001 A 
HETATM   12  C14 UNL     1      22.219  -1.218  53.575  1.00  0.00     0.001 A 
HETATM   13  C15 UNL     1      23.361  -0.467  53.278  1.00  0.00     0.014 A 
HETATM   14  C16 UNL     1      23.470   0.870  52.856  1.00  0.00     0.001 A 
HETATM   15  H5  UNL     1      23.332   3.739  50.401  1.00  0.00     0.158 HD
ENDROOT
BRANCH   1  16
HETATM   16  O2  UNL     1      25.637   0.934  53.687  1.00  0.00    -0.317 OA
BRANCH  16  17
HETATM   17  C3  UNL     1      26.971   0.624  53.418  1.00  0.00     0.070 C 
HETATM   18  C2  UNL     1      27.772   1.620  53.722  1.00  0.00     0.043 C 
HETATM   19  C1  UNL     1      29.008   1.365  54.092  1.00  0.00     0.079 C 
HETATM   20  C19 UNL     1      29.648   0.081  53.939  1.00  0.00     0.034 C 
HETATM   21  C18 UNL     1      28.911  -0.868  53.342  1.00  0.00    -0.017 C 
HETATM   22  C17 UNL     1      27.521  -0.626  52.865  1.00  0.00     0.093 C 
BRANCH  19  23
HETATM   23  O1  UNL     1      29.741   2.391  54.666  1.00  0.00    -0.360 OA
HETATM   24  H1  UNL     1      30.674   2.601  54.327  1.00  0.00     0.217 HD
ENDBRANCH  19  23
ENDBRANCH  16  17
ENDBRANCH   1  16
TORSDOF 3
ENDMDL
MODEL 3
REMARK VINA RESULT:      -8.8      1.749      2.117
REMARK  3 active torsions:
REMARK  status: ('A' for Active; 'I' for Inactive)
REMARK    1  A    between atoms: O1_1  and  C1_2 
REMARK    2  A    between atoms: C3_4  and  O2_5 
REMARK    3  A    between atoms: O2_5  and  C4_6 
ROOT
HETATM    1  C4  UNL     1      24.363   1.138  53.032  1.00  0.00     0.072 C 
HETATM    2  C5  UNL     1      23.816   0.197  53.845  1.00  0.00     0.082 C 
HETATM    3  C6  UNL     1      24.386  -0.907  54.673  1.00  0.00     0.002 C 
HETATM    4  C7  UNL     1      23.248  -1.427  55.191  1.00  0.00     0.079 C 
HETATM    5  N1  UNL     1      22.124  -0.707  54.709  1.00  0.00    -0.399 N 
HETATM    6  C8  UNL     1      21.021   0.200  54.472  1.00  0.00     0.119 C 
HETATM    7  C9  UNL     1      20.350  -0.081  53.119  1.00  0.00     0.024 C 
HETATM    8  C10 UNL     1      21.424   0.083  52.024  1.00  0.00     0.041 C 
HETATM    9  C11 UNL     1      21.960   1.472  52.116  1.00  0.00    -0.045 A 
HETATM   10  C12 UNL     1      21.029   2.394  51.722  1.00  0.00     0.008 A 
HETATM   11  C13 UNL     1      21.200   3.751  51.714  1.00  0.00     0.001 A 
HETATM   12  C14 UNL     1      22.399   4.273  52.130  1.00  0.00     0.001 A 
HETATM   13  C15 UNL     1      23.332   3.309  52.525  1.00  0.00     0.014 A 
HETATM   14  C16 UNL     1      23.215   1.908  52.556  1.00  0.00     0.001 A 
HETATM   15  H5  UNL     1      22.103  -1.435  53.920  1.00  0.00     0.158 HD
ENDROOT
BRANCH   1  16
HETATM   16  O2  UNL     1      25.527   1.732  52.430  1.00  0.00    -0.317 OA
BRANCH  16  17
HETATM   17  C3  UNL     1      26.761   1.107  52.609  1.00  0.00     0.070 C 
HETATM   18  C2  UNL     1      27.671   1.947  53.049  1.00  0.00     0.043 C 
HETATM   19  C1  UNL     1      28.654   1.499  53.800  1.00  0.00     0.079 C 
HETATM   20  C19 UNL     1      28.970   0.101  53.967  1.00  0.00     0.034 C 
HETATM   21  C18 UNL     1      28.211  -0.754  53.264  1.00  0.00    -0.017 C 
HETATM   22  C17 UNL     1      27.111  -0.303  52.367  1.00  0.00     0.093 C 
BRANCH  19  23
HETATM   23  O1  UNL     1      29.434   2.425  54.472  1.00  0.00    -0.360 OA
HETATM   24  H1  UNL     1      29.006   3.243  54.892  1.00  0.00     0.217 HD
ENDBRANCH  19  23
ENDBRANCH  16  17
ENDBRANCH   1  16
TORSDOF 3
ENDMDL
MODEL 4
REMARK VINA RESULT:      -8.0      2.662      5.985
REMARK  3 active torsions:
REMARK  status: ('A' for Active; 'I' for Inactive)
REMARK    1  A    between atoms: O1_1  and  C1_2 
REMARK    2  A    between atoms: C3_4  and  O2_5 
REMARK    3  A    between atoms: O2_5  and  C4_6 
ROOT
HETATM    1  C4  UNL     1      24.540   1.859  51.801  1.00  0.00     0.072 C 
HETATM    2  C5  UNL     1      25.776   1.855  52.365  1.00  0.00     0.082 C 
HETATM    3  C6  UNL     1      27.061   2.539  52.034  1.00  0.00     0.002 C 
HETATM    4  C7  UNL     1      27.851   2.049  53.020  1.00  0.00     0.079 C 
HETATM    5  N1  UNL     1      27.107   1.162  53.840  1.00  0.00    -0.399 N 
HETATM    6  C8  UNL     1      26.289   0.513  54.842  1.00  0.00     0.119 C 
HETATM    7  C9  UNL     1      26.061  -0.968  54.501  1.00  0.00     0.024 C 
HETATM    8  C10 UNL     1      25.369  -1.028  53.124  1.00  0.00     0.041 C 
HETATM    9  C11 UNL     1      24.091  -0.263  53.223  1.00  0.00    -0.045 A 
HETATM   10  C12 UNL     1      23.181  -0.911  54.013  1.00  0.00     0.008 A 
HETATM   11  C13 UNL     1      21.926  -0.462  54.322  1.00  0.00     0.001 A 
HETATM   12  C14 UNL     1      21.507   0.743  53.815  1.00  0.00     0.001 A 
HETATM   13  C15 UNL     1      22.456   1.383  53.012  1.00  0.00     0.014 A 
HETATM   14  C16 UNL     1      23.754   0.973  52.659  1.00  0.00     0.001 A 
HETATM   15  H5  UNL     1      27.453   0.393  53.175  1.00  0.00     0.158 HD
ENDROOT
BRANCH   1  16
HETATM   16  O2  UNL     1      23.647   2.323  50.773  1.00  0.00    -0.317 OA
BRANCH  16  17
HETATM   17  C3  UNL     1      23.800   3.626  50.298  1.00  0.00     0.070 C 
HETATM   18  C2  UNL     1      23.604   4.515  51.246  1.00  0.00     0.043 C 
HETATM   19  C1  UNL     1      24.231   5.670  51.188  1.00  0.00     0.079 C 
HETATM   20  C19 UNL     1      24.924   6.154  50.018  1.00  0.00     0.034 C 
HETATM   21  C18 UNL     1      24.864   5.361  48.937  1.00  0.00    -0.017 C 
HETATM   22  C17 UNL     1      24.134   4.063  48.931  1.00  0.00     0.093 C 
BRANCH  19  23
HETATM   23  O1  UNL     1      24.228   6.471  52.317  1.00  0.00    -0.360 OA
HETATM   24  H1  UNL     1      23.350   6.791  52.712  1.00  0.00     0.217 HD
ENDBRANCH  19  23
ENDBRANCH  16  17
ENDBRANCH   1  16
TORSDOF 3
ENDMDL
MODEL 5
REMARK VINA RESULT:      -7.9      2.680      6.496
REMARK  3 active torsions:
REMARK  status: ('A' for Active; 'I' for Inactive)
REMARK    1  A    between atoms: O1_1  and  C1_2 
REMARK    2  A    between atoms: C3_4  and  O2_5 
REMARK    3  A    between atoms: O2_5  and  C4_6 
ROOT
HETATM    1  C4  UNL     1      23.276   1.202  51.547  1.00  0.00     0.072 C 
HETATM    2  C5  UNL     1      24.525   1.722  51.662  1.00  0.00     0.082 C 
HETATM    3  C6  UNL     1      25.350   2.620  50.801  1.00  0.00     0.002 C 
HETATM    4  C7  UNL     1      26.479   2.691  51.546  1.00  0.00     0.079 C 
HETATM    5  N1  UNL     1      26.334   1.908  52.721  1.00  0.00    -0.399 N 
HETATM    6  C8  UNL     1      26.081   1.374  54.041  1.00  0.00     0.119 C 
HETATM    7  C9  UNL     1      26.332  -0.141  54.086  1.00  0.00     0.024 C 
HETATM    8  C10 UNL     1      25.395  -0.800  53.053  1.00  0.00     0.041 C 
HETATM    9  C11 UNL     1      23.993  -0.444  53.419  1.00  0.00    -0.045 A 
HETATM   10  C12 UNL     1      23.604  -1.067  54.573  1.00  0.00     0.008 A 
HETATM   11  C13 UNL     1      22.388  -0.930  55.186  1.00  0.00     0.001 A 
HETATM   12  C14 UNL     1      21.449  -0.103  54.623  1.00  0.00     0.001 A 
HETATM   13  C15 UNL     1      21.872   0.520  53.445  1.00  0.00     0.014 A 
HETATM   14  C16 UNL     1      23.102   0.419  52.770  1.00  0.00     0.001 A 
HETATM   15  H5  UNL     1      26.763   1.113  52.140  1.00  0.00     0.158 HD
ENDROOT
BRANCH   1  16
HETATM   16  O2  UNL     1      22.052   1.065  50.802  1.00  0.00    -0.317 OA
BRANCH  16  17
HETATM   17  C3  UNL     1      21.861   1.876  49.684  1.00  0.00     0.070 C 
HETATM   18  C2  UNL     1      21.612   3.122  50.024  1.00  0.00     0.043 C 
HETATM   19  C1  UNL     1      21.966   4.096  49.215  1.00  0.00     0.079 C 
HETATM   20  C19 UNL     1      22.376   3.899  47.845  1.00  0.00     0.034 C 
HETATM   21  C18 UNL     1      22.339   2.632  47.404  1.00  0.00    -0.017 C 
HETATM   22  C17 UNL     1      21.907   1.494  48.262  1.00  0.00     0.093 C 
BRANCH  19  23
HETATM   23  O1  UNL     1      21.947   5.390  49.707  1.00  0.00    -0.360 OA
HETATM   24  H1  UNL     1      21.231   6.041  49.399  1.00  0.00     0.217 HD
ENDBRANCH  19  23
ENDBRANCH  16  17
ENDBRANCH   1  16
TORSDOF 3
ENDMDL
MODEL 6
REMARK VINA RESULT:      -7.9      2.968      6.349
REMARK  3 active torsions:
REMARK  status: ('A' for Active; 'I' for Inactive)
REMARK    1  A    between atoms: O1_1  and  C1_2 
REMARK    2  A    between atoms: C3_4  and  O2_5 
REMARK    3  A    between atoms: O2_5  and  C4_6 
ROOT
HETATM    1  C4  UNL     1      21.727   1.125  52.533  1.00  0.00     0.072 C 
HETATM    2  C5  UNL     1      22.556   0.343  53.271  1.00  0.00     0.082 C 
HETATM    3  C6  UNL     1      22.332  -0.655  54.360  1.00  0.00     0.002 C 
HETATM    4  C7  UNL     1      23.613  -1.014  54.618  1.00  0.00     0.079 C 
HETATM    5  N1  UNL     1      24.497  -0.295  53.773  1.00  0.00    -0.399 N 
HETATM    6  C8  UNL     1      25.363   0.195  52.722  1.00  0.00     0.119 C 
HETATM    7  C9  UNL     1      25.863   1.615  53.030  1.00  0.00     0.024 C 
HETATM    8  C10 UNL     1      24.625   2.525  53.172  1.00  0.00     0.041 C 
HETATM    9  C11 UNL     1      23.860   2.455  51.894  1.00  0.00    -0.045 A 
HETATM   10  C12 UNL     1      24.533   3.072  50.874  1.00  0.00     0.008 A 
HETATM   11  C13 UNL     1      24.111   3.160  49.576  1.00  0.00     0.001 A 
HETATM   12  C14 UNL     1      22.912   2.592  49.224  1.00  0.00     0.001 A 
HETATM   13  C15 UNL     1      22.246   1.970  50.285  1.00  0.00     0.014 A 
HETATM   14  C16 UNL     1      22.626   1.847  51.634  1.00  0.00     0.001 A 
HETATM   15  H5  UNL     1      24.535   0.426  54.568  1.00  0.00     0.158 HD
ENDROOT
BRANCH   1  16
HETATM   16  O2  UNL     1      20.395   1.569  52.216  1.00  0.00    -0.317 OA
BRANCH  16  17
HETATM   17  C3  UNL     1      19.457   0.621  51.810  1.00  0.00     0.070 C 
HETATM   18  C2  UNL     1      19.133  -0.193  52.791  1.00  0.00     0.043 C 
HETATM   19  C1  UNL     1      17.933  -0.731  52.814  1.00  0.00     0.079 C 
HETATM   20  C19 UNL     1      17.018  -0.711  51.698  1.00  0.00     0.034 C 
HETATM   21  C18 UNL     1      17.478  -0.132  50.578  1.00  0.00    -0.017 C 
HETATM   22  C17 UNL     1      18.842   0.458  50.481  1.00  0.00     0.093 C 
BRANCH  19  23
HETATM   23  O1  UNL     1      17.521  -1.355  53.980  1.00  0.00    -0.360 OA
HETATM   24  H1  UNL     1      18.204  -1.779  54.599  1.00  0.00     0.217 HD
ENDBRANCH  19  23
ENDBRANCH  16  17
ENDBRANCH   1  16
TORSDOF 3
ENDMDL
MODEL 7
REMARK VINA RESULT:      -7.9      2.669      6.907
REMARK  3 active torsions:
REMARK  status: ('A' for Active; 'I' for Inactive)
REMARK    1  A    between atoms: O1_1  and  C1_2 
REMARK    2  A    between atoms: C3_4  and  O2_5 
REMARK    3  A    between atoms: O2_5  and  C4_6 
ROOT
HETATM    1  C4  UNL     1      22.788   0.890  51.693  1.00  0.00     0.072 C 
HETATM    2  C5  UNL     1      23.765   1.829  51.600  1.00  0.00     0.082 C 
HETATM    3  C6  UNL     1      24.056   2.919  50.621  1.00  0.00     0.002 C 
HETATM    4  C7  UNL     1      25.188   3.429  51.165  1.00  0.00     0.079 C 
HETATM    5  N1  UNL     1      25.530   2.706  52.338  1.00  0.00    -0.399 N 
HETATM    6  C8  UNL     1      25.706   2.185  53.676  1.00  0.00     0.119 C 
HETATM    7  C9  UNL     1      26.493   0.865  53.660  1.00  0.00     0.024 C 
HETATM    8  C10 UNL     1      25.704  -0.138  52.793  1.00  0.00     0.041 C 
HETATM    9  C11 UNL     1      24.348  -0.291  53.396  1.00  0.00    -0.045 A 
HETATM   10  C12 UNL     1      24.404  -0.953  54.592  1.00  0.00     0.008 A 
HETATM   11  C13 UNL     1      23.338  -1.231  55.403  1.00  0.00     0.001 A 
HETATM   12  C14 UNL     1      22.085  -0.826  55.018  1.00  0.00     0.001 A 
HETATM   13  C15 UNL     1      22.056  -0.154  53.793  1.00  0.00     0.014 A 
HETATM   14  C16 UNL     1      23.112   0.160  52.918  1.00  0.00     0.001 A 
HETATM   15  H5  UNL     1      26.117   2.090  51.683  1.00  0.00     0.158 HD
ENDROOT
BRANCH   1  16
HETATM   16  O2  UNL     1      21.595   0.285  51.164  1.00  0.00    -0.317 OA
BRANCH  16  17
HETATM   17  C3  UNL     1      20.680   1.095  50.491  1.00  0.00     0.070 C 
HETATM   18  C2  UNL     1      19.808   1.631  51.316  1.00  0.00     0.043 C 
HETATM   19  C1  UNL     1      19.277   2.799  51.025  1.00  0.00     0.079 C 
HETATM   20  C19 UNL     1      19.374   3.429  49.731  1.00  0.00     0.034 C 
HETATM   21  C18 UNL     1      20.021   2.727  48.788  1.00  0.00    -0.017 C 
HETATM   22  C17 UNL     1      20.607   1.382  49.048  1.00  0.00     0.093 C 
BRANCH  19  23
HETATM   23  O1  UNL     1      18.583   3.465  52.021  1.00  0.00    -0.360 OA
HETATM   24  H1  UNL     1      17.978   4.245  51.785  1.00  0.00     0.217 HD
ENDBRANCH  19  23
ENDBRANCH  16  17
ENDBRANCH   1  16
TORSDOF 3
ENDMDL
MODEL 8
REMARK VINA RESULT:      -7.8      2.830      6.011
REMARK  3 active torsions:
REMARK  status: ('A' for Active; 'I' for Inactive)
REMARK    1  A    between atoms: O1_1  and  C1_2 
REMARK    2  A    between atoms: C3_4  and  O2_5 
REMARK    3  A    between atoms: O2_5  and  C4_6 
ROOT
HETATM    1  C4  UNL     1      24.253   2.770  50.507  1.00  0.00     0.072 C 
HETATM    2  C5  UNL     1      23.102   2.516  49.832  1.00  0.00     0.082 C 
HETATM    3  C6  UNL     1      22.461   3.120  48.626  1.00  0.00     0.002 C 
HETATM    4  C7  UNL     1      21.337   2.367  48.554  1.00  0.00     0.079 C 
HETATM    5  N1  UNL     1      21.317   1.424  49.614  1.00  0.00    -0.399 N 
HETATM    6  C8  UNL     1      21.439   0.279  50.490  1.00  0.00     0.119 C 
HETATM    7  C9  UNL     1      20.943   0.607  51.907  1.00  0.00     0.024 C 
HETATM    8  C10 UNL     1      21.790   1.781  52.438  1.00  0.00     0.041 C 
HETATM    9  C11 UNL     1      23.220   1.355  52.420  1.00  0.00    -0.045 A 
HETATM   10  C12 UNL     1      23.467   0.395  53.363  1.00  0.00     0.008 A 
HETATM   11  C13 UNL     1      24.670  -0.219  53.584  1.00  0.00     0.001 A 
HETATM   12  C14 UNL     1      25.749   0.132  52.811  1.00  0.00     0.001 A 
HETATM   13  C15 UNL     1      25.468   1.116  51.857  1.00  0.00     0.014 A 
HETATM   14  C16 UNL     1      24.259   1.781  51.585  1.00  0.00     0.001 A 
HETATM   15  H5  UNL     1      20.782   2.178  50.160  1.00  0.00     0.158 HD
ENDROOT
BRANCH   1  16
HETATM   16  O2  UNL     1      25.459   3.540  50.659  1.00  0.00    -0.317 OA
BRANCH  16  17
HETATM   17  C3  UNL     1      25.511   4.812  50.089  1.00  0.00     0.070 C 
HETATM   18  C2  UNL     1      24.664   5.637  50.664  1.00  0.00     0.043 C 
HETATM   19  C1  UNL     1      24.939   6.922  50.703  1.00  0.00     0.079 C 
HETATM   20  C19 UNL     1      25.982   7.549  49.927  1.00  0.00     0.034 C 
HETATM   21  C18 UNL     1      26.660   6.736  49.101  1.00  0.00    -0.017 C 
HETATM   22  C17 UNL     1      26.365   5.281  48.984  1.00  0.00     0.093 C 
BRANCH  19  23
HETATM   23  O1  UNL     1      24.183   7.725  51.541  1.00  0.00    -0.360 OA
HETATM   24  H1  UNL     1      24.455   8.689  51.704  1.00  0.00     0.217 HD
ENDBRANCH  19  23
ENDBRANCH  16  17
ENDBRANCH   1  16
TORSDOF 3
ENDMDL
MODEL 9
REMARK VINA RESULT:      -7.8      2.637      4.365
REMARK  3 active torsions:
REMARK  status: ('A' for Active; 'I' for Inactive)
REMARK    1  A    between atoms: O1_1  and  C1_2 
REMARK    2  A    between atoms: C3_4  and  O2_5 
REMARK    3  A    between atoms: O2_5  and  C4_6 
ROOT
HETATM    1  C4  UNL     1      25.090   2.398  51.089  1.00  0.00     0.072 C 
HETATM    2  C5  UNL     1      25.354   3.493  50.331  1.00  0.00     0.082 C 
HETATM    3  C6  UNL     1      26.566   3.973  49.602  1.00  0.00     0.002 C 
HETATM    4  C7  UNL     1      26.089   5.133  49.089  1.00  0.00     0.079 C 
HETATM    5  N1  UNL     1      24.739   5.318  49.483  1.00  0.00    -0.399 N 
HETATM    6  C8  UNL     1      23.299   5.357  49.621  1.00  0.00     0.119 C 
HETATM    7  C9  UNL     1      22.885   5.964  50.970  1.00  0.00     0.024 C 
HETATM    8  C10 UNL     1      23.506   5.095  52.083  1.00  0.00     0.041 C 
HETATM    9  C11 UNL     1      23.002   3.702  51.907  1.00  0.00    -0.045 A 
HETATM   10  C12 UNL     1      21.670   3.611  52.205  1.00  0.00     0.008 A 
HETATM   11  C13 UNL     1      20.906   2.479  52.121  1.00  0.00     0.001 A 
HETATM   12  C14 UNL     1      21.493   1.310  51.704  1.00  0.00     0.001 A 
HETATM   13  C15 UNL     1      22.854   1.431  51.407  1.00  0.00     0.014 A 
HETATM   14  C16 UNL     1      23.688   2.561  51.474  1.00  0.00     0.001 A 
HETATM   15  H5  UNL     1      25.146   5.851  50.322  1.00  0.00     0.158 HD
ENDROOT
BRANCH   1  16
HETATM   16  O2  UNL     1      25.531   1.163  51.682  1.00  0.00    -0.317 OA
BRANCH  16  17
HETATM   17  C3  UNL     1      26.387   1.222  52.782  1.00  0.00     0.070 C 
HETATM   18  C2  UNL     1      25.846   0.675  53.848  1.00  0.00     0.043 C 
HETATM   19  C1  UNL     1      26.622   0.121  54.754  1.00  0.00     0.079 C 
HETATM   20  C19 UNL     1      28.053   0.294  54.806  1.00  0.00     0.034 C 
HETATM   21  C18 UNL     1      28.574   1.111  53.877  1.00  0.00    -0.017 C 
HETATM   22  C17 UNL     1      27.740   1.799  52.853  1.00  0.00     0.093 C 
BRANCH  19  23
HETATM   23  O1  UNL     1      26.030  -0.680  55.716  1.00  0.00    -0.360 OA
HETATM   24  H1  UNL     1      25.449  -1.465  55.439  1.00  0.00     0.217 HD
ENDBRANCH  19  23
ENDBRANCH  16  17
ENDBRANCH   1  16
TORSDOF 3
ENDMDL
