MODEL 1
REMARK VINA RESULT:      -8.7      0.000      0.000
REMARK  5 active torsions:
REMARK  status: ('A' for Active; 'I' for Inactive)
REMARK    1  A    between atoms: C2_2  and  C3_3 
REMARK    2  A    between atoms: C2_2  and  N1_11 
REMARK    3  A    between atoms: N1_11  and  C10_12 
REMARK    4  A    between atoms: C12_14  and  C13_15 
REMARK    5  A    between atoms: C19_21  and  N2_22 
ROOT
HETATM    1  C10 UNL     1      22.003  -0.413  53.222  1.00  0.00     0.131 A 
HETATM    2  C11 UNL     1      21.806   0.433  52.176  1.00  0.00     0.079 A 
HETATM    3  C12 UNL     1      20.571   0.828  51.712  1.00  0.00     0.052 A 
HETATM    4  N3  UNL     1      19.550   0.293  52.395  1.00  0.00    -0.245 NA
HETATM    5  C24 UNL     1      19.694  -0.548  53.433  1.00  0.00     0.235 A 
HETATM    6  N4  UNL     1      20.918  -0.928  53.880  1.00  0.00    -0.224 NA
ENDROOT
BRANCH   3   7
HETATM    7  C13 UNL     1      20.265   1.794  50.594  1.00  0.00     0.032 A 
HETATM    8  C14 UNL     1      18.854   2.243  50.650  1.00  0.00     0.027 C 
HETATM    9  C15 UNL     1      20.486   1.039  49.300  1.00  0.00     0.047 A 
HETATM   10  C16 UNL     1      21.646   1.495  48.531  1.00  0.00    -0.024 A 
HETATM   11  C17 UNL     1      22.513   2.479  48.677  1.00  0.00     0.010 A 
HETATM   12  C18 UNL     1      22.292   3.303  49.849  1.00  0.00    -0.003 A 
HETATM   13  C19 UNL     1      23.065   4.391  50.135  1.00  0.00     0.036 A 
HETATM   14  C23 UNL     1      21.206   2.929  50.649  1.00  0.00    -0.031 A 
HETATM   15  C20 UNL     1      22.828   5.206  51.237  1.00  0.00     0.030 A 
HETATM   16  C21 UNL     1      21.761   4.817  52.001  1.00  0.00     0.003 A 
HETATM   17  C22 UNL     1      20.931   3.727  51.777  1.00  0.00     0.009 A 
BRANCH  13  18
HETATM   18  N2  UNL     1      24.144   4.687  49.268  1.00  0.00    -0.398 N 
HETATM   19  H19 UNL     1      24.345   4.258  48.328  1.00  0.00     0.156 HD
HETATM   20  H20 UNL     1      24.969   5.356  49.302  1.00  0.00     0.156 HD
ENDBRANCH  13  18
ENDBRANCH   3   7
BRANCH   1  21
HETATM   21  N1  UNL     1      23.305  -0.684  53.582  1.00  0.00    -0.344 N 
HETATM   22  H10 UNL     1      23.152  -1.543  54.190  1.00  0.00     0.167 HD
BRANCH  21  23
HETATM   23  C2  UNL     1      24.649  -0.359  53.533  1.00  0.00     0.011 C 
HETATM   24  C1  UNL     1      24.720  -0.800  54.821  1.00  0.00     0.039 C 
BRANCH  23  25
HETATM   25  C3  UNL     1      26.004  -0.032  53.485  1.00  0.00     0.082 C 
HETATM   26  C4  UNL     1      27.137  -0.675  53.247  1.00  0.00    -0.046 C 
HETATM   27  C5  UNL     1      27.977  -1.790  52.942  1.00  0.00     0.006 C 
HETATM   28  C9  UNL     1      27.959   0.592  53.508  1.00  0.00     0.032 C 
HETATM   29  C6  UNL     1      29.187  -2.250  53.121  1.00  0.00     0.000 C 
HETATM   30  C7  UNL     1      30.145  -1.467  53.883  1.00  0.00     0.202 C 
HETATM   31  O1  UNL     1      30.238  -0.131  53.593  1.00  0.00    -0.359 OA
HETATM   32  C8  UNL     1      29.278   0.911  53.671  1.00  0.00     0.135 C 
ENDBRANCH  23  25
ENDBRANCH  21  23
ENDBRANCH   1  21
TORSDOF 5
ENDMDL
MODEL 2
REMARK VINA RESULT:      -8.6      3.687      6.786
REMARK  5 active torsions:
REMARK  status: ('A' for Active; 'I' for Inactive)
REMARK    1  A    between atoms: C2_2  and  C3_3 
REMARK    2  A    between atoms: C2_2  and  N1_11 
REMARK    3  A    between atoms: N1_11  and  C10_12 
REMARK    4  A    between atoms: C12_14  and  C13_15 
REMARK    5  A    between atoms: C19_21  and  N2_22 
ROOT
HETATM    1  C10 UNL     1      22.996   4.211  51.797  1.00  0.00     0.131 A 
HETATM    2  C11 UNL     1      23.070   2.856  51.871  1.00  0.00     0.079 A 
HETATM    3  C12 UNL     1      22.021   2.034  52.217  1.00  0.00     0.052 A 
HETATM    4  N3  UNL     1      20.888   2.699  52.481  1.00  0.00    -0.245 NA
HETATM    5  C24 UNL     1      20.766   4.035  52.423  1.00  0.00     0.235 A 
HETATM    6  N4  UNL     1      21.809   4.834  52.081  1.00  0.00    -0.224 NA
ENDROOT
BRANCH   3   7
HETATM    7  C13 UNL     1      22.005   0.526  52.278  1.00  0.00     0.032 A 
HETATM    8  C14 UNL     1      21.877  -0.061  50.923  1.00  0.00     0.027 C 
HETATM    9  C15 UNL     1      20.788   0.142  53.093  1.00  0.00     0.047 A 
HETATM   10  C16 UNL     1      21.102  -0.435  54.402  1.00  0.00    -0.024 A 
HETATM   11  C17 UNL     1      22.223  -0.769  55.012  1.00  0.00     0.010 A 
HETATM   12  C18 UNL     1      23.423  -0.518  54.237  1.00  0.00    -0.003 A 
HETATM   13  C19 UNL     1      24.669  -0.842  54.693  1.00  0.00     0.036 A 
HETATM   14  C23 UNL     1      23.214   0.045  52.974  1.00  0.00    -0.031 A 
HETATM   15  C20 UNL     1      25.817  -0.638  53.934  1.00  0.00     0.030 A 
HETATM   16  C21 UNL     1      25.583  -0.087  52.703  1.00  0.00     0.003 A 
HETATM   17  C22 UNL     1      24.350   0.269  52.172  1.00  0.00     0.009 A 
BRANCH  13  18
HETATM   18  N2  UNL     1      24.779  -1.403  55.987  1.00  0.00    -0.398 N 
HETATM   19  H19 UNL     1      24.544  -2.386  56.280  1.00  0.00     0.156 HD
HETATM   20  H20 UNL     1      25.101  -1.043  56.934  1.00  0.00     0.156 HD
ENDBRANCH  13  18
ENDBRANCH   3   7
BRANCH   1  21
HETATM   21  N1  UNL     1      24.131   4.889  51.406  1.00  0.00    -0.344 N 
HETATM   22  H10 UNL     1      24.630   4.966  52.341  1.00  0.00     0.167 HD
BRANCH  21  23
HETATM   23  C2  UNL     1      24.872   5.498  50.409  1.00  0.00     0.011 C 
HETATM   24  C1  UNL     1      24.526   6.683  50.990  1.00  0.00     0.039 C 
BRANCH  23  25
HETATM   25  C3  UNL     1      25.619   6.115  49.406  1.00  0.00     0.082 C 
HETATM   26  C4  UNL     1      26.781   5.902  48.809  1.00  0.00    -0.046 C 
HETATM   27  C5  UNL     1      28.020   5.243  48.541  1.00  0.00     0.006 C 
HETATM   28  C9  UNL     1      26.623   7.167  47.959  1.00  0.00     0.032 C 
HETATM   29  C6  UNL     1      29.232   5.461  48.102  1.00  0.00     0.000 C 
HETATM   30  C7  UNL     1      29.617   6.804  47.702  1.00  0.00     0.202 C 
HETATM   31  O1  UNL     1      28.745   7.497  46.903  1.00  0.00    -0.359 OA
HETATM   32  C8  UNL     1      27.406   7.912  47.122  1.00  0.00     0.135 C 
ENDBRANCH  23  25
ENDBRANCH  21  23
ENDBRANCH   1  21
TORSDOF 5
ENDMDL
MODEL 3
REMARK VINA RESULT:      -8.5      2.870      5.768
REMARK  5 active torsions:
REMARK  status: ('A' for Active; 'I' for Inactive)
REMARK    1  A    between atoms: C2_2  and  C3_3 
REMARK    2  A    between atoms: C2_2  and  N1_11 
REMARK    3  A    between atoms: N1_11  and  C10_12 
REMARK    4  A    between atoms: C12_14  and  C13_15 
REMARK    5  A    between atoms: C19_21  and  N2_22 
ROOT
HETATM    1  C10 UNL     1      26.362   3.459  50.233  1.00  0.00     0.131 A 
HETATM    2  C11 UNL     1      25.116   3.993  50.136  1.00  0.00     0.079 A 
HETATM    3  C12 UNL     1      24.793   5.085  49.362  1.00  0.00     0.052 A 
HETATM    4  N3  UNL     1      25.837   5.592  48.692  1.00  0.00    -0.245 NA
HETATM    5  C24 UNL     1      27.086   5.100  48.757  1.00  0.00     0.235 A 
HETATM    6  N4  UNL     1      27.391   4.022  49.525  1.00  0.00    -0.224 NA
ENDROOT
BRANCH   3   7
HETATM    7  C13 UNL     1      23.434   5.711  49.161  1.00  0.00     0.032 A 
HETATM    8  C14 UNL     1      23.453   6.674  48.035  1.00  0.00     0.027 C 
HETATM    9  C15 UNL     1      23.113   6.459  50.438  1.00  0.00     0.047 A 
HETATM   10  C16 UNL     1      22.027   5.866  51.222  1.00  0.00    -0.024 A 
HETATM   11  C17 UNL     1      21.204   4.853  51.029  1.00  0.00     0.010 A 
HETATM   12  C18 UNL     1      21.398   4.156  49.772  1.00  0.00    -0.003 A 
HETATM   13  C19 UNL     1      20.608   3.111  49.386  1.00  0.00     0.036 A 
HETATM   14  C23 UNL     1      22.425   4.652  48.963  1.00  0.00    -0.031 A 
HETATM   15  C20 UNL     1      20.767   2.468  48.163  1.00  0.00     0.030 A 
HETATM   16  C21 UNL     1      21.779   2.975  47.392  1.00  0.00     0.003 A 
HETATM   17  C22 UNL     1      22.621   4.030  47.715  1.00  0.00     0.009 A 
BRANCH  13  18
HETATM   18  N2  UNL     1      19.597   2.677  50.275  1.00  0.00    -0.398 N 
HETATM   19  H19 UNL     1      18.557   2.680  50.112  1.00  0.00     0.156 HD
HETATM   20  H20 UNL     1      19.588   2.262  51.254  1.00  0.00     0.156 HD
ENDBRANCH  13  18
ENDBRANCH   3   7
BRANCH   1  21
HETATM   21  N1  UNL     1      26.515   2.344  51.029  1.00  0.00    -0.344 N 
HETATM   22  H10 UNL     1      27.489   2.040  50.735  1.00  0.00     0.167 HD
BRANCH  21  23
HETATM   23  C2  UNL     1      26.000   1.474  51.974  1.00  0.00     0.011 C 
HETATM   24  C1  UNL     1      27.042   1.850  52.769  1.00  0.00     0.039 C 
BRANCH  23  25
HETATM   25  C3  UNL     1      25.482   0.599  52.929  1.00  0.00     0.082 C 
HETATM   26  C4  UNL     1      24.317   0.015  53.162  1.00  0.00    -0.046 C 
HETATM   27  C5  UNL     1      22.942  -0.308  52.946  1.00  0.00     0.006 C 
HETATM   28  C9  UNL     1      24.854  -0.642  54.438  1.00  0.00     0.032 C 
HETATM   29  C6  UNL     1      21.855  -0.670  53.575  1.00  0.00     0.000 C 
HETATM   30  C7  UNL     1      21.891  -0.852  55.016  1.00  0.00     0.202 C 
HETATM   31  O1  UNL     1      22.939  -1.567  55.535  1.00  0.00    -0.359 OA
HETATM   32  C8  UNL     1      24.338  -1.332  55.499  1.00  0.00     0.135 C 
ENDBRANCH  23  25
ENDBRANCH  21  23
ENDBRANCH   1  21
TORSDOF 5
ENDMDL
MODEL 4
REMARK VINA RESULT:      -8.5      6.706      9.646
REMARK  5 active torsions:
REMARK  status: ('A' for Active; 'I' for Inactive)
REMARK    1  A    between atoms: C2_2  and  C3_3 
REMARK    2  A    between atoms: C2_2  and  N1_11 
REMARK    3  A    between atoms: N1_11  and  C10_12 
REMARK    4  A    between atoms: C12_14  and  C13_15 
REMARK    5  A    between atoms: C19_21  and  N2_22 
ROOT
HETATM    1  C10 UNL     1      27.560   5.469  48.535  1.00  0.00     0.131 A 
HETATM    2  C11 UNL     1      28.917   5.478  48.619  1.00  0.00     0.079 A 
HETATM    3  C12 UNL     1      29.713   6.548  48.277  1.00  0.00     0.052 A 
HETATM    4  N3  UNL     1      29.021   7.610  47.842  1.00  0.00    -0.245 NA
HETATM    5  C24 UNL     1      27.681   7.648  47.740  1.00  0.00     0.235 A 
HETATM    6  N4  UNL     1      26.909   6.585  48.081  1.00  0.00    -0.224 NA
ENDROOT
BRANCH   3   7
HETATM    7  C13 UNL     1      31.214   6.659  48.383  1.00  0.00     0.032 A 
HETATM    8  C14 UNL     1      31.693   6.181  49.702  1.00  0.00     0.027 C 
HETATM    9  C15 UNL     1      31.548   8.129  48.246  1.00  0.00     0.047 A 
HETATM   10  C16 UNL     1      32.239   8.474  47.001  1.00  0.00    -0.024 A 
HETATM   11  C17 UNL     1      32.710   7.770  45.989  1.00  0.00     0.010 A 
HETATM   12  C18 UNL     1      32.510   6.339  46.111  1.00  0.00    -0.003 A 
HETATM   13  C19 UNL     1      32.971   5.454  45.179  1.00  0.00     0.036 A 
HETATM   14  C23 UNL     1      31.845   5.923  47.269  1.00  0.00    -0.031 A 
HETATM   15  C20 UNL     1      32.815   4.079  45.315  1.00  0.00     0.030 A 
HETATM   16  C21 UNL     1      32.161   3.700  46.457  1.00  0.00     0.003 A 
HETATM   17  C22 UNL     1      31.665   4.537  47.447  1.00  0.00     0.009 A 
BRANCH  13  18
HETATM   18  N2  UNL     1      33.628   5.971  44.038  1.00  0.00    -0.398 N 
HETATM   19  H19 UNL     1      33.431   5.745  43.029  1.00  0.00     0.156 HD
HETATM   20  H20 UNL     1      34.418   6.665  43.879  1.00  0.00     0.156 HD
ENDBRANCH  13  18
ENDBRANCH   3   7
BRANCH   1  21
HETATM   21  N1  UNL     1      26.906   4.327  48.946  1.00  0.00    -0.344 N 
HETATM   22  H10 UNL     1      26.235   4.196  48.132  1.00  0.00     0.167 HD
BRANCH  21  23
HETATM   23  C2  UNL     1      26.721   3.334  49.891  1.00  0.00     0.011 C 
HETATM   24  C1  UNL     1      25.388   3.607  49.798  1.00  0.00     0.039 C 
BRANCH  23  25
HETATM   25  C3  UNL     1      26.532   2.332  50.843  1.00  0.00     0.082 C 
HETATM   26  C4  UNL     1      27.077   1.996  52.002  1.00  0.00    -0.046 C 
HETATM   27  C5  UNL     1      27.975   2.092  53.109  1.00  0.00     0.006 C 
HETATM   28  C9  UNL     1      26.171   0.766  52.119  1.00  0.00     0.032 C 
HETATM   29  C6  UNL     1      28.569   1.369  54.022  1.00  0.00     0.000 C 
HETATM   30  C7  UNL     1      28.339  -0.065  54.061  1.00  0.00     0.202 C 
HETATM   31  O1  UNL     1      27.042  -0.497  53.955  1.00  0.00    -0.359 OA
HETATM   32  C8  UNL     1      26.087  -0.340  52.917  1.00  0.00     0.135 C 
ENDBRANCH  23  25
ENDBRANCH  21  23
ENDBRANCH   1  21
TORSDOF 5
ENDMDL
MODEL 5
REMARK VINA RESULT:      -8.5      2.435      5.076
REMARK  5 active torsions:
REMARK  status: ('A' for Active; 'I' for Inactive)
REMARK    1  A    between atoms: C2_2  and  C3_3 
REMARK    2  A    between atoms: C2_2  and  N1_11 
REMARK    3  A    between atoms: N1_11  and  C10_12 
REMARK    4  A    between atoms: C12_14  and  C13_15 
REMARK    5  A    between atoms: C19_21  and  N2_22 
ROOT
HETATM    1  C10 UNL     1      25.683   4.596  50.072  1.00  0.00     0.131 A 
HETATM    2  C11 UNL     1      24.373   4.482  49.728  1.00  0.00     0.079 A 
HETATM    3  C12 UNL     1      23.737   5.278  48.802  1.00  0.00     0.052 A 
HETATM    4  N3  UNL     1      24.538   6.201  48.252  1.00  0.00    -0.245 NA
HETATM    5  C24 UNL     1      25.837   6.352  48.560  1.00  0.00     0.235 A 
HETATM    6  N4  UNL     1      26.452   5.560  49.476  1.00  0.00    -0.224 NA
ENDROOT
BRANCH   3   7
HETATM    7  C13 UNL     1      22.306   5.190  48.329  1.00  0.00     0.032 A 
HETATM    8  C14 UNL     1      22.208   5.468  46.876  1.00  0.00     0.027 C 
HETATM    9  C15 UNL     1      21.538   6.254  49.083  1.00  0.00     0.047 A 
HETATM   10  C16 UNL     1      20.586   5.725  50.062  1.00  0.00    -0.024 A 
HETATM   11  C17 UNL     1      20.187   4.511  50.390  1.00  0.00     0.010 A 
HETATM   12  C18 UNL     1      20.816   3.449  49.628  1.00  0.00    -0.003 A 
HETATM   13  C19 UNL     1      20.493   2.134  49.802  1.00  0.00     0.036 A 
HETATM   14  C23 UNL     1      21.750   3.867  48.675  1.00  0.00    -0.031 A 
HETATM   15  C20 UNL     1      21.066   1.118  49.045  1.00  0.00     0.030 A 
HETATM   16  C21 UNL     1      21.976   1.556  48.120  1.00  0.00     0.003 A 
HETATM   17  C22 UNL     1      22.356   2.871  47.885  1.00  0.00     0.009 A 
BRANCH  13  18
HETATM   18  N2  UNL     1      19.539   1.809  50.795  1.00  0.00    -0.398 N 
HETATM   19  H19 UNL     1      19.721   1.578  51.806  1.00  0.00     0.156 HD
HETATM   20  H20 UNL     1      18.480   1.719  50.815  1.00  0.00     0.156 HD
ENDBRANCH  13  18
ENDBRANCH   3   7
BRANCH   1  21
HETATM   21  N1  UNL     1      26.177   3.700  50.996  1.00  0.00    -0.344 N 
HETATM   22  H10 UNL     1      26.623   4.374  51.686  1.00  0.00     0.167 HD
BRANCH  21  23
HETATM   23  C2  UNL     1      26.364   2.392  51.407  1.00  0.00     0.011 C 
HETATM   24  C1  UNL     1      25.353   2.612  52.295  1.00  0.00     0.039 C 
BRANCH  23  25
HETATM   25  C3  UNL     1      26.551   1.074  51.822  1.00  0.00     0.082 C 
HETATM   26  C4  UNL     1      27.401   0.426  52.603  1.00  0.00    -0.046 C 
HETATM   27  C5  UNL     1      28.520   0.261  53.476  1.00  0.00     0.006 C 
HETATM   28  C9  UNL     1      26.728  -0.915  52.294  1.00  0.00     0.032 C 
HETATM   29  C6  UNL     1      29.411  -0.616  53.859  1.00  0.00     0.000 C 
HETATM   30  C7  UNL     1      29.395  -1.949  53.283  1.00  0.00     0.202 C 
HETATM   31  O1  UNL     1      28.183  -2.585  53.199  1.00  0.00    -0.359 OA
HETATM   32  C8  UNL     1      26.993  -2.239  52.509  1.00  0.00     0.135 C 
ENDBRANCH  23  25
ENDBRANCH  21  23
ENDBRANCH   1  21
TORSDOF 5
ENDMDL
MODEL 6
REMARK VINA RESULT:      -8.4      3.653      5.822
REMARK  5 active torsions:
REMARK  status: ('A' for Active; 'I' for Inactive)
REMARK    1  A    between atoms: C2_2  and  C3_3 
REMARK    2  A    between atoms: C2_2  and  N1_11 
REMARK    3  A    between atoms: N1_11  and  C10_12 
REMARK    4  A    between atoms: C12_14  and  C13_15 
REMARK    5  A    between atoms: C19_21  and  N2_22 
ROOT
HETATM    1  C10 UNL     1      26.265   4.358  50.018  1.00  0.00     0.131 A 
HETATM    2  C11 UNL     1      25.259   5.248  49.804  1.00  0.00     0.079 A 
HETATM    3  C12 UNL     1      25.317   6.289  48.905  1.00  0.00     0.052 A 
HETATM    4  N3  UNL     1      26.479   6.357  48.241  1.00  0.00    -0.245 NA
HETATM    5  C24 UNL     1      27.501   5.502  48.419  1.00  0.00     0.235 A 
HETATM    6  N4  UNL     1      27.430   4.479  49.309  1.00  0.00    -0.224 NA
ENDROOT
BRANCH   3   7
HETATM    7  C13 UNL     1      24.237   7.290  48.573  1.00  0.00     0.032 A 
HETATM    8  C14 UNL     1      24.595   8.081  47.372  1.00  0.00     0.027 C 
HETATM    9  C15 UNL     1      24.134   8.223  49.760  1.00  0.00     0.047 A 
HETATM   10  C16 UNL     1      22.893   8.083  50.527  1.00  0.00    -0.024 A 
HETATM   11  C17 UNL     1      21.796   7.367  50.371  1.00  0.00     0.010 A 
HETATM   12  C18 UNL     1      21.793   6.524  49.191  1.00  0.00    -0.003 A 
HETATM   13  C19 UNL     1      20.722   5.750  48.848  1.00  0.00     0.036 A 
HETATM   14  C23 UNL     1      22.948   6.589  48.405  1.00  0.00    -0.031 A 
HETATM   15  C20 UNL     1      20.703   4.972  47.695  1.00  0.00     0.030 A 
HETATM   16  C21 UNL     1      21.846   5.055  46.946  1.00  0.00     0.003 A 
HETATM   17  C22 UNL     1      22.972   5.816  47.228  1.00  0.00     0.009 A 
BRANCH  13  18
HETATM   18  N2  UNL     1      19.600   5.747  49.709  1.00  0.00    -0.398 N 
HETATM   19  H19 UNL     1      19.066   6.581  50.067  1.00  0.00     0.156 HD
HETATM   20  H20 UNL     1      19.026   4.992  50.189  1.00  0.00     0.156 HD
ENDBRANCH  13  18
ENDBRANCH   3   7
BRANCH   1  21
HETATM   21  N1  UNL     1      26.037   3.351  50.932  1.00  0.00    -0.344 N 
HETATM   22  H10 UNL     1      25.348   3.841  51.576  1.00  0.00     0.167 HD
BRANCH  21  23
HETATM   23  C2  UNL     1      26.295   2.069  51.382  1.00  0.00     0.011 C 
HETATM   24  C1  UNL     1      24.948   1.948  51.559  1.00  0.00     0.039 C 
BRANCH  23  25
HETATM   25  C3  UNL     1      26.552   0.775  51.835  1.00  0.00     0.082 C 
HETATM   26  C4  UNL     1      27.447   0.195  52.619  1.00  0.00    -0.046 C 
HETATM   27  C5  UNL     1      28.588   0.112  53.476  1.00  0.00     0.006 C 
HETATM   28  C9  UNL     1      26.834  -1.187  52.366  1.00  0.00     0.032 C 
HETATM   29  C6  UNL     1      29.527  -0.708  53.869  1.00  0.00     0.000 C 
HETATM   30  C7  UNL     1      29.565  -2.059  53.336  1.00  0.00     0.202 C 
HETATM   31  O1  UNL     1      28.384  -2.754  53.297  1.00  0.00    -0.359 OA
HETATM   32  C8  UNL     1      27.167  -2.488  52.619  1.00  0.00     0.135 C 
ENDBRANCH  23  25
ENDBRANCH  21  23
ENDBRANCH   1  21
TORSDOF 5
ENDMDL
MODEL 7
REMARK VINA RESULT:      -8.3      3.827      7.003
REMARK  5 active torsions:
REMARK  status: ('A' for Active; 'I' for Inactive)
REMARK    1  A    between atoms: C2_2  and  C3_3 
REMARK    2  A    between atoms: C2_2  and  N1_11 
REMARK    3  A    between atoms: N1_11  and  C10_12 
REMARK    4  A    between atoms: C12_14  and  C13_15 
REMARK    5  A    between atoms: C19_21  and  N2_22 
ROOT
HETATM    1  C10 UNL     1      23.030   0.563  52.657  1.00  0.00     0.131 A 
HETATM    2  C11 UNL     1      22.897   1.426  51.614  1.00  0.00     0.079 A 
HETATM    3  C12 UNL     1      23.928   2.159  51.071  1.00  0.00     0.052 A 
HETATM    4  N3  UNL     1      25.108   1.946  51.672  1.00  0.00    -0.245 NA
HETATM    5  C24 UNL     1      25.288   1.105  52.704  1.00  0.00     0.235 A 
HETATM    6  N4  UNL     1      24.262   0.389  53.230  1.00  0.00    -0.224 NA
ENDROOT
BRANCH   3   7
HETATM    7  C13 UNL     1      23.878   3.098  49.891  1.00  0.00     0.032 A 
HETATM    8  C14 UNL     1      23.069   2.527  48.789  1.00  0.00     0.027 C 
HETATM    9  C15 UNL     1      25.305   3.266  49.414  1.00  0.00     0.047 A 
HETATM   10  C16 UNL     1      25.864   4.599  49.651  1.00  0.00    -0.024 A 
HETATM   11  C17 UNL     1      25.373   5.727  50.128  1.00  0.00     0.010 A 
HETATM   12  C18 UNL     1      23.976   5.657  50.510  1.00  0.00    -0.003 A 
HETATM   13  C19 UNL     1      23.292   6.740  50.982  1.00  0.00     0.036 A 
HETATM   14  C23 UNL     1      23.365   4.412  50.326  1.00  0.00    -0.031 A 
HETATM   15  C20 UNL     1      21.942   6.685  51.310  1.00  0.00     0.030 A 
HETATM   16  C21 UNL     1      21.370   5.455  51.120  1.00  0.00     0.003 A 
HETATM   17  C22 UNL     1      21.998   4.311  50.647  1.00  0.00     0.009 A 
BRANCH  13  18
HETATM   18  N2  UNL     1      23.998   7.957  51.138  1.00  0.00    -0.398 N 
HETATM   19  H19 UNL     1      24.028   8.574  51.990  1.00  0.00     0.156 HD
HETATM   20  H20 UNL     1      24.636   8.538  50.517  1.00  0.00     0.156 HD
ENDBRANCH  13  18
ENDBRANCH   3   7
BRANCH   1  21
HETATM   21  N1  UNL     1      21.903  -0.119  53.064  1.00  0.00    -0.344 N 
HETATM   22  H10 UNL     1      22.341  -0.806  53.746  1.00  0.00     0.167 HD
BRANCH  21  23
HETATM   23  C2  UNL     1      20.537  -0.321  52.982  1.00  0.00     0.011 C 
HETATM   24  C1  UNL     1      20.457   0.285  54.201  1.00  0.00     0.039 C 
BRANCH  23  25
HETATM   25  C3  UNL     1      19.159  -0.522  52.901  1.00  0.00     0.082 C 
HETATM   26  C4  UNL     1      18.311  -1.485  53.227  1.00  0.00    -0.046 C 
HETATM   27  C5  UNL     1      17.895  -2.755  53.734  1.00  0.00     0.006 C 
HETATM   28  C9  UNL     1      17.129  -0.692  52.660  1.00  0.00     0.032 C 
HETATM   29  C6  UNL     1      16.959  -3.660  53.610  1.00  0.00     0.000 C 
HETATM   30  C7  UNL     1      15.884  -3.451  52.656  1.00  0.00     0.202 C 
HETATM   31  O1  UNL     1      15.286  -2.217  52.641  1.00  0.00    -0.359 OA
HETATM   32  C8  UNL     1      15.812  -0.927  52.377  1.00  0.00     0.135 C 
ENDBRANCH  23  25
ENDBRANCH  21  23
ENDBRANCH   1  21
TORSDOF 5
ENDMDL
MODEL 8
REMARK VINA RESULT:      -8.2      5.714      8.195
REMARK  5 active torsions:
REMARK  status: ('A' for Active; 'I' for Inactive)
REMARK    1  A    between atoms: C2_2  and  C3_3 
REMARK    2  A    between atoms: C2_2  and  N1_11 
REMARK    3  A    between atoms: N1_11  and  C10_12 
REMARK    4  A    between atoms: C12_14  and  C13_15 
REMARK    5  A    between atoms: C19_21  and  N2_22 
ROOT
HETATM    1  C10 UNL     1      26.034   6.114  49.677  1.00  0.00     0.131 A 
HETATM    2  C11 UNL     1      26.722   6.922  48.826  1.00  0.00     0.079 A 
HETATM    3  C12 UNL     1      26.513   8.276  48.694  1.00  0.00     0.052 A 
HETATM    4  N3  UNL     1      25.547   8.746  49.496  1.00  0.00    -0.245 NA
HETATM    5  C24 UNL     1      24.840   7.988  50.350  1.00  0.00     0.235 A 
HETATM    6  N4  UNL     1      25.057   6.654  50.470  1.00  0.00    -0.224 NA
ENDROOT
BRANCH   3   7
HETATM    7  C13 UNL     1      27.259   9.249  47.815  1.00  0.00     0.032 A 
HETATM    8  C14 UNL     1      27.003  10.648  48.232  1.00  0.00     0.027 C 
HETATM    9  C15 UNL     1      26.728   9.054  46.410  1.00  0.00     0.047 A 
HETATM   10  C16 UNL     1      27.689   8.451  45.484  1.00  0.00    -0.024 A 
HETATM   11  C17 UNL     1      28.958   8.102  45.580  1.00  0.00     0.010 A 
HETATM   12  C18 UNL     1      29.554   8.359  46.877  1.00  0.00    -0.003 A 
HETATM   13  C19 UNL     1      30.868   8.100  47.142  1.00  0.00     0.036 A 
HETATM   14  C23 UNL     1      28.699   8.925  47.827  1.00  0.00    -0.031 A 
HETATM   15  C20 UNL     1      31.450   8.384  48.373  1.00  0.00     0.030 A 
HETATM   16  C21 UNL     1      30.591   8.938  49.283  1.00  0.00     0.003 A 
HETATM   17  C22 UNL     1      29.247   9.228  49.089  1.00  0.00     0.009 A 
BRANCH  13  18
HETATM   18  N2  UNL     1      31.653   7.522  46.117  1.00  0.00    -0.398 N 
HETATM   19  H19 UNL     1      31.316   7.119  45.204  1.00  0.00     0.156 HD
HETATM   20  H20 UNL     1      32.692   7.348  45.977  1.00  0.00     0.156 HD
ENDBRANCH  13  18
ENDBRANCH   3   7
BRANCH   1  21
HETATM   21  N1  UNL     1      26.386   4.782  49.711  1.00  0.00    -0.344 N 
HETATM   22  H10 UNL     1      26.751   4.662  48.720  1.00  0.00     0.167 HD
BRANCH  21  23
HETATM   23  C2  UNL     1      26.463   3.586  50.404  1.00  0.00     0.011 C 
HETATM   24  C1  UNL     1      25.390   3.184  49.664  1.00  0.00     0.039 C 
BRANCH  23  25
HETATM   25  C3  UNL     1      26.538   2.380  51.099  1.00  0.00     0.082 C 
HETATM   26  C4  UNL     1      27.160   1.935  52.180  1.00  0.00    -0.046 C 
HETATM   27  C5  UNL     1      28.016   1.994  53.323  1.00  0.00     0.006 C 
HETATM   28  C9  UNL     1      26.592   0.526  51.977  1.00  0.00     0.032 C 
HETATM   29  C6  UNL     1      28.780   1.252  54.081  1.00  0.00     0.000 C 
HETATM   30  C7  UNL     1      28.916  -0.165  53.789  1.00  0.00     0.202 C 
HETATM   31  O1  UNL     1      27.768  -0.867  53.527  1.00  0.00    -0.359 OA
HETATM   32  C8  UNL     1      26.795  -0.718  52.506  1.00  0.00     0.135 C 
ENDBRANCH  23  25
ENDBRANCH  21  23
ENDBRANCH   1  21
TORSDOF 5
ENDMDL
MODEL 9
REMARK VINA RESULT:      -8.2      6.674      9.135
REMARK  5 active torsions:
REMARK  status: ('A' for Active; 'I' for Inactive)
REMARK    1  A    between atoms: C2_2  and  C3_3 
REMARK    2  A    between atoms: C2_2  and  N1_11 
REMARK    3  A    between atoms: N1_11  and  C10_12 
REMARK    4  A    between atoms: C12_14  and  C13_15 
REMARK    5  A    between atoms: C19_21  and  N2_22 
ROOT
HETATM    1  C10 UNL     1      27.970   5.380  48.545  1.00  0.00     0.131 A 
HETATM    2  C11 UNL     1      27.489   6.530  48.002  1.00  0.00     0.079 A 
HETATM    3  C12 UNL     1      28.249   7.440  47.303  1.00  0.00     0.052 A 
HETATM    4  N3  UNL     1      29.538   7.091  47.198  1.00  0.00    -0.245 NA
HETATM    5  C24 UNL     1      30.060   5.967  47.719  1.00  0.00     0.235 A 
HETATM    6  N4  UNL     1      29.299   5.078  48.406  1.00  0.00    -0.224 NA
ENDROOT
BRANCH   3   7
HETATM    7  C13 UNL     1      27.789   8.711  46.630  1.00  0.00     0.032 A 
HETATM    8  C14 UNL     1      26.347   8.953  46.878  1.00  0.00     0.027 C 
HETATM    9  C15 UNL     1      28.003   8.514  45.145  1.00  0.00     0.047 A 
HETATM   10  C16 UNL     1      29.069   9.343  44.578  1.00  0.00    -0.024 A 
HETATM   11  C17 UNL     1      29.848  10.292  45.062  1.00  0.00     0.010 A 
HETATM   12  C18 UNL     1      29.619  10.598  46.461  1.00  0.00    -0.003 A 
HETATM   13  C19 UNL     1      30.303  11.581  47.115  1.00  0.00     0.036 A 
HETATM   14  C23 UNL     1      28.622   9.841  47.085  1.00  0.00    -0.031 A 
HETATM   15  C20 UNL     1      30.057  11.903  48.446  1.00  0.00     0.030 A 
HETATM   16  C21 UNL     1      29.076  11.147  49.031  1.00  0.00     0.003 A 
HETATM   17  C22 UNL     1      28.340  10.133  48.434  1.00  0.00     0.009 A 
BRANCH  13  18
HETATM   18  N2  UNL     1      31.298  12.290  46.400  1.00  0.00    -0.398 N 
HETATM   19  H19 UNL     1      32.107  11.887  45.862  1.00  0.00     0.156 HD
HETATM   20  H20 UNL     1      31.496  13.317  46.211  1.00  0.00     0.156 HD
ENDBRANCH  13  18
ENDBRANCH   3   7
BRANCH   1  21
HETATM   21  N1  UNL     1      27.071   4.558  49.190  1.00  0.00    -0.344 N 
HETATM   22  H10 UNL     1      26.158   4.972  48.838  1.00  0.00     0.167 HD
BRANCH  21  23
HETATM   23  C2  UNL     1      26.825   3.506  50.055  1.00  0.00     0.011 C 
HETATM   24  C1  UNL     1      25.515   3.624  49.695  1.00  0.00     0.039 C 
BRANCH  23  25
HETATM   25  C3  UNL     1      26.575   2.445  50.925  1.00  0.00     0.082 C 
HETATM   26  C4  UNL     1      27.071   2.010  52.073  1.00  0.00    -0.046 C 
HETATM   27  C5  UNL     1      27.933   1.998  53.212  1.00  0.00     0.006 C 
HETATM   28  C9  UNL     1      26.126   0.804  52.072  1.00  0.00     0.032 C 
HETATM   29  C6  UNL     1      28.475   1.193  54.088  1.00  0.00     0.000 C 
HETATM   30  C7  UNL     1      28.202  -0.232  54.015  1.00  0.00     0.202 C 
HETATM   31  O1  UNL     1      26.897  -0.615  53.837  1.00  0.00    -0.359 OA
HETATM   32  C8  UNL     1      25.983  -0.354  52.785  1.00  0.00     0.135 C 
ENDBRANCH  23  25
ENDBRANCH  21  23
ENDBRANCH   1  21
TORSDOF 5
ENDMDL
