MODEL 1
REMARK VINA RESULT:      -8.4      0.000      0.000
REMARK  8 active torsions:
REMARK  status: ('A' for Active; 'I' for Inactive)
REMARK    1  A    between atoms: C2_2  and  C3_3 
REMARK    2  A    between atoms: C3_3  and  O1_4 
REMARK    3  A    between atoms: O1_4  and  C4_5 
REMARK    4  A    between atoms: C10_13  and  N3_14 
REMARK    5  A    between atoms: N3_14  and  C11_15 
REMARK       I    between atoms: N4_25  and  C19_26 
REMARK    6  A    between atoms: C19_26  and  C20_28 
REMARK    7  A    between atoms: C20_28  and  C21_29 
REMARK    8  A    between atoms: C21_29  and  N5_30 
ROOT
HETATM    1  C4  UNL     1      23.365   3.042  49.530  1.00  0.00     0.149 A 
HETATM    2  C5  UNL     1      22.352   2.172  49.670  1.00  0.00     0.088 A 
HETATM    3  C6  UNL     1      22.309   1.319  50.851  1.00  0.00     0.070 A 
HETATM    4  N1  UNL     1      21.327   0.417  51.085  1.00  0.00    -0.259 NA
HETATM    5  C7  UNL     1      21.338  -0.339  52.198  1.00  0.00     0.142 A 
HETATM    6  C8  UNL     1      22.354  -0.219  53.142  1.00  0.00     0.089 A 
HETATM    7  C9  UNL     1      22.286  -1.067  54.300  1.00  0.00     0.103 C 
HETATM    8  N2  UNL     1      22.231  -1.758  55.212  1.00  0.00    -0.191 NA
HETATM    9  C10 UNL     1      23.365   0.703  52.910  1.00  0.00     0.065 A 
HETATM   10  C17 UNL     1      23.330   1.464  51.763  1.00  0.00     0.017 A 
HETATM   11  C18 UNL     1      24.489   2.397  51.660  1.00  0.00     0.177 A 
HETATM   12  N4  UNL     1      24.409   3.199  50.458  1.00  0.00    -0.294 N 
HETATM   13  C19 UNL     1      25.404   4.188  50.183  1.00  0.00     0.227 C 
HETATM   14  O2  UNL     1      25.696   3.655  51.263  1.00  0.00    -0.273 OA
ENDROOT
BRANCH   9  15
HETATM   15  N3  UNL     1      24.336   0.723  53.949  1.00  0.00    -0.354 N 
HETATM   16  H8  UNL     1      24.065   1.087  54.906  1.00  0.00     0.166 HD
BRANCH  15  17
HETATM   17  C11 UNL     1      25.653   0.259  53.706  1.00  0.00     0.034 A 
HETATM   18  C12 UNL     1      25.807  -0.928  53.019  1.00  0.00     0.032 A 
HETATM   19  C13 UNL     1      27.100  -1.398  52.769  1.00  0.00     0.046 A 
HETATM   20  C14 UNL     1      28.224  -0.688  53.203  1.00  0.00     0.138 A 
HETATM   21  F1  UNL     1      29.461  -1.190  52.932  1.00  0.00    -0.204 F 
HETATM   22  C15 UNL     1      28.022   0.508  53.893  1.00  0.00     0.074 A 
HETATM   23 CL1  UNL     1      29.477   1.339  54.402  1.00  0.00    -0.081 Cl
HETATM   24  C16 UNL     1      26.742   0.983  54.145  1.00  0.00     0.056 A 
ENDBRANCH  15  17
ENDBRANCH   9  15
BRANCH   1  25
HETATM   25  O1  UNL     1      23.187   3.730  48.340  1.00  0.00    -0.332 OA
BRANCH  25  26
HETATM   26  C3  UNL     1      22.140   3.444  47.433  1.00  0.00     0.204 C 
BRANCH  26  27
HETATM   27  C2  UNL     1      22.056   4.594  46.474  1.00  0.00    -0.011 C 
HETATM   28  C1  UNL     1      22.384   5.793  46.933  1.00  0.00     0.009 C 
ENDBRANCH  26  27
ENDBRANCH  25  26
ENDBRANCH   1  25
BRANCH  13  29
HETATM   29  C20 UNL     1      25.381   5.020  48.985  1.00  0.00     0.122 C 
BRANCH  29  30
HETATM   30  C21 UNL     1      26.604   5.822  48.711  1.00  0.00     0.122 C 
BRANCH  30  31
HETATM   31  N5  UNL     1      27.835   5.214  49.125  1.00  0.00    -0.425 N 
HETATM   32  C22 UNL     1      28.977   5.547  48.338  1.00  0.00     0.139 C 
HETATM   33  H18 UNL     1      27.981   5.127  50.136  1.00  0.00     0.152 HD
ENDBRANCH  30  31
ENDBRANCH  29  30
ENDBRANCH  13  29
TORSDOF 8
ENDMDL
MODEL 2
REMARK VINA RESULT:      -8.2      2.394      3.811
REMARK  8 active torsions:
REMARK  status: ('A' for Active; 'I' for Inactive)
REMARK    1  A    between atoms: C2_2  and  C3_3 
REMARK    2  A    between atoms: C3_3  and  O1_4 
REMARK    3  A    between atoms: O1_4  and  C4_5 
REMARK    4  A    between atoms: C10_13  and  N3_14 
REMARK    5  A    between atoms: N3_14  and  C11_15 
REMARK       I    between atoms: N4_25  and  C19_26 
REMARK    6  A    between atoms: C19_26  and  C20_28 
REMARK    7  A    between atoms: C20_28  and  C21_29 
REMARK    8  A    between atoms: C21_29  and  N5_30 
ROOT
HETATM    1  C4  UNL     1      25.921   6.301  49.649  1.00  0.00     0.149 A 
HETATM    2  C5  UNL     1      24.845   6.376  50.451  1.00  0.00     0.088 A 
HETATM    3  C6  UNL     1      24.334   5.157  51.066  1.00  0.00     0.070 A 
HETATM    4  N1  UNL     1      23.263   5.131  51.892  1.00  0.00    -0.259 NA
HETATM    5  C7  UNL     1      22.841   3.975  52.435  1.00  0.00     0.142 A 
HETATM    6  C8  UNL     1      23.489   2.772  52.167  1.00  0.00     0.089 A 
HETATM    7  C9  UNL     1      22.969   1.586  52.789  1.00  0.00     0.103 C 
HETATM    8  N2  UNL     1      22.538   0.644  53.278  1.00  0.00    -0.191 NA
HETATM    9  C10 UNL     1      24.589   2.790  51.321  1.00  0.00     0.065 A 
HETATM   10  C17 UNL     1      25.000   3.987  50.778  1.00  0.00     0.017 A 
HETATM   11  C18 UNL     1      26.186   3.834  49.886  1.00  0.00     0.177 A 
HETATM   12  N4  UNL     1      26.607   5.111  49.353  1.00  0.00    -0.294 N 
HETATM   13  C19 UNL     1      27.754   5.195  48.503  1.00  0.00     0.227 C 
HETATM   14  O2  UNL     1      27.614   4.008  48.825  1.00  0.00    -0.273 OA
ENDROOT
BRANCH   9  15
HETATM   15  N3  UNL     1      25.155   1.498  51.132  1.00  0.00    -0.354 N 
HETATM   16  H8  UNL     1      24.816   0.896  50.329  1.00  0.00     0.166 HD
BRANCH  15  17
HETATM   17  C11 UNL     1      26.161   1.024  52.010  1.00  0.00     0.034 A 
HETATM   18  C12 UNL     1      26.180  -0.324  52.308  1.00  0.00     0.032 A 
HETATM   19  C13 UNL     1      27.167  -0.808  53.171  1.00  0.00     0.046 A 
HETATM   20  C14 UNL     1      28.123   0.048  53.729  1.00  0.00     0.138 A 
HETATM   21  F1  UNL     1      29.064  -0.476  54.564  1.00  0.00    -0.204 F 
HETATM   22  C15 UNL     1      28.066   1.403  53.400  1.00  0.00     0.074 A 
HETATM   23 CL1  UNL     1      29.296   2.409  54.137  1.00  0.00    -0.081 Cl
HETATM   24  C16 UNL     1      27.091   1.892  52.543  1.00  0.00     0.056 A 
ENDBRANCH  15  17
ENDBRANCH   9  15
BRANCH   1  25
HETATM   25  O1  UNL     1      26.210   7.577  49.190  1.00  0.00    -0.332 OA
BRANCH  25  26
HETATM   26  C3  UNL     1      26.315   8.699  50.043  1.00  0.00     0.204 C 
BRANCH  26  27
HETATM   27  C2  UNL     1      26.990   9.788  49.265  1.00  0.00    -0.011 C 
HETATM   28  C1  UNL     1      28.307   9.888  49.375  1.00  0.00     0.009 C 
ENDBRANCH  26  27
ENDBRANCH  25  26
ENDBRANCH   1  25
BRANCH  13  29
HETATM   29  C20 UNL     1      28.221   6.453  47.930  1.00  0.00     0.122 C 
BRANCH  29  30
HETATM   30  C21 UNL     1      29.692   6.678  47.936  1.00  0.00     0.122 C 
BRANCH  30  31
HETATM   31  N5  UNL     1      30.308   6.637  49.230  1.00  0.00    -0.425 N 
HETATM   32  C22 UNL     1      31.596   6.025  49.276  1.00  0.00     0.139 C 
HETATM   33  H18 UNL     1      30.166   7.459  49.827  1.00  0.00     0.152 HD
ENDBRANCH  30  31
ENDBRANCH  29  30
ENDBRANCH  13  29
TORSDOF 8
ENDMDL
MODEL 3
REMARK VINA RESULT:      -8.1      3.614      6.992
REMARK  8 active torsions:
REMARK  status: ('A' for Active; 'I' for Inactive)
REMARK    1  A    between atoms: C2_2  and  C3_3 
REMARK    2  A    between atoms: C3_3  and  O1_4 
REMARK    3  A    between atoms: O1_4  and  C4_5 
REMARK    4  A    between atoms: C10_13  and  N3_14 
REMARK    5  A    between atoms: N3_14  and  C11_15 
REMARK       I    between atoms: N4_25  and  C19_26 
REMARK    6  A    between atoms: C19_26  and  C20_28 
REMARK    7  A    between atoms: C20_28  and  C21_29 
REMARK    8  A    between atoms: C21_29  and  N5_30 
ROOT
HETATM    1  C4  UNL     1      23.451   0.935  52.915  1.00  0.00     0.149 A 
HETATM    2  C5  UNL     1      22.259   1.294  52.410  1.00  0.00     0.088 A 
HETATM    3  C6  UNL     1      22.047   2.681  52.013  1.00  0.00     0.070 A 
HETATM    4  N1  UNL     1      20.886   3.138  51.489  1.00  0.00    -0.259 NA
HETATM    5  C7  UNL     1      20.752   4.429  51.136  1.00  0.00     0.142 A 
HETATM    6  C8  UNL     1      21.798   5.334  51.297  1.00  0.00     0.089 A 
HETATM    7  C9  UNL     1      21.566   6.693  50.893  1.00  0.00     0.103 C 
HETATM    8  N2  UNL     1      21.366   7.778  50.583  1.00  0.00    -0.191 NA
HETATM    9  C10 UNL     1      22.992   4.874  51.833  1.00  0.00     0.065 A 
HETATM   10  C17 UNL     1      23.103   3.547  52.187  1.00  0.00     0.017 A 
HETATM   11  C18 UNL     1      24.442   3.217  52.755  1.00  0.00     0.177 A 
HETATM   12  N4  UNL     1      24.534   1.812  53.092  1.00  0.00    -0.294 N 
HETATM   13  C19 UNL     1      25.751   1.275  53.618  1.00  0.00     0.227 C 
HETATM   14  O2  UNL     1      25.935   2.482  53.408  1.00  0.00    -0.273 OA
ENDROOT
BRANCH   9  15
HETATM   15  N3  UNL     1      23.973   5.898  51.943  1.00  0.00    -0.354 N 
HETATM   16  H8  UNL     1      24.067   6.431  52.854  1.00  0.00     0.166 HD
BRANCH  15  17
HETATM   17  C11 UNL     1      24.817   6.200  50.845  1.00  0.00     0.034 A 
HETATM   18  C12 UNL     1      25.250   5.156  50.053  1.00  0.00     0.032 A 
HETATM   19  C13 UNL     1      26.082   5.438  48.965  1.00  0.00     0.046 A 
HETATM   20  C14 UNL     1      26.475   6.750  48.675  1.00  0.00     0.138 A 
HETATM   21  F1  UNL     1      27.286   6.969  47.602  1.00  0.00    -0.204 F 
HETATM   22  C15 UNL     1      26.012   7.774  49.503  1.00  0.00     0.074 A 
HETATM   23 CL1  UNL     1      26.546   9.386  49.075  1.00  0.00    -0.081 Cl
HETATM   24  C16 UNL     1      25.186   7.503  50.584  1.00  0.00     0.056 A 
ENDBRANCH  15  17
ENDBRANCH   9  15
BRANCH   1  25
HETATM   25  O1  UNL     1      23.406  -0.418  53.215  1.00  0.00    -0.332 OA
BRANCH  25  26
HETATM   26  C3  UNL     1      22.208  -1.169  53.213  1.00  0.00     0.204 C 
BRANCH  26  27
HETATM   27  C2  UNL     1      21.886  -1.496  54.641  1.00  0.00    -0.011 C 
HETATM   28  C1  UNL     1      22.895  -1.522  55.500  1.00  0.00     0.009 C 
ENDBRANCH  26  27
ENDBRANCH  25  26
ENDBRANCH   1  25
BRANCH  13  29
HETATM   29  C20 UNL     1      25.900  -0.130  53.983  1.00  0.00     0.122 C 
BRANCH  29  30
HETATM   30  C21 UNL     1      27.051  -0.852  53.377  1.00  0.00     0.122 C 
BRANCH  30  31
HETATM   31  N5  UNL     1      28.267  -0.805  54.135  1.00  0.00    -0.425 N 
HETATM   32  C22 UNL     1      29.445  -1.189  53.427  1.00  0.00     0.139 C 
HETATM   33  H18 UNL     1      28.359  -0.027  54.797  1.00  0.00     0.152 HD
ENDBRANCH  30  31
ENDBRANCH  29  30
ENDBRANCH  13  29
TORSDOF 8
ENDMDL
MODEL 4
REMARK VINA RESULT:      -8.0      1.842      2.218
REMARK  8 active torsions:
REMARK  status: ('A' for Active; 'I' for Inactive)
REMARK    1  A    between atoms: C2_2  and  C3_3 
REMARK    2  A    between atoms: C3_3  and  O1_4 
REMARK    3  A    between atoms: O1_4  and  C4_5 
REMARK    4  A    between atoms: C10_13  and  N3_14 
REMARK    5  A    between atoms: N3_14  and  C11_15 
REMARK       I    between atoms: N4_25  and  C19_26 
REMARK    6  A    between atoms: C19_26  and  C20_28 
REMARK    7  A    between atoms: C20_28  and  C21_29 
REMARK    8  A    between atoms: C21_29  and  N5_30 
ROOT
HETATM    1  C4  UNL     1      23.748   3.863  50.633  1.00  0.00     0.149 A 
HETATM    2  C5  UNL     1      22.571   3.674  51.251  1.00  0.00     0.088 A 
HETATM    3  C6  UNL     1      22.362   2.452  52.018  1.00  0.00     0.070 A 
HETATM    4  N1  UNL     1      21.215   2.174  52.680  1.00  0.00    -0.259 NA
HETATM    5  C7  UNL     1      21.083   1.031  53.378  1.00  0.00     0.142 A 
HETATM    6  C8  UNL     1      22.117   0.101  53.441  1.00  0.00     0.089 A 
HETATM    7  C9  UNL     1      21.888  -1.092  54.208  1.00  0.00     0.103 C 
HETATM    8  N2  UNL     1      21.690  -2.047  54.810  1.00  0.00    -0.191 NA
HETATM    9  C10 UNL     1      23.296   0.378  52.765  1.00  0.00     0.065 A 
HETATM   10  C17 UNL     1      23.405   1.555  52.059  1.00  0.00     0.017 A 
HETATM   11  C18 UNL     1      24.728   1.697  51.383  1.00  0.00     0.177 A 
HETATM   12  N4  UNL     1      24.819   2.954  50.672  1.00  0.00    -0.294 N 
HETATM   13  C19 UNL     1      26.022   3.308  49.985  1.00  0.00     0.227 C 
HETATM   14  O2  UNL     1      26.205   2.202  50.512  1.00  0.00    -0.273 OA
ENDROOT
BRANCH   9  15
HETATM   15  N3  UNL     1      24.266  -0.652  52.912  1.00  0.00    -0.354 N 
HETATM   16  H8  UNL     1      24.038  -1.631  52.579  1.00  0.00     0.166 HD
BRANCH  15  17
HETATM   17  C11 UNL     1      25.525  -0.370  53.499  1.00  0.00     0.034 A 
HETATM   18  C12 UNL     1      25.562   0.502  54.569  1.00  0.00     0.032 A 
HETATM   19  C13 UNL     1      26.796   0.789  55.159  1.00  0.00     0.046 A 
HETATM   20  C14 UNL     1      27.979   0.212  54.683  1.00  0.00     0.138 A 
HETATM   21  F1  UNL     1      29.154   0.526  55.296  1.00  0.00    -0.204 F 
HETATM   22  C15 UNL     1      27.894  -0.664  53.600  1.00  0.00     0.074 A 
HETATM   23 CL1  UNL     1      29.415  -1.346  53.063  1.00  0.00    -0.081 Cl
HETATM   24  C16 UNL     1      26.673  -0.956  53.008  1.00  0.00     0.056 A 
ENDBRANCH  15  17
ENDBRANCH   9  15
BRANCH   1  25
HETATM   25  O1  UNL     1      23.704   5.082  49.975  1.00  0.00    -0.332 OA
BRANCH  25  26
HETATM   26  C3  UNL     1      23.082   6.230  50.519  1.00  0.00     0.204 C 
BRANCH  26  27
HETATM   27  C2  UNL     1      24.168   7.107  51.067  1.00  0.00    -0.011 C 
HETATM   28  C1  UNL     1      24.657   8.042  50.264  1.00  0.00     0.009 C 
ENDBRANCH  26  27
ENDBRANCH  25  26
ENDBRANCH   1  25
BRANCH  13  29
HETATM   29  C20 UNL     1      26.170   4.556  49.244  1.00  0.00     0.122 C 
BRANCH  29  30
HETATM   30  C21 UNL     1      27.530   4.859  48.721  1.00  0.00     0.122 C 
BRANCH  30  31
HETATM   31  N5  UNL     1      27.999   6.189  48.978  1.00  0.00    -0.425 N 
HETATM   32  C22 UNL     1      28.493   6.894  47.840  1.00  0.00     0.139 C 
HETATM   33  H18 UNL     1      27.465   6.734  49.663  1.00  0.00     0.152 HD
ENDBRANCH  30  31
ENDBRANCH  29  30
ENDBRANCH  13  29
TORSDOF 8
ENDMDL
MODEL 5
REMARK VINA RESULT:      -7.5      3.677      8.296
REMARK  8 active torsions:
REMARK  status: ('A' for Active; 'I' for Inactive)
REMARK    1  A    between atoms: C2_2  and  C3_3 
REMARK    2  A    between atoms: C3_3  and  O1_4 
REMARK    3  A    between atoms: O1_4  and  C4_5 
REMARK    4  A    between atoms: C10_13  and  N3_14 
REMARK    5  A    between atoms: N3_14  and  C11_15 
REMARK       I    between atoms: N4_25  and  C19_26 
REMARK    6  A    between atoms: C19_26  and  C20_28 
REMARK    7  A    between atoms: C20_28  and  C21_29 
REMARK    8  A    between atoms: C21_29  and  N5_30 
ROOT
HETATM    1  C4  UNL     1      25.653   0.965  52.153  1.00  0.00     0.149 A 
HETATM    2  C5  UNL     1      26.604   1.584  51.435  1.00  0.00     0.088 A 
HETATM    3  C6  UNL     1      26.254   2.779  50.676  1.00  0.00     0.070 A 
HETATM    4  N1  UNL     1      27.142   3.475  49.929  1.00  0.00    -0.259 NA
HETATM    5  C7  UNL     1      26.760   4.575  49.254  1.00  0.00     0.142 A 
HETATM    6  C8  UNL     1      25.446   5.031  49.303  1.00  0.00     0.089 A 
HETATM    7  C9  UNL     1      25.127   6.213  48.550  1.00  0.00     0.103 C 
HETATM    8  N2  UNL     1      24.879   7.148  47.935  1.00  0.00    -0.191 NA
HETATM    9  C10 UNL     1      24.529   4.323  50.066  1.00  0.00     0.065 A 
HETATM   10  C17 UNL     1      24.946   3.201  50.746  1.00  0.00     0.017 A 
HETATM   11  C18 UNL     1      23.840   2.551  51.510  1.00  0.00     0.177 A 
HETATM   12  N4  UNL     1      24.316   1.392  52.233  1.00  0.00    -0.294 N 
HETATM   13  C19 UNL     1      23.424   0.643  53.062  1.00  0.00     0.227 C 
HETATM   14  O2  UNL     1      22.779   1.578  52.569  1.00  0.00    -0.273 OA
ENDROOT
BRANCH   9  15
HETATM   15  N3  UNL     1      23.227   4.896  50.028  1.00  0.00    -0.354 N 
HETATM   16  H8  UNL     1      23.004   5.721  50.654  1.00  0.00     0.166 HD
BRANCH  15  17
HETATM   17  C11 UNL     1      22.239   4.366  49.161  1.00  0.00     0.034 A 
HETATM   18  C12 UNL     1      21.064   3.905  49.720  1.00  0.00     0.032 A 
HETATM   19  C13 UNL     1      20.079   3.381  48.878  1.00  0.00     0.046 A 
HETATM   20  C14 UNL     1      20.268   3.319  47.493  1.00  0.00     0.138 A 
HETATM   21  F1  UNL     1      19.275   2.800  46.718  1.00  0.00    -0.204 F 
HETATM   22  C15 UNL     1      21.472   3.797  46.971  1.00  0.00     0.074 A 
HETATM   23 CL1  UNL     1      21.633   3.687  45.231  1.00  0.00    -0.081 Cl
HETATM   24  C16 UNL     1      22.454   4.320  47.799  1.00  0.00     0.056 A 
ENDBRANCH  15  17
ENDBRANCH   9  15
BRANCH   1  25
HETATM   25  O1  UNL     1      26.224  -0.133  52.777  1.00  0.00    -0.332 OA
BRANCH  25  26
HETATM   26  C3  UNL     1      27.388  -0.047  53.576  1.00  0.00     0.204 C 
BRANCH  26  27
HETATM   27  C2  UNL     1      28.289  -1.176  53.171  1.00  0.00    -0.011 C 
HETATM   28  C1  UNL     1      29.569  -1.080  53.502  1.00  0.00     0.009 C 
ENDBRANCH  26  27
ENDBRANCH  25  26
ENDBRANCH   1  25
BRANCH  13  29
HETATM   29  C20 UNL     1      23.844  -0.539  53.808  1.00  0.00     0.122 C 
BRANCH  29  30
HETATM   30  C21 UNL     1      22.863  -1.091  54.781  1.00  0.00     0.122 C 
BRANCH  30  31
HETATM   31  N5  UNL     1      21.550  -0.520  54.712  1.00  0.00    -0.425 N 
HETATM   32  C22 UNL     1      20.562  -1.333  54.081  1.00  0.00     0.139 C 
HETATM   33  H18 UNL     1      21.248   0.025  55.527  1.00  0.00     0.152 HD
ENDBRANCH  30  31
ENDBRANCH  29  30
ENDBRANCH  13  29
TORSDOF 8
ENDMDL
MODEL 6
REMARK VINA RESULT:      -7.5      3.762      5.563
REMARK  8 active torsions:
REMARK  status: ('A' for Active; 'I' for Inactive)
REMARK    1  A    between atoms: C2_2  and  C3_3 
REMARK    2  A    between atoms: C3_3  and  O1_4 
REMARK    3  A    between atoms: O1_4  and  C4_5 
REMARK    4  A    between atoms: C10_13  and  N3_14 
REMARK    5  A    between atoms: N3_14  and  C11_15 
REMARK       I    between atoms: N4_25  and  C19_26 
REMARK    6  A    between atoms: C19_26  and  C20_28 
REMARK    7  A    between atoms: C20_28  and  C21_29 
REMARK    8  A    between atoms: C21_29  and  N5_30 
ROOT
HETATM    1  C4  UNL     1      26.007   4.659  49.775  1.00  0.00     0.149 A 
HETATM    2  C5  UNL     1      26.673   3.531  50.076  1.00  0.00     0.088 A 
HETATM    3  C6  UNL     1      26.058   2.567  50.980  1.00  0.00     0.070 A 
HETATM    4  N1  UNL     1      26.645   1.401  51.337  1.00  0.00    -0.259 NA
HETATM    5  C7  UNL     1      26.026   0.546  52.172  1.00  0.00     0.142 A 
HETATM    6  C8  UNL     1      24.766   0.832  52.693  1.00  0.00     0.089 A 
HETATM    7  C9  UNL     1      24.181  -0.138  53.577  1.00  0.00     0.103 C 
HETATM    8  N2  UNL     1      23.728  -0.910  54.293  1.00  0.00    -0.191 NA
HETATM    9  C10 UNL     1      24.158   2.024  52.331  1.00  0.00     0.065 A 
HETATM   10  C17 UNL     1      24.813   2.881  51.476  1.00  0.00     0.017 A 
HETATM   11  C18 UNL     1      24.030   4.120  51.195  1.00  0.00     0.177 A 
HETATM   12  N4  UNL     1      24.735   4.986  50.274  1.00  0.00    -0.294 N 
HETATM   13  C19 UNL     1      24.142   6.213  49.840  1.00  0.00     0.227 C 
HETATM   14  O2  UNL     1      23.341   5.661  50.608  1.00  0.00    -0.273 OA
ENDROOT
BRANCH   9  15
HETATM   15  N3  UNL     1      22.879   2.190  52.932  1.00  0.00    -0.354 N 
HETATM   16  H8  UNL     1      22.817   2.455  53.956  1.00  0.00     0.166 HD
BRANCH  15  17
HETATM   17  C11 UNL     1      21.700   2.004  52.168  1.00  0.00     0.034 A 
HETATM   18  C12 UNL     1      21.620   0.887  51.360  1.00  0.00     0.032 A 
HETATM   19  C13 UNL     1      20.464   0.688  50.600  1.00  0.00     0.046 A 
HETATM   20  C14 UNL     1      19.400   1.597  50.649  1.00  0.00     0.138 A 
HETATM   21  F1  UNL     1      18.296   1.354  49.889  1.00  0.00    -0.204 F 
HETATM   22  C15 UNL     1      19.525   2.711  51.480  1.00  0.00     0.074 A 
HETATM   23 CL1  UNL     1      18.153   3.801  51.487  1.00  0.00    -0.081 Cl
HETATM   24  C16 UNL     1      20.669   2.916  52.238  1.00  0.00     0.056 A 
ENDBRANCH  15  17
ENDBRANCH   9  15
BRANCH   1  25
HETATM   25  O1  UNL     1      26.789   5.407  48.909  1.00  0.00    -0.332 OA
BRANCH  25  26
HETATM   26  C3  UNL     1      28.062   4.985  48.458  1.00  0.00     0.204 C 
BRANCH  26  27
HETATM   27  C2  UNL     1      28.894   6.217  48.261  1.00  0.00    -0.011 C 
HETATM   28  C1  UNL     1      30.101   6.057  47.736  1.00  0.00     0.009 C 
ENDBRANCH  26  27
ENDBRANCH  25  26
ENDBRANCH   1  25
BRANCH  13  29
HETATM   29  C20 UNL     1      24.807   7.129  48.920  1.00  0.00     0.122 C 
BRANCH  29  30
HETATM   30  C21 UNL     1      25.354   8.380  49.513  1.00  0.00     0.122 C 
BRANCH  30  31
HETATM   31  N5  UNL     1      26.483   8.201  50.378  1.00  0.00    -0.425 N 
HETATM   32  C22 UNL     1      27.478   9.220  50.304  1.00  0.00     0.139 C 
HETATM   33  H18 UNL     1      26.286   7.814  51.307  1.00  0.00     0.152 HD
ENDBRANCH  30  31
ENDBRANCH  29  30
ENDBRANCH  13  29
TORSDOF 8
ENDMDL
MODEL 7
REMARK VINA RESULT:      -7.4      2.951      5.335
REMARK  8 active torsions:
REMARK  status: ('A' for Active; 'I' for Inactive)
REMARK    1  A    between atoms: C2_2  and  C3_3 
REMARK    2  A    between atoms: C3_3  and  O1_4 
REMARK    3  A    between atoms: O1_4  and  C4_5 
REMARK    4  A    between atoms: C10_13  and  N3_14 
REMARK    5  A    between atoms: N3_14  and  C11_15 
REMARK       I    between atoms: N4_25  and  C19_26 
REMARK    6  A    between atoms: C19_26  and  C20_28 
REMARK    7  A    between atoms: C20_28  and  C21_29 
REMARK    8  A    between atoms: C21_29  and  N5_30 
ROOT
HETATM    1  C4  UNL     1      27.128   7.198  49.074  1.00  0.00     0.149 A 
HETATM    2  C5  UNL     1      26.047   7.672  49.715  1.00  0.00     0.088 A 
HETATM    3  C6  UNL     1      25.061   6.730  50.231  1.00  0.00     0.070 A 
HETATM    4  N1  UNL     1      23.945   7.108  50.896  1.00  0.00    -0.259 NA
HETATM    5  C7  UNL     1      23.073   6.191  51.354  1.00  0.00     0.142 A 
HETATM    6  C8  UNL     1      23.290   4.830  51.161  1.00  0.00     0.089 A 
HETATM    7  C9  UNL     1      22.306   3.922  51.683  1.00  0.00     0.103 C 
HETATM    8  N2  UNL     1      21.509   3.207  52.090  1.00  0.00    -0.191 NA
HETATM    9  C10 UNL     1      24.432   4.433  50.480  1.00  0.00     0.065 A 
HETATM   10  C17 UNL     1      25.308   5.392  50.022  1.00  0.00     0.017 A 
HETATM   11  C18 UNL     1      26.476   4.803  49.305  1.00  0.00     0.177 A 
HETATM   12  N4  UNL     1      27.389   5.834  48.859  1.00  0.00    -0.294 N 
HETATM   13  C19 UNL     1      28.598   5.483  48.182  1.00  0.00     0.227 C 
HETATM   14  O2  UNL     1      28.008   4.431  48.461  1.00  0.00    -0.273 OA
ENDROOT
BRANCH   9  15
HETATM   15  N3  UNL     1      24.530   3.019  50.353  1.00  0.00    -0.354 N 
HETATM   16  H8  UNL     1      24.090   2.543  49.515  1.00  0.00     0.166 HD
BRANCH  15  17
HETATM   17  C11 UNL     1      25.210   2.258  51.336  1.00  0.00     0.034 A 
HETATM   18  C12 UNL     1      26.564   2.471  51.499  1.00  0.00     0.032 A 
HETATM   19  C13 UNL     1      27.249   1.729  52.466  1.00  0.00     0.046 A 
HETATM   20  C14 UNL     1      26.586   0.786  53.259  1.00  0.00     0.138 A 
HETATM   21  F1  UNL     1      27.301   0.091  54.187  1.00  0.00    -0.204 F 
HETATM   22  C15 UNL     1      25.216   0.604  53.059  1.00  0.00     0.074 A 
HETATM   23 CL1  UNL     1      24.458  -0.592  54.089  1.00  0.00    -0.081 Cl
HETATM   24  C16 UNL     1      24.528   1.337  52.103  1.00  0.00     0.056 A 
ENDBRANCH  15  17
ENDBRANCH   9  15
BRANCH   1  25
HETATM   25  O1  UNL     1      27.907   8.276  48.681  1.00  0.00    -0.332 OA
BRANCH  25  26
HETATM   26  C3  UNL     1      28.019   9.464  49.440  1.00  0.00     0.204 C 
BRANCH  26  27
HETATM   27  C2  UNL     1      28.517  10.536  48.517  1.00  0.00    -0.011 C 
HETATM   28  C1  UNL     1      29.660  11.128  48.834  1.00  0.00     0.009 C 
ENDBRANCH  26  27
ENDBRANCH  25  26
ENDBRANCH   1  25
BRANCH  13  29
HETATM   29  C20 UNL     1      29.552   6.478  47.702  1.00  0.00     0.122 C 
BRANCH  29  30
HETATM   30  C21 UNL     1      30.860   6.535  48.408  1.00  0.00     0.122 C 
BRANCH  30  31
HETATM   31  N5  UNL     1      30.878   7.342  49.593  1.00  0.00    -0.425 N 
HETATM   32  C22 UNL     1      31.913   8.322  49.650  1.00  0.00     0.139 C 
HETATM   33  H18 UNL     1      29.964   7.612  49.972  1.00  0.00     0.152 HD
ENDBRANCH  30  31
ENDBRANCH  29  30
ENDBRANCH  13  29
TORSDOF 8
ENDMDL
MODEL 8
REMARK VINA RESULT:      -7.4      3.357      6.945
REMARK  8 active torsions:
REMARK  status: ('A' for Active; 'I' for Inactive)
REMARK    1  A    between atoms: C2_2  and  C3_3 
REMARK    2  A    between atoms: C3_3  and  O1_4 
REMARK    3  A    between atoms: O1_4  and  C4_5 
REMARK    4  A    between atoms: C10_13  and  N3_14 
REMARK    5  A    between atoms: N3_14  and  C11_15 
REMARK       I    between atoms: N4_25  and  C19_26 
REMARK    6  A    between atoms: C19_26  and  C20_28 
REMARK    7  A    between atoms: C20_28  and  C21_29 
REMARK    8  A    between atoms: C21_29  and  N5_30 
ROOT
HETATM    1  C4  UNL     1      24.675   1.505  52.553  1.00  0.00     0.149 A 
HETATM    2  C5  UNL     1      23.346   1.699  52.530  1.00  0.00     0.088 A 
HETATM    3  C6  UNL     1      22.782   2.613  51.545  1.00  0.00     0.070 A 
HETATM    4  N1  UNL     1      21.457   2.870  51.437  1.00  0.00    -0.259 NA
HETATM    5  C7  UNL     1      20.994   3.720  50.503  1.00  0.00     0.142 A 
HETATM    6  C8  UNL     1      21.859   4.362  49.620  1.00  0.00     0.089 A 
HETATM    7  C9  UNL     1      21.277   5.254  48.655  1.00  0.00     0.103 C 
HETATM    8  N2  UNL     1      20.806   5.975  47.900  1.00  0.00    -0.191 NA
HETATM    9  C10 UNL     1      23.218   4.105  49.723  1.00  0.00     0.065 A 
HETATM   10  C17 UNL     1      23.665   3.230  50.688  1.00  0.00     0.017 A 
HETATM   11  C18 UNL     1      25.148   3.071  50.673  1.00  0.00     0.177 A 
HETATM   12  N4  UNL     1      25.583   2.128  51.681  1.00  0.00    -0.294 N 
HETATM   13  C19 UNL     1      26.968   1.799  51.811  1.00  0.00     0.227 C 
HETATM   14  O2  UNL     1      26.863   2.611  50.883  1.00  0.00    -0.273 OA
ENDROOT
BRANCH   9  15
HETATM   15  N3  UNL     1      23.985   4.824  48.764  1.00  0.00    -0.354 N 
HETATM   16  H8  UNL     1      23.926   4.550  47.742  1.00  0.00     0.166 HD
BRANCH  15  17
HETATM   17  C11 UNL     1      24.820   5.894  49.173  1.00  0.00     0.034 A 
HETATM   18  C12 UNL     1      24.326   6.780  50.110  1.00  0.00     0.032 A 
HETATM   19  C13 UNL     1      25.138   7.840  50.524  1.00  0.00     0.046 A 
HETATM   20  C14 UNL     1      26.427   8.011  50.006  1.00  0.00     0.138 A 
HETATM   21  F1  UNL     1      27.175   9.061  50.446  1.00  0.00    -0.204 F 
HETATM   22  C15 UNL     1      26.883   7.091  49.062  1.00  0.00     0.074 A 
HETATM   23 CL1  UNL     1      28.505   7.371  48.462  1.00  0.00    -0.081 Cl
HETATM   24  C16 UNL     1      26.086   6.035  48.645  1.00  0.00     0.056 A 
ENDBRANCH  15  17
ENDBRANCH   9  15
BRANCH   1  25
HETATM   25  O1  UNL     1      24.964   0.604  53.567  1.00  0.00    -0.332 OA
BRANCH  25  26
HETATM   26  C3  UNL     1      24.459  -0.717  53.593  1.00  0.00     0.204 C 
BRANCH  26  27
HETATM   27  C2  UNL     1      23.835  -0.928  54.939  1.00  0.00    -0.011 C 
HETATM   28  C1  UNL     1      22.530  -1.157  54.975  1.00  0.00     0.009 C 
ENDBRANCH  26  27
ENDBRANCH  25  26
ENDBRANCH   1  25
BRANCH  13  29
HETATM   29  C20 UNL     1      27.466   0.862  52.813  1.00  0.00     0.122 C 
BRANCH  29  30
HETATM   30  C21 UNL     1      28.523   1.372  53.729  1.00  0.00     0.122 C 
BRANCH  30  31
HETATM   31  N5  UNL     1      29.823   0.799  53.536  1.00  0.00    -0.425 N 
HETATM   32  C22 UNL     1      29.880  -0.626  53.605  1.00  0.00     0.139 C 
HETATM   33  H18 UNL     1      30.419   1.251  52.836  1.00  0.00     0.152 HD
ENDBRANCH  30  31
ENDBRANCH  29  30
ENDBRANCH  13  29
TORSDOF 8
ENDMDL
MODEL 9
REMARK VINA RESULT:      -7.0      5.282     10.340
REMARK  8 active torsions:
REMARK  status: ('A' for Active; 'I' for Inactive)
REMARK    1  A    between atoms: C2_2  and  C3_3 
REMARK    2  A    between atoms: C3_3  and  O1_4 
REMARK    3  A    between atoms: O1_4  and  C4_5 
REMARK    4  A    between atoms: C10_13  and  N3_14 
REMARK    5  A    between atoms: N3_14  and  C11_15 
REMARK       I    between atoms: N4_25  and  C19_26 
REMARK    6  A    between atoms: C19_26  and  C20_28 
REMARK    7  A    between atoms: C20_28  and  C21_29 
REMARK    8  A    between atoms: C21_29  and  N5_30 
ROOT
HETATM    1  C4  UNL     1      28.347   7.774  47.885  1.00  0.00     0.149 A 
HETATM    2  C5  UNL     1      29.045   8.872  47.549  1.00  0.00     0.088 A 
HETATM    3  C6  UNL     1      30.500   8.837  47.626  1.00  0.00     0.070 A 
HETATM    4  N1  UNL     1      31.290   9.887  47.303  1.00  0.00    -0.259 NA
HETATM    5  C7  UNL     1      32.629   9.793  47.388  1.00  0.00     0.142 A 
HETATM    6  C8  UNL     1      33.244   8.617  47.810  1.00  0.00     0.089 A 
HETATM    7  C9  UNL     1      34.680   8.607  47.872  1.00  0.00     0.103 C 
HETATM    8  N2  UNL     1      35.824   8.613  47.933  1.00  0.00    -0.191 NA
HETATM    9  C10 UNL     1      32.442   7.536  48.143  1.00  0.00     0.065 A 
HETATM   10  C17 UNL     1      31.074   7.659  48.047  1.00  0.00     0.017 A 
HETATM   11  C18 UNL     1      30.358   6.413  48.450  1.00  0.00     0.177 A 
HETATM   12  N4  UNL     1      28.925   6.567  48.313  1.00  0.00    -0.294 N 
HETATM   13  C19 UNL     1      28.051   5.476  48.610  1.00  0.00     0.227 C 
HETATM   14  O2  UNL     1      29.212   5.086  48.797  1.00  0.00    -0.273 OA
ENDROOT
BRANCH   9  15
HETATM   15  N3  UNL     1      33.196   6.402  48.557  1.00  0.00    -0.354 N 
HETATM   16  H8  UNL     1      33.367   6.242  49.590  1.00  0.00     0.166 HD
BRANCH  15  17
HETATM   17  C11 UNL     1      33.712   5.497  47.596  1.00  0.00     0.034 A 
HETATM   18  C12 UNL     1      34.632   4.558  48.017  1.00  0.00     0.032 A 
HETATM   19  C13 UNL     1      35.149   3.657  47.080  1.00  0.00     0.046 A 
HETATM   20  C14 UNL     1      34.750   3.698  45.740  1.00  0.00     0.138 A 
HETATM   21  F1  UNL     1      35.285   2.796  44.870  1.00  0.00    -0.204 F 
HETATM   22  C15 UNL     1      33.818   4.664  45.360  1.00  0.00     0.074 A 
HETATM   23 CL1  UNL     1      33.368   4.651  43.667  1.00  0.00    -0.081 Cl
HETATM   24  C16 UNL     1      33.298   5.561  46.282  1.00  0.00     0.056 A 
ENDBRANCH  15  17
ENDBRANCH   9  15
BRANCH   1  25
HETATM   25  O1  UNL     1      26.998   8.054  47.733  1.00  0.00    -0.332 OA
BRANCH  25  26
HETATM   26  C3  UNL     1      26.455   9.349  47.896  1.00  0.00     0.204 C 
BRANCH  26  27
HETATM   27  C2  UNL     1      25.212   9.210  48.723  1.00  0.00    -0.011 C 
HETATM   28  C1  UNL     1      25.353   8.747  49.957  1.00  0.00     0.009 C 
ENDBRANCH  26  27
ENDBRANCH  25  26
ENDBRANCH   1  25
BRANCH  13  29
HETATM   29  C20 UNL     1      26.599   5.574  48.499  1.00  0.00     0.122 C 
BRANCH  29  30
HETATM   30  C21 UNL     1      25.810   4.503  49.166  1.00  0.00     0.122 C 
BRANCH  30  31
HETATM   31  N5  UNL     1      26.155   4.257  50.536  1.00  0.00    -0.425 N 
HETATM   32  C22 UNL     1      26.556   2.921  50.836  1.00  0.00     0.139 C 
HETATM   33  H18 UNL     1      26.656   5.009  51.020  1.00  0.00     0.152 HD
ENDBRANCH  30  31
ENDBRANCH  29  30
ENDBRANCH  13  29
TORSDOF 8
ENDMDL
