MODEL 1
REMARK VINA RESULT:      -7.7      0.000      0.000
REMARK  6 active torsions:
REMARK  status: ('A' for Active; 'I' for Inactive)
REMARK    1  A    between atoms: C2_2  and  C3_3 
REMARK       I    between atoms: C3_3  and  N1_5 
REMARK    2  A    between atoms: N1_5  and  C4_6 
REMARK    3  A    between atoms: C4_6  and  C8_11 
REMARK    4  A    between atoms: C5_7  and  C6_8 
REMARK    5  A    between atoms: C8_11  and  O2_12 
REMARK    6  A    between atoms: O2_12  and  N2_13 
ROOT
HETATM    1  C4  UNL     1      26.191   0.872  53.027  1.00  0.00     0.038 C 
HETATM    2  C5  UNL     1      25.823   1.876  52.243  1.00  0.00     0.029 C 
ENDROOT
BRANCH   1   3
HETATM    3  N1  UNL     1      27.504   0.333  52.952  1.00  0.00    -0.325 N 
HETATM    4  C3  UNL     1      28.579   0.454  53.857  1.00  0.00     0.244 C 
HETATM    5  O1  UNL     1      28.679   1.061  54.963  1.00  0.00    -0.268 OA
HETATM    6  H4  UNL     1      27.663  -0.230  52.088  1.00  0.00     0.169 HD
BRANCH   4   7
HETATM    7  C2  UNL     1      29.856  -0.200  53.561  1.00  0.00     0.064 C 
HETATM    8  C1  UNL     1      29.447  -1.462  53.427  1.00  0.00     0.017 C 
ENDBRANCH   4   7
ENDBRANCH   1   3
BRANCH   1   9
HETATM    9  C8  UNL     1      25.235   0.287  54.004  1.00  0.00     0.259 C 
BRANCH   9  10
HETATM   10  O2  UNL     1      24.431  -0.632  53.298  1.00  0.00    -0.266 OA
BRANCH  10  11
HETATM   11  N2  UNL     1      23.103  -0.737  53.629  1.00  0.00    -0.213 N 
HETATM   12  C9  UNL     1      22.798  -1.274  54.845  1.00  0.00     0.240 A 
HETATM   13  N3  UNL     1      21.446  -1.291  54.984  1.00  0.00    -0.239 NA
HETATM   14  C10 UNL     1      20.914  -0.762  53.845  1.00  0.00     0.087 A 
HETATM   15  C11 UNL     1      19.622  -0.519  53.400  1.00  0.00     0.034 A 
HETATM   16  C15 UNL     1      21.952  -0.418  53.003  1.00  0.00     0.092 A 
HETATM   17  C12 UNL     1      19.459   0.049  52.146  1.00  0.00     0.002 A 
HETATM   18  C13 UNL     1      20.519   0.378  51.334  1.00  0.00     0.002 A 
HETATM   19  C14 UNL     1      21.824   0.145  51.757  1.00  0.00     0.034 A 
ENDBRANCH  10  11
ENDBRANCH   9  10
ENDBRANCH   1   9
BRANCH   2  20
HETATM   20  C6  UNL     1      26.779   2.431  51.292  1.00  0.00     0.031 C 
HETATM   21  C7  UNL     1      26.326   2.955  50.165  1.00  0.00     0.188 C 
HETATM   22  F1  UNL     1      27.028   3.519  49.155  1.00  0.00    -0.219 F 
ENDBRANCH   2  20
TORSDOF 6
ENDMDL
MODEL 2
REMARK VINA RESULT:      -7.3      3.266      6.363
REMARK  6 active torsions:
REMARK  status: ('A' for Active; 'I' for Inactive)
REMARK    1  A    between atoms: C2_2  and  C3_3 
REMARK       I    between atoms: C3_3  and  N1_5 
REMARK    2  A    between atoms: N1_5  and  C4_6 
REMARK    3  A    between atoms: C4_6  and  C8_11 
REMARK    4  A    between atoms: C5_7  and  C6_8 
REMARK    5  A    between atoms: C8_11  and  O2_12 
REMARK    6  A    between atoms: O2_12  and  N2_13 
ROOT
HETATM    1  C4  UNL     1      24.073   2.652  51.717  1.00  0.00     0.038 C 
HETATM    2  C5  UNL     1      23.108   1.836  51.315  1.00  0.00     0.029 C 
ENDROOT
BRANCH   1   3
HETATM    3  N1  UNL     1      24.583   3.658  50.850  1.00  0.00    -0.325 N 
HETATM    4  C3  UNL     1      25.855   3.771  50.254  1.00  0.00     0.244 C 
HETATM    5  O1  UNL     1      26.880   3.031  50.319  1.00  0.00    -0.268 OA
HETATM    6  H4  UNL     1      23.885   4.408  50.645  1.00  0.00     0.169 HD
BRANCH   4   7
HETATM    7  C2  UNL     1      26.153   4.913  49.386  1.00  0.00     0.064 C 
HETATM    8  C1  UNL     1      27.331   4.532  48.893  1.00  0.00     0.017 C 
ENDBRANCH   4   7
ENDBRANCH   1   3
BRANCH   1   9
HETATM    9  C8  UNL     1      24.644   2.534  53.084  1.00  0.00     0.259 C 
BRANCH   9  10
HETATM   10  O2  UNL     1      25.285   1.279  53.157  1.00  0.00    -0.266 OA
BRANCH  10  11
HETATM   11  N2  UNL     1      26.637   1.242  53.396  1.00  0.00    -0.213 N 
HETATM   12  C9  UNL     1      27.242   2.405  53.774  1.00  0.00     0.240 A 
HETATM   13  N3  UNL     1      28.566   2.164  53.960  1.00  0.00    -0.239 NA
HETATM   14  C10 UNL     1      28.780   0.844  53.694  1.00  0.00     0.087 A 
HETATM   15  C11 UNL     1      29.897   0.020  53.708  1.00  0.00     0.034 A 
HETATM   16  C15 UNL     1      27.573   0.273  53.342  1.00  0.00     0.092 A 
HETATM   17  C12 UNL     1      29.730  -1.314  53.369  1.00  0.00     0.002 A 
HETATM   18  C13 UNL     1      28.510  -1.847  53.023  1.00  0.00     0.002 A 
HETATM   19  C14 UNL     1      27.375  -1.042  53.001  1.00  0.00     0.034 A 
ENDBRANCH  10  11
ENDBRANCH   9  10
ENDBRANCH   1   9
BRANCH   2  20
HETATM   20  C6  UNL     1      22.566   1.973  49.969  1.00  0.00     0.031 C 
HETATM   21  C7  UNL     1      21.653   1.108  49.559  1.00  0.00     0.188 C 
HETATM   22  F1  UNL     1      21.022   1.050  48.363  1.00  0.00    -0.219 F 
ENDBRANCH   2  20
TORSDOF 6
ENDMDL
MODEL 3
REMARK VINA RESULT:      -7.2      3.261      6.637
REMARK  6 active torsions:
REMARK  status: ('A' for Active; 'I' for Inactive)
REMARK    1  A    between atoms: C2_2  and  C3_3 
REMARK       I    between atoms: C3_3  and  N1_5 
REMARK    2  A    between atoms: N1_5  and  C4_6 
REMARK    3  A    between atoms: C4_6  and  C8_11 
REMARK    4  A    between atoms: C5_7  and  C6_8 
REMARK    5  A    between atoms: C8_11  and  O2_12 
REMARK    6  A    between atoms: O2_12  and  N2_13 
ROOT
HETATM    1  C4  UNL     1      24.932   1.328  52.932  1.00  0.00     0.038 C 
HETATM    2  C5  UNL     1      26.109   1.050  52.391  1.00  0.00     0.029 C 
ENDROOT
BRANCH   1   3
HETATM    3  N1  UNL     1      24.090   0.290  53.416  1.00  0.00    -0.325 N 
HETATM    4  C3  UNL     1      22.839  -0.151  52.937  1.00  0.00     0.244 C 
HETATM    5  O1  UNL     1      22.128   0.242  51.966  1.00  0.00    -0.268 OA
HETATM    6  H4  UNL     1      24.486  -0.198  54.250  1.00  0.00     0.169 HD
BRANCH   4   7
HETATM    7  C2  UNL     1      22.150  -1.254  53.611  1.00  0.00     0.064 C 
HETATM    8  C1  UNL     1      22.244  -0.851  54.877  1.00  0.00     0.017 C 
ENDBRANCH   4   7
ENDBRANCH   1   3
BRANCH   1   9
HETATM    9  C8  UNL     1      24.465   2.735  53.046  1.00  0.00     0.259 C 
BRANCH   9  10
HETATM   10  O2  UNL     1      23.921   3.093  51.794  1.00  0.00    -0.266 OA
BRANCH  10  11
HETATM   11  N2  UNL     1      24.336   4.263  51.205  1.00  0.00    -0.213 N 
HETATM   12  C9  UNL     1      23.643   5.399  51.505  1.00  0.00     0.240 A 
HETATM   13  N3  UNL     1      24.202   6.437  50.831  1.00  0.00    -0.239 NA
HETATM   14  C10 UNL     1      25.246   5.938  50.108  1.00  0.00     0.087 A 
HETATM   15  C11 UNL     1      26.178   6.491  49.242  1.00  0.00     0.034 A 
HETATM   16  C15 UNL     1      25.324   4.580  50.345  1.00  0.00     0.092 A 
HETATM   17  C12 UNL     1      27.122   5.650  48.674  1.00  0.00     0.002 A 
HETATM   18  C13 UNL     1      27.169   4.301  48.934  1.00  0.00     0.002 A 
HETATM   19  C14 UNL     1      26.245   3.721  49.799  1.00  0.00     0.034 A 
ENDBRANCH  10  11
ENDBRANCH   9  10
ENDBRANCH   1   9
BRANCH   2  20
HETATM   20  C6  UNL     1      26.543  -0.339  52.291  1.00  0.00     0.031 C 
HETATM   21  C7  UNL     1      27.631  -0.715  52.943  1.00  0.00     0.188 C 
HETATM   22  F1  UNL     1      28.206  -1.939  52.990  1.00  0.00    -0.219 F 
ENDBRANCH   2  20
TORSDOF 6
ENDMDL
MODEL 4
REMARK VINA RESULT:      -7.2      3.671      6.443
REMARK  6 active torsions:
REMARK  status: ('A' for Active; 'I' for Inactive)
REMARK    1  A    between atoms: C2_2  and  C3_3 
REMARK       I    between atoms: C3_3  and  N1_5 
REMARK    2  A    between atoms: N1_5  and  C4_6 
REMARK    3  A    between atoms: C4_6  and  C8_11 
REMARK    4  A    between atoms: C5_7  and  C6_8 
REMARK    5  A    between atoms: C8_11  and  O2_12 
REMARK    6  A    between atoms: O2_12  and  N2_13 
ROOT
HETATM    1  C4  UNL     1      24.316   1.466  52.980  1.00  0.00     0.038 C 
HETATM    2  C5  UNL     1      23.100   0.972  53.163  1.00  0.00     0.029 C 
ENDROOT
BRANCH   1   3
HETATM    3  N1  UNL     1      25.442   0.606  52.862  1.00  0.00    -0.325 N 
HETATM    4  C3  UNL     1      26.538   0.434  53.731  1.00  0.00     0.244 C 
HETATM    5  O1  UNL     1      26.827   0.984  54.835  1.00  0.00    -0.268 OA
HETATM    6  H4  UNL     1      25.422   0.029  51.991  1.00  0.00     0.169 HD
BRANCH   4   7
HETATM    7  C2  UNL     1      27.592  -0.526  53.393  1.00  0.00     0.064 C 
HETATM    8  C1  UNL     1      26.896  -1.384  52.648  1.00  0.00     0.017 C 
ENDBRANCH   4   7
ENDBRANCH   1   3
BRANCH   1   9
HETATM    9  C8  UNL     1      24.530   2.935  52.893  1.00  0.00     0.259 C 
BRANCH   9  10
HETATM   10  O2  UNL     1      23.914   3.374  51.702  1.00  0.00    -0.266 OA
BRANCH  10  11
HETATM   11  N2  UNL     1      24.389   4.510  51.094  1.00  0.00    -0.213 N 
HETATM   12  C9  UNL     1      23.742   5.682  51.357  1.00  0.00     0.240 A 
HETATM   13  N3  UNL     1      24.357   6.679  50.669  1.00  0.00    -0.239 NA
HETATM   14  C10 UNL     1      25.389   6.118  49.976  1.00  0.00     0.087 A 
HETATM   15  C11 UNL     1      26.359   6.611  49.113  1.00  0.00     0.034 A 
HETATM   16  C15 UNL     1      25.404   4.765  50.244  1.00  0.00     0.092 A 
HETATM   17  C12 UNL     1      27.274   5.716  48.581  1.00  0.00     0.002 A 
HETATM   18  C13 UNL     1      27.258   4.372  48.872  1.00  0.00     0.002 A 
HETATM   19  C14 UNL     1      26.296   3.854  49.734  1.00  0.00     0.034 A 
ENDBRANCH  10  11
ENDBRANCH   9  10
ENDBRANCH   1   9
BRANCH   2  20
HETATM   20  C6  UNL     1      22.917  -0.472  53.246  1.00  0.00     0.031 C 
HETATM   21  C7  UNL     1      21.965  -0.951  54.030  1.00  0.00     0.188 C 
HETATM   22  F1  UNL     1      21.625  -2.241  54.253  1.00  0.00    -0.219 F 
ENDBRANCH   2  20
TORSDOF 6
ENDMDL
MODEL 5
REMARK VINA RESULT:      -7.1      2.155      3.213
REMARK  6 active torsions:
REMARK  status: ('A' for Active; 'I' for Inactive)
REMARK    1  A    between atoms: C2_2  and  C3_3 
REMARK       I    between atoms: C3_3  and  N1_5 
REMARK    2  A    between atoms: N1_5  and  C4_6 
REMARK    3  A    between atoms: C4_6  and  C8_11 
REMARK    4  A    between atoms: C5_7  and  C6_8 
REMARK    5  A    between atoms: C8_11  and  O2_12 
REMARK    6  A    between atoms: O2_12  and  N2_13 
ROOT
HETATM    1  C4  UNL     1      25.066   3.252  50.764  1.00  0.00     0.038 C 
HETATM    2  C5  UNL     1      25.475   3.660  49.570  1.00  0.00     0.029 C 
ENDROOT
BRANCH   1   3
HETATM    3  N1  UNL     1      25.991   3.072  51.828  1.00  0.00    -0.325 N 
HETATM    4  C3  UNL     1      26.714   1.923  52.208  1.00  0.00     0.244 C 
HETATM    5  O1  UNL     1      26.743   0.753  51.723  1.00  0.00    -0.268 OA
HETATM    6  H4  UNL     1      26.134   3.940  52.391  1.00  0.00     0.169 HD
BRANCH   4   7
HETATM    7  C2  UNL     1      27.622   1.981  53.356  1.00  0.00     0.064 C 
HETATM    8  C1  UNL     1      27.404   0.778  53.887  1.00  0.00     0.017 C 
ENDBRANCH   4   7
ENDBRANCH   1   3
BRANCH   1   9
HETATM    9  C8  UNL     1      23.628   2.973  51.016  1.00  0.00     0.259 C 
BRANCH   9  10
HETATM   10  O2  UNL     1      23.428   1.594  50.791  1.00  0.00    -0.266 OA
BRANCH  10  11
HETATM   11  N2  UNL     1      22.516   0.925  51.569  1.00  0.00    -0.213 N 
HETATM   12  C9  UNL     1      21.209   0.961  51.181  1.00  0.00     0.240 A 
HETATM   13  N3  UNL     1      20.472   0.247  52.072  1.00  0.00    -0.239 NA
HETATM   14  C10 UNL     1      21.331  -0.233  53.017  1.00  0.00     0.087 A 
HETATM   15  C11 UNL     1      21.183  -1.011  54.156  1.00  0.00     0.034 A 
HETATM   16  C15 UNL     1      22.605   0.193  52.699  1.00  0.00     0.092 A 
HETATM   17  C12 UNL     1      22.316  -1.308  54.897  1.00  0.00     0.002 A 
HETATM   18  C13 UNL     1      23.570  -0.865  54.548  1.00  0.00     0.002 A 
HETATM   19  C14 UNL     1      23.746  -0.083  53.411  1.00  0.00     0.034 A 
ENDBRANCH  10  11
ENDBRANCH   9  10
ENDBRANCH   1   9
BRANCH   2  20
HETATM   20  C6  UNL     1      26.891   3.926  49.349  1.00  0.00     0.031 C 
HETATM   21  C7  UNL     1      27.238   5.010  48.675  1.00  0.00     0.188 C 
HETATM   22  F1  UNL     1      28.479   5.446  48.359  1.00  0.00    -0.219 F 
ENDBRANCH   2  20
TORSDOF 6
ENDMDL
MODEL 6
REMARK VINA RESULT:      -7.0      2.996      6.222
REMARK  6 active torsions:
REMARK  status: ('A' for Active; 'I' for Inactive)
REMARK    1  A    between atoms: C2_2  and  C3_3 
REMARK       I    between atoms: C3_3  and  N1_5 
REMARK    2  A    between atoms: N1_5  and  C4_6 
REMARK    3  A    between atoms: C4_6  and  C8_11 
REMARK    4  A    between atoms: C5_7  and  C6_8 
REMARK    5  A    between atoms: C8_11  and  O2_12 
REMARK    6  A    between atoms: O2_12  and  N2_13 
ROOT
HETATM    1  C4  UNL     1      24.313   2.865  50.821  1.00  0.00     0.038 C 
HETATM    2  C5  UNL     1      25.511   2.964  50.262  1.00  0.00     0.029 C 
ENDROOT
BRANCH   1   3
HETATM    3  N1  UNL     1      23.360   3.912  50.692  1.00  0.00    -0.325 N 
HETATM    4  C3  UNL     1      22.878   4.815  51.661  1.00  0.00     0.244 C 
HETATM    5  O1  UNL     1      23.147   4.947  52.891  1.00  0.00    -0.268 OA
HETATM    6  H4  UNL     1      22.982   3.998  49.722  1.00  0.00     0.169 HD
BRANCH   4   7
HETATM    7  C2  UNL     1      21.883   5.822  51.286  1.00  0.00     0.064 C 
HETATM    8  C1  UNL     1      22.548   6.461  50.323  1.00  0.00     0.017 C 
ENDBRANCH   4   7
ENDBRANCH   1   3
BRANCH   1   9
HETATM    9  C8  UNL     1      23.939   1.654  51.599  1.00  0.00     0.259 C 
BRANCH   9  10
HETATM   10  O2  UNL     1      24.344   1.876  52.932  1.00  0.00    -0.266 OA
BRANCH  10  11
HETATM   11  N2  UNL     1      25.326   1.077  53.464  1.00  0.00    -0.213 N 
HETATM   12  C9  UNL     1      24.960  -0.161  53.903  1.00  0.00     0.240 A 
HETATM   13  N3  UNL     1      26.062  -0.791  54.390  1.00  0.00    -0.239 NA
HETATM   14  C10 UNL     1      27.114   0.066  54.251  1.00  0.00     0.087 A 
HETATM   15  C11 UNL     1      28.466  -0.001  54.556  1.00  0.00     0.034 A 
HETATM   16  C15 UNL     1      26.649   1.230  53.673  1.00  0.00     0.092 A 
HETATM   17  C12 UNL     1      29.257   1.099  54.263  1.00  0.00     0.002 A 
HETATM   18  C13 UNL     1      28.758   2.243  53.687  1.00  0.00     0.002 A 
HETATM   19  C14 UNL     1      27.405   2.335  53.371  1.00  0.00     0.034 A 
ENDBRANCH  10  11
ENDBRANCH   9  10
ENDBRANCH   1   9
BRANCH   2  20
HETATM   20  C6  UNL     1      25.853   4.163  49.506  1.00  0.00     0.031 C 
HETATM   21  C7  UNL     1      27.090   4.303  49.059  1.00  0.00     0.188 C 
HETATM   22  F1  UNL     1      27.618   5.323  48.344  1.00  0.00    -0.219 F 
ENDBRANCH   2  20
TORSDOF 6
ENDMDL
MODEL 7
REMARK VINA RESULT:      -6.8      2.748      6.672
REMARK  6 active torsions:
REMARK  status: ('A' for Active; 'I' for Inactive)
REMARK    1  A    between atoms: C2_2  and  C3_3 
REMARK       I    between atoms: C3_3  and  N1_5 
REMARK    2  A    between atoms: N1_5  and  C4_6 
REMARK    3  A    between atoms: C4_6  and  C8_11 
REMARK    4  A    between atoms: C5_7  and  C6_8 
REMARK    5  A    between atoms: C8_11  and  O2_12 
REMARK    6  A    between atoms: O2_12  and  N2_13 
ROOT
HETATM    1  C4  UNL     1      22.879   1.445  51.794  1.00  0.00     0.038 C 
HETATM    2  C5  UNL     1      22.071   1.569  50.750  1.00  0.00     0.029 C 
ENDROOT
BRANCH   1   3
HETATM    3  N1  UNL     1      22.385   0.988  53.046  1.00  0.00    -0.325 N 
HETATM    4  C3  UNL     1      22.258  -0.328  53.538  1.00  0.00     0.244 C 
HETATM    5  O1  UNL     1      22.540  -1.447  53.018  1.00  0.00    -0.268 OA
HETATM    6  H4  UNL     1      22.080   1.767  53.671  1.00  0.00     0.169 HD
BRANCH   4   7
HETATM    7  C2  UNL     1      21.714  -0.554  54.879  1.00  0.00     0.064 C 
HETATM    8  C1  UNL     1      22.308  -1.708  55.181  1.00  0.00     0.017 C 
ENDBRANCH   4   7
ENDBRANCH   1   3
BRANCH   1   9
HETATM    9  C8  UNL     1      24.322   1.782  51.678  1.00  0.00     0.259 C 
BRANCH   9  10
HETATM   10  O2  UNL     1      25.046   0.694  52.208  1.00  0.00    -0.266 OA
BRANCH  10  11
HETATM   11  N2  UNL     1      26.227   0.944  52.862  1.00  0.00    -0.213 N 
HETATM   12  C9  UNL     1      26.398   2.184  53.403  1.00  0.00     0.240 A 
HETATM   13  N3  UNL     1      27.617   2.233  54.000  1.00  0.00    -0.239 NA
HETATM   14  C10 UNL     1      28.204   1.014  53.826  1.00  0.00     0.087 A 
HETATM   15  C11 UNL     1      29.421   0.461  54.198  1.00  0.00     0.034 A 
HETATM   16  C15 UNL     1      27.332   0.213  53.115  1.00  0.00     0.092 A 
HETATM   17  C12 UNL     1      29.681  -0.851  53.834  1.00  0.00     0.002 A 
HETATM   18  C13 UNL     1      28.788  -1.618  53.125  1.00  0.00     0.002 A 
HETATM   19  C14 UNL     1      27.560  -1.088  52.739  1.00  0.00     0.034 A 
ENDBRANCH  10  11
ENDBRANCH   9  10
ENDBRANCH   1   9
BRANCH   2  20
HETATM   20  C6  UNL     1      20.660   1.232  50.891  1.00  0.00     0.031 C 
HETATM   21  C7  UNL     1      19.936   1.049  49.798  1.00  0.00     0.188 C 
HETATM   22  F1  UNL     1      18.624   0.733  49.699  1.00  0.00    -0.219 F 
ENDBRANCH   2  20
TORSDOF 6
ENDMDL
MODEL 8
REMARK VINA RESULT:      -6.8      3.602      5.019
REMARK  6 active torsions:
REMARK  status: ('A' for Active; 'I' for Inactive)
REMARK    1  A    between atoms: C2_2  and  C3_3 
REMARK       I    between atoms: C3_3  and  N1_5 
REMARK    2  A    between atoms: N1_5  and  C4_6 
REMARK    3  A    between atoms: C4_6  and  C8_11 
REMARK    4  A    between atoms: C5_7  and  C6_8 
REMARK    5  A    between atoms: C8_11  and  O2_12 
REMARK    6  A    between atoms: O2_12  and  N2_13 
ROOT
HETATM    1  C4  UNL     1      24.388   1.291  53.219  1.00  0.00     0.038 C 
HETATM    2  C5  UNL     1      23.186   0.807  53.500  1.00  0.00     0.029 C 
ENDROOT
BRANCH   1   3
HETATM    3  N1  UNL     1      25.491   0.420  53.002  1.00  0.00    -0.325 N 
HETATM    4  C3  UNL     1      26.656   0.236  53.774  1.00  0.00     0.244 C 
HETATM    5  O1  UNL     1      27.044   0.779  54.850  1.00  0.00    -0.268 OA
HETATM    6  H4  UNL     1      25.390  -0.153  52.136  1.00  0.00     0.169 HD
BRANCH   4   7
HETATM    7  C2  UNL     1      27.667  -0.733  53.344  1.00  0.00     0.064 C 
HETATM    8  C1  UNL     1      26.900  -1.585  52.664  1.00  0.00     0.017 C 
ENDBRANCH   4   7
ENDBRANCH   1   3
BRANCH   1   9
HETATM    9  C8  UNL     1      24.609   2.758  53.123  1.00  0.00     0.259 C 
BRANCH   9  10
HETATM   10  O2  UNL     1      23.483   3.306  52.473  1.00  0.00    -0.266 OA
BRANCH  10  11
HETATM   11  N2  UNL     1      23.467   3.343  51.101  1.00  0.00    -0.213 N 
HETATM   12  C9  UNL     1      24.244   4.280  50.487  1.00  0.00     0.240 A 
HETATM   13  N3  UNL     1      24.092   4.156  49.142  1.00  0.00    -0.239 NA
HETATM   14  C10 UNL     1      23.215   3.135  48.925  1.00  0.00     0.087 A 
HETATM   15  C11 UNL     1      22.673   2.546  47.791  1.00  0.00     0.034 A 
HETATM   16  C15 UNL     1      22.827   2.631  50.150  1.00  0.00     0.092 A 
HETATM   17  C12 UNL     1      21.784   1.496  47.961  1.00  0.00     0.002 A 
HETATM   18  C13 UNL     1      21.421   1.021  49.199  1.00  0.00     0.002 A 
HETATM   19  C14 UNL     1      21.950   1.595  50.352  1.00  0.00     0.034 A 
ENDBRANCH  10  11
ENDBRANCH   9  10
ENDBRANCH   1   9
BRANCH   2  20
HETATM   20  C6  UNL     1      22.996  -0.635  53.589  1.00  0.00     0.031 C 
HETATM   21  C7  UNL     1      22.260  -1.122  54.575  1.00  0.00     0.188 C 
HETATM   22  F1  UNL     1      21.956  -2.413  54.843  1.00  0.00    -0.219 F 
ENDBRANCH   2  20
TORSDOF 6
ENDMDL
MODEL 9
REMARK VINA RESULT:      -6.7      2.981      4.464
REMARK  6 active torsions:
REMARK  status: ('A' for Active; 'I' for Inactive)
REMARK    1  A    between atoms: C2_2  and  C3_3 
REMARK       I    between atoms: C3_3  and  N1_5 
REMARK    2  A    between atoms: N1_5  and  C4_6 
REMARK    3  A    between atoms: C4_6  and  C8_11 
REMARK    4  A    between atoms: C5_7  and  C6_8 
REMARK    5  A    between atoms: C8_11  and  O2_12 
REMARK    6  A    between atoms: O2_12  and  N2_13 
ROOT
HETATM    1  C4  UNL     1      25.595   2.513  51.211  1.00  0.00     0.038 C 
HETATM    2  C5  UNL     1      26.065   2.038  52.356  1.00  0.00     0.029 C 
ENDROOT
BRANCH   1   3
HETATM    3  N1  UNL     1      26.471   3.076  50.243  1.00  0.00    -0.325 N 
HETATM    4  C3  UNL     1      26.482   4.371  49.684  1.00  0.00     0.244 C 
HETATM    5  O1  UNL     1      25.735   5.374  49.879  1.00  0.00    -0.268 OA
HETATM    6  H4  UNL     1      27.202   2.405  49.919  1.00  0.00     0.169 HD
BRANCH   4   7
HETATM    7  C2  UNL     1      27.496   4.724  48.689  1.00  0.00     0.064 C 
HETATM    8  C1  UNL     1      27.225   6.020  48.528  1.00  0.00     0.017 C 
ENDBRANCH   4   7
ENDBRANCH   1   3
BRANCH   1   9
HETATM    9  C8  UNL     1      24.139   2.468  50.914  1.00  0.00     0.259 C 
BRANCH   9  10
HETATM   10  O2  UNL     1      23.465   2.886  52.081  1.00  0.00    -0.266 OA
BRANCH  10  11
HETATM   11  N2  UNL     1      22.332   2.213  52.465  1.00  0.00    -0.213 N 
HETATM   12  C9  UNL     1      21.130   2.807  52.213  1.00  0.00     0.240 A 
HETATM   13  N3  UNL     1      20.141   1.992  52.662  1.00  0.00    -0.239 NA
HETATM   14  C10 UNL     1      20.736   0.887  53.197  1.00  0.00     0.087 A 
HETATM   15  C11 UNL     1      20.267  -0.272  53.800  1.00  0.00     0.034 A 
HETATM   16  C15 UNL     1      22.104   1.030  53.071  1.00  0.00     0.092 A 
HETATM   17  C12 UNL     1      21.196  -1.204  54.234  1.00  0.00     0.002 A 
HETATM   18  C13 UNL     1      22.552  -1.026  54.092  1.00  0.00     0.002 A 
HETATM   19  C14 UNL     1      23.048   0.127  53.491  1.00  0.00     0.034 A 
ENDBRANCH  10  11
ENDBRANCH   9  10
ENDBRANCH   1   9
BRANCH   2  20
HETATM   20  C6  UNL     1      27.497   2.096  52.623  1.00  0.00     0.031 C 
HETATM   21  C7  UNL     1      28.097   1.026  53.121  1.00  0.00     0.188 C 
HETATM   22  F1  UNL     1      29.401   0.862  53.440  1.00  0.00    -0.219 F 
ENDBRANCH   2  20
TORSDOF 6
ENDMDL
