MODEL 1
REMARK VINA RESULT:      -9.6      0.000      0.000
REMARK  4 active torsions:
REMARK  status: ('A' for Active; 'I' for Inactive)
REMARK    1  A    between atoms: C4_5  and  N1_6 
REMARK    2  A    between atoms: N1_6  and  C5_7 
REMARK    3  A    between atoms: C10_12  and  C11_13 
REMARK    4  A    between atoms: C11_13  and  C12_14 
ROOT
HETATM    1  C5  UNL     1      20.173  -0.769  53.666  1.00  0.00     0.015 A 
HETATM    2  C6  UNL     1      20.935  -1.405  54.544  1.00  0.00     0.026 A 
HETATM    3  C7  UNL     1      22.381  -1.229  54.490  1.00  0.00     0.011 A 
HETATM    4  C8  UNL     1      22.985  -0.455  53.596  1.00  0.00    -0.026 A 
HETATM    5  C9  UNL     1      24.449  -0.319  53.594  1.00  0.00     0.097 A 
HETATM    6  C10 UNL     1      24.829   0.602  52.490  1.00  0.00     0.043 A 
HETATM    7  N3  UNL     1      24.016   1.171  51.692  1.00  0.00    -0.158 NA
HETATM    8  N4  UNL     1      22.629   1.012  51.731  1.00  0.00    -0.154 NA
HETATM    9  C17 UNL     1      22.116   0.230  52.645  1.00  0.00     0.069 A 
HETATM   10  C18 UNL     1      20.637   0.141  52.587  1.00  0.00     0.118 A 
ENDROOT
BRANCH   1  11
HETATM   11  N1  UNL     1      18.746  -0.863  53.621  1.00  0.00    -0.359 N 
HETATM   12  H3  UNL     1      18.081  -0.074  53.780  1.00  0.00     0.166 HD
BRANCH  11  13
HETATM   13  C4  UNL     1      17.783  -1.888  53.383  1.00  0.00     0.032 A 
HETATM   14  C3  UNL     1      16.705  -1.461  52.622  1.00  0.00     0.031 A 
HETATM   15  C2  UNL     1      15.642  -2.288  52.264  1.00  0.00     0.026 A 
HETATM   16  C1  UNL     1      15.711  -3.596  52.715  1.00  0.00     0.034 A 
HETATM   17 CL1  UNL     1      14.420  -4.702  52.312  1.00  0.00    -0.084 Cl
HETATM   18  C20 UNL     1      16.772  -4.034  53.469  1.00  0.00     0.026 A 
HETATM   19  C19 UNL     1      17.816  -3.197  53.814  1.00  0.00     0.031 A 
ENDBRANCH  11  13
ENDBRANCH   1  11
BRANCH   6  20
HETATM   20  C11 UNL     1      26.263   0.876  52.313  1.00  0.00     0.095 C 
BRANCH  20  21
HETATM   21  C12 UNL     1      27.154  -0.243  52.662  1.00  0.00    -0.050 A 
HETATM   22  C13 UNL     1      28.320   0.015  53.345  1.00  0.00     0.026 A 
HETATM   23  C14 UNL     1      29.189  -0.984  53.696  1.00  0.00     0.116 A 
HETATM   24  N2  UNL     1      28.941  -2.284  53.387  1.00  0.00    -0.273 NA
HETATM   25  C15 UNL     1      27.807  -2.570  52.718  1.00  0.00     0.116 A 
HETATM   26  C16 UNL     1      26.920  -1.587  52.354  1.00  0.00     0.026 A 
ENDBRANCH  20  21
ENDBRANCH   6  20
TORSDOF 4
ENDMDL
MODEL 2
REMARK VINA RESULT:      -9.4      1.009      1.988
REMARK  4 active torsions:
REMARK  status: ('A' for Active; 'I' for Inactive)
REMARK    1  A    between atoms: C4_5  and  N1_6 
REMARK    2  A    between atoms: N1_6  and  C5_7 
REMARK    3  A    between atoms: C10_12  and  C11_13 
REMARK    4  A    between atoms: C11_13  and  C12_14 
ROOT
HETATM    1  C5  UNL     1      19.728  -0.702  53.321  1.00  0.00     0.015 A 
HETATM    2  C6  UNL     1      19.815   0.037  52.223  1.00  0.00     0.026 A 
HETATM    3  C7  UNL     1      21.120   0.529  51.799  1.00  0.00     0.011 A 
HETATM    4  C8  UNL     1      22.241   0.275  52.461  1.00  0.00    -0.026 A 
HETATM    5  C9  UNL     1      23.527   0.801  51.979  1.00  0.00     0.097 A 
HETATM    6  C10 UNL     1      24.592   0.356  52.918  1.00  0.00     0.043 A 
HETATM    7  N3  UNL     1      24.409  -0.360  53.955  1.00  0.00    -0.158 NA
HETATM    8  N4  UNL     1      23.166  -0.838  54.375  1.00  0.00    -0.154 NA
HETATM    9  C17 UNL     1      22.109  -0.540  53.663  1.00  0.00     0.069 A 
HETATM   10  C18 UNL     1      20.851  -1.104  54.208  1.00  0.00     0.118 A 
ENDROOT
BRANCH   1  11
HETATM   11  N1  UNL     1      18.506  -1.239  53.834  1.00  0.00    -0.359 N 
HETATM   12  H3  UNL     1      18.149  -1.111  54.808  1.00  0.00     0.166 HD
BRANCH  11  13
HETATM   13  C4  UNL     1      17.435  -2.038  53.335  1.00  0.00     0.032 A 
HETATM   14  C3  UNL     1      17.530  -3.373  53.698  1.00  0.00     0.031 A 
HETATM   15  C2  UNL     1      16.598  -4.339  53.325  1.00  0.00     0.026 A 
HETATM   16  C1  UNL     1      15.538  -3.894  52.552  1.00  0.00     0.034 A 
HETATM   17 CL1  UNL     1      14.322  -5.038  52.039  1.00  0.00    -0.084 Cl
HETATM   18  C20 UNL     1      15.429  -2.575  52.184  1.00  0.00     0.026 A 
HETATM   19  C19 UNL     1      16.366  -1.632  52.565  1.00  0.00     0.031 A 
ENDBRANCH  11  13
ENDBRANCH   1  11
BRANCH   6  20
HETATM   20  C11 UNL     1      25.968   0.779  52.615  1.00  0.00     0.095 C 
BRANCH  20  21
HETATM   21  C12 UNL     1      27.000  -0.237  52.884  1.00  0.00    -0.050 A 
HETATM   22  C13 UNL     1      26.785  -1.534  52.479  1.00  0.00     0.026 A 
HETATM   23  C14 UNL     1      27.707  -2.523  52.701  1.00  0.00     0.116 A 
HETATM   24  N2  UNL     1      28.883  -2.270  53.333  1.00  0.00    -0.273 NA
HETATM   25  C15 UNL     1      29.124  -1.009  53.743  1.00  0.00     0.116 A 
HETATM   26  C16 UNL     1      28.216  -0.000  53.532  1.00  0.00     0.026 A 
ENDBRANCH  20  21
ENDBRANCH   6  20
TORSDOF 4
ENDMDL
MODEL 3
REMARK VINA RESULT:      -8.9      4.134      9.648
REMARK  4 active torsions:
REMARK  status: ('A' for Active; 'I' for Inactive)
REMARK    1  A    between atoms: C4_5  and  N1_6 
REMARK    2  A    between atoms: N1_6  and  C5_7 
REMARK    3  A    between atoms: C10_12  and  C11_13 
REMARK    4  A    between atoms: C11_13  and  C12_14 
ROOT
HETATM    1  C5  UNL     1      23.209  -0.210  53.408  1.00  0.00     0.015 A 
HETATM    2  C6  UNL     1      23.298   0.539  52.319  1.00  0.00     0.026 A 
HETATM    3  C7  UNL     1      22.090   0.834  51.557  1.00  0.00     0.011 A 
HETATM    4  C8  UNL     1      20.889   0.387  51.901  1.00  0.00    -0.026 A 
HETATM    5  C9  UNL     1      19.709   0.721  51.089  1.00  0.00     0.097 A 
HETATM    6  C10 UNL     1      18.519   0.085  51.716  1.00  0.00     0.043 A 
HETATM    7  N3  UNL     1      18.533  -0.624  52.774  1.00  0.00    -0.158 NA
HETATM    8  N4  UNL     1      19.681  -0.915  53.514  1.00  0.00    -0.154 NA
HETATM    9  C17 UNL     1      20.827  -0.434  53.104  1.00  0.00     0.069 A 
HETATM   10  C18 UNL     1      21.970  -0.811  53.970  1.00  0.00     0.118 A 
ENDROOT
BRANCH   1  11
HETATM   11  N1  UNL     1      24.321  -0.566  54.234  1.00  0.00    -0.359 N 
HETATM   12  H3  UNL     1      24.260  -1.044  55.160  1.00  0.00     0.166 HD
BRANCH  11  13
HETATM   13  C4  UNL     1      25.741  -0.447  54.167  1.00  0.00     0.032 A 
HETATM   14  C3  UNL     1      26.305  -1.180  53.134  1.00  0.00     0.031 A 
HETATM   15  C2  UNL     1      27.674  -1.216  52.876  1.00  0.00     0.026 A 
HETATM   16  C1  UNL     1      28.472  -0.464  53.722  1.00  0.00     0.034 A 
HETATM   17 CL1  UNL     1      30.201  -0.451  53.470  1.00  0.00    -0.084 Cl
HETATM   18  C20 UNL     1      27.928   0.267  54.750  1.00  0.00     0.026 A 
HETATM   19  C19 UNL     1      26.567   0.289  54.989  1.00  0.00     0.031 A 
ENDBRANCH  11  13
ENDBRANCH   1  11
BRANCH   6  20
HETATM   20  C11 UNL     1      17.223   0.297  51.055  1.00  0.00     0.095 C 
BRANCH  20  21
HETATM   21  C12 UNL     1      16.404   1.376  51.632  1.00  0.00    -0.050 A 
HETATM   22  C13 UNL     1      15.258   1.052  52.323  1.00  0.00     0.026 A 
HETATM   23  C14 UNL     1      14.455   2.010  52.882  1.00  0.00     0.116 A 
HETATM   24  N2  UNL     1      14.751   3.333  52.783  1.00  0.00    -0.273 NA
HETATM   25  C15 UNL     1      15.867   3.684  52.112  1.00  0.00     0.116 A 
HETATM   26  C16 UNL     1      16.688   2.742  51.542  1.00  0.00     0.026 A 
ENDBRANCH  20  21
ENDBRANCH   6  20
TORSDOF 4
ENDMDL
MODEL 4
REMARK VINA RESULT:      -8.6      3.908      9.633
REMARK  4 active torsions:
REMARK  status: ('A' for Active; 'I' for Inactive)
REMARK    1  A    between atoms: C4_5  and  N1_6 
REMARK    2  A    between atoms: N1_6  and  C5_7 
REMARK    3  A    between atoms: C10_12  and  C11_13 
REMARK    4  A    between atoms: C11_13  and  C12_14 
ROOT
HETATM    1  C5  UNL     1      23.045   0.541  53.164  1.00  0.00     0.015 A 
HETATM    2  C6  UNL     1      22.470  -0.150  54.138  1.00  0.00     0.026 A 
HETATM    3  C7  UNL     1      21.073  -0.543  54.002  1.00  0.00     0.011 A 
HETATM    4  C8  UNL     1      20.334  -0.242  52.942  1.00  0.00    -0.026 A 
HETATM    5  C9  UNL     1      18.929  -0.668  52.866  1.00  0.00     0.097 A 
HETATM    6  C10 UNL     1      18.367  -0.190  51.574  1.00  0.00     0.043 A 
HETATM    7  N3  UNL     1      19.005   0.473  50.693  1.00  0.00    -0.158 NA
HETATM    8  N4  UNL     1      20.343   0.857  50.809  1.00  0.00    -0.154 NA
HETATM    9  C17 UNL     1      20.998   0.519  51.889  1.00  0.00     0.069 A 
HETATM   10  C18 UNL     1      22.407   0.982  51.896  1.00  0.00     0.118 A 
ENDROOT
BRANCH   1  11
HETATM   11  N1  UNL     1      24.406   0.981  53.185  1.00  0.00    -0.359 N 
HETATM   12  H3  UNL     1      24.722   1.976  53.158  1.00  0.00     0.166 HD
BRANCH  11  13
HETATM   13  C4  UNL     1      25.692   0.367  53.240  1.00  0.00     0.032 A 
HETATM   14  C3  UNL     1      26.623   1.108  53.954  1.00  0.00     0.031 A 
HETATM   15  C2  UNL     1      27.944   0.706  54.141  1.00  0.00     0.026 A 
HETATM   16  C1  UNL     1      28.299  -0.503  53.565  1.00  0.00     0.034 A 
HETATM   17 CL1  UNL     1      29.936  -1.084  53.750  1.00  0.00    -0.084 Cl
HETATM   18  C20 UNL     1      27.389  -1.248  52.856  1.00  0.00     0.026 A 
HETATM   19  C19 UNL     1      26.083  -0.831  52.681  1.00  0.00     0.031 A 
ENDBRANCH  11  13
ENDBRANCH   1  11
BRANCH   6  20
HETATM   20  C11 UNL     1      16.960  -0.513  51.297  1.00  0.00     0.095 C 
BRANCH  20  21
HETATM   21  C12 UNL     1      15.983   0.409  51.900  1.00  0.00    -0.050 A 
HETATM   22  C13 UNL     1      14.993  -0.098  52.710  1.00  0.00     0.026 A 
HETATM   23  C14 UNL     1      14.056   0.710  53.299  1.00  0.00     0.116 A 
HETATM   24  N2  UNL     1      14.058   2.056  53.112  1.00  0.00    -0.273 NA
HETATM   25  C15 UNL     1      15.015   2.584  52.323  1.00  0.00     0.116 A 
HETATM   26  C16 UNL     1      15.965   1.796  51.721  1.00  0.00     0.026 A 
ENDBRANCH  20  21
ENDBRANCH   6  20
TORSDOF 4
ENDMDL
MODEL 5
REMARK VINA RESULT:      -8.5      6.043      7.952
REMARK  4 active torsions:
REMARK  status: ('A' for Active; 'I' for Inactive)
REMARK    1  A    between atoms: C4_5  and  N1_6 
REMARK    2  A    between atoms: N1_6  and  C5_7 
REMARK    3  A    between atoms: C10_12  and  C11_13 
REMARK    4  A    between atoms: C11_13  and  C12_14 
ROOT
HETATM    1  C5  UNL     1      24.447   3.413  51.050  1.00  0.00     0.015 A 
HETATM    2  C6  UNL     1      25.380   2.589  50.593  1.00  0.00     0.026 A 
HETATM    3  C7  UNL     1      26.453   3.121  49.762  1.00  0.00     0.011 A 
HETATM    4  C8  UNL     1      26.548   4.403  49.433  1.00  0.00    -0.026 A 
HETATM    5  C9  UNL     1      27.657   4.877  48.591  1.00  0.00     0.097 A 
HETATM    6  C10 UNL     1      27.498   6.343  48.395  1.00  0.00     0.043 A 
HETATM    7  N3  UNL     1      26.559   7.055  48.880  1.00  0.00    -0.158 NA
HETATM    8  N4  UNL     1      25.525   6.560  49.677  1.00  0.00    -0.154 NA
HETATM    9  C17 UNL     1      25.506   5.281  49.953  1.00  0.00     0.069 A 
HETATM   10  C18 UNL     1      24.362   4.876  50.806  1.00  0.00     0.118 A 
ENDROOT
BRANCH   1  11
HETATM   11  N1  UNL     1      23.349   3.008  51.872  1.00  0.00    -0.359 N 
HETATM   12  H3  UNL     1      22.558   3.621  52.172  1.00  0.00     0.166 HD
BRANCH  11  13
HETATM   13  C4  UNL     1      22.928   1.811  52.523  1.00  0.00     0.032 A 
HETATM   14  C3  UNL     1      21.549   1.688  52.608  1.00  0.00     0.031 A 
HETATM   15  C2  UNL     1      20.910   0.602  53.203  1.00  0.00     0.026 A 
HETATM   16  C1  UNL     1      21.738  -0.382  53.721  1.00  0.00     0.034 A 
HETATM   17 CL1  UNL     1      21.020  -1.780  54.484  1.00  0.00    -0.084 Cl
HETATM   18  C20 UNL     1      23.104  -0.274  53.644  1.00  0.00     0.026 A 
HETATM   19  C19 UNL     1      23.719   0.812  53.050  1.00  0.00     0.031 A 
ENDBRANCH  11  13
ENDBRANCH   1  11
BRANCH   6  20
HETATM   20  C11 UNL     1      28.512   7.021  47.573  1.00  0.00     0.095 C 
BRANCH  20  21
HETATM   21  C12 UNL     1      29.744   7.387  48.291  1.00  0.00    -0.050 A 
HETATM   22  C13 UNL     1      29.906   8.681  48.729  1.00  0.00     0.026 A 
HETATM   23  C14 UNL     1      31.030   9.083  49.401  1.00  0.00     0.116 A 
HETATM   24  N2  UNL     1      32.044   8.219  49.670  1.00  0.00    -0.273 NA
HETATM   25  C15 UNL     1      31.917   6.943  49.254  1.00  0.00     0.116 A 
HETATM   26  C16 UNL     1      30.801   6.517  48.578  1.00  0.00     0.026 A 
ENDBRANCH  20  21
ENDBRANCH   6  20
TORSDOF 4
ENDMDL
MODEL 6
REMARK VINA RESULT:      -8.4      7.742     11.451
REMARK  4 active torsions:
REMARK  status: ('A' for Active; 'I' for Inactive)
REMARK    1  A    between atoms: C4_5  and  N1_6 
REMARK    2  A    between atoms: N1_6  and  C5_7 
REMARK    3  A    between atoms: C10_12  and  C11_13 
REMARK    4  A    between atoms: C11_13  and  C12_14 
ROOT
HETATM    1  C5  UNL     1      26.640   6.624  48.904  1.00  0.00     0.015 A 
HETATM    2  C6  UNL     1      27.460   5.665  48.499  1.00  0.00     0.026 A 
HETATM    3  C7  UNL     1      27.272   4.309  49.001  1.00  0.00     0.011 A 
HETATM    4  C8  UNL     1      26.311   3.979  49.855  1.00  0.00    -0.026 A 
HETATM    5  C9  UNL     1      26.175   2.591  50.324  1.00  0.00     0.097 A 
HETATM    6  C10 UNL     1      25.022   2.530  51.262  1.00  0.00     0.043 A 
HETATM    7  N3  UNL     1      24.286   3.516  51.593  1.00  0.00    -0.158 NA
HETATM    8  N4  UNL     1      24.454   4.819  51.120  1.00  0.00    -0.154 NA
HETATM    9  C17 UNL     1      25.428   5.058  50.280  1.00  0.00     0.069 A 
HETATM   10  C18 UNL     1      25.504   6.476  49.851  1.00  0.00     0.118 A 
ENDROOT
BRANCH   1  11
HETATM   11  N1  UNL     1      26.726   7.988  48.481  1.00  0.00    -0.359 N 
HETATM   12  H3  UNL     1      26.010   8.492  47.913  1.00  0.00     0.166 HD
BRANCH  11  13
HETATM   13  C4  UNL     1      27.655   9.060  48.624  1.00  0.00     0.032 A 
HETATM   14  C3  UNL     1      27.083  10.310  48.440  1.00  0.00     0.031 A 
HETATM   15  C2  UNL     1      27.798  11.503  48.531  1.00  0.00     0.026 A 
HETATM   16  C1  UNL     1      29.147  11.383  48.823  1.00  0.00     0.034 A 
HETATM   17 CL1  UNL     1      30.119  12.828  48.957  1.00  0.00    -0.084 Cl
HETATM   18  C20 UNL     1      29.728  10.152  49.009  1.00  0.00     0.026 A 
HETATM   19  C19 UNL     1      29.001   8.980  48.914  1.00  0.00     0.031 A 
ENDBRANCH  11  13
ENDBRANCH   1  11
BRANCH   6  20
HETATM   20  C11 UNL     1      24.710   1.219  51.852  1.00  0.00     0.095 C 
BRANCH  20  21
HETATM   21  C12 UNL     1      25.790   0.634  52.664  1.00  0.00    -0.050 A 
HETATM   22  C13 UNL     1      26.407  -0.517  52.232  1.00  0.00     0.026 A 
HETATM   23  C14 UNL     1      27.417  -1.108  52.944  1.00  0.00     0.116 A 
HETATM   24  N2  UNL     1      27.861  -0.584  54.118  1.00  0.00    -0.273 NA
HETATM   25  C15 UNL     1      27.276   0.543  54.570  1.00  0.00     0.116 A 
HETATM   26  C16 UNL     1      26.262   1.154  53.874  1.00  0.00     0.026 A 
ENDBRANCH  20  21
ENDBRANCH   6  20
TORSDOF 4
ENDMDL
MODEL 7
REMARK VINA RESULT:      -8.3      6.360      8.501
REMARK  4 active torsions:
REMARK  status: ('A' for Active; 'I' for Inactive)
REMARK    1  A    between atoms: C4_5  and  N1_6 
REMARK    2  A    between atoms: N1_6  and  C5_7 
REMARK    3  A    between atoms: C10_12  and  C11_13 
REMARK    4  A    between atoms: C11_13  and  C12_14 
ROOT
HETATM    1  C5  UNL     1      25.117   2.942  50.919  1.00  0.00     0.015 A 
HETATM    2  C6  UNL     1      24.251   3.944  50.955  1.00  0.00     0.026 A 
HETATM    3  C7  UNL     1      24.565   5.180  50.247  1.00  0.00     0.011 A 
HETATM    4  C8  UNL     1      25.686   5.359  49.561  1.00  0.00    -0.026 A 
HETATM    5  C9  UNL     1      25.943   6.631  48.869  1.00  0.00     0.097 A 
HETATM    6  C10 UNL     1      27.265   6.534  48.194  1.00  0.00     0.043 A 
HETATM    7  N3  UNL     1      28.033   5.518  48.218  1.00  0.00    -0.158 NA
HETATM    8  N4  UNL     1      27.746   4.328  48.890  1.00  0.00    -0.154 NA
HETATM    9  C17 UNL     1      26.617   4.236  49.544  1.00  0.00     0.069 A 
HETATM   10  C18 UNL     1      26.426   2.928  50.215  1.00  0.00     0.118 A 
ENDROOT
BRANCH   1  11
HETATM   11  N1  UNL     1      24.920   1.685  51.572  1.00  0.00    -0.359 N 
HETATM   12  H3  UNL     1      25.671   0.995  51.799  1.00  0.00     0.166 HD
BRANCH  11  13
HETATM   13  C4  UNL     1      23.816   0.955  52.103  1.00  0.00     0.032 A 
HETATM   14  C3  UNL     1      24.149   0.180  53.204  1.00  0.00     0.031 A 
HETATM   15  C2  UNL     1      23.232  -0.618  53.887  1.00  0.00     0.026 A 
HETATM   16  C1  UNL     1      21.934  -0.602  53.404  1.00  0.00     0.034 A 
HETATM   17 CL1  UNL     1      20.719  -1.572  54.201  1.00  0.00    -0.084 Cl
HETATM   18  C20 UNL     1      21.589   0.161  52.315  1.00  0.00     0.026 A 
HETATM   19  C19 UNL     1      22.513   0.945  51.651  1.00  0.00     0.031 A 
ENDBRANCH  11  13
ENDBRANCH   1  11
BRANCH   6  20
HETATM   20  C11 UNL     1      27.716   7.712  47.438  1.00  0.00     0.095 C 
BRANCH  20  21
HETATM   21  C12 UNL     1      29.050   8.212  47.810  1.00  0.00    -0.050 A 
HETATM   22  C13 UNL     1      30.085   8.095  46.911  1.00  0.00     0.026 A 
HETATM   23  C14 UNL     1      31.348   8.540  47.200  1.00  0.00     0.116 A 
HETATM   24  N2  UNL     1      31.642   9.123  48.392  1.00  0.00    -0.273 NA
HETATM   25  C15 UNL     1      30.649   9.252  49.295  1.00  0.00     0.116 A 
HETATM   26  C16 UNL     1      29.375   8.814  49.030  1.00  0.00     0.026 A 
ENDBRANCH  20  21
ENDBRANCH   6  20
TORSDOF 4
ENDMDL
MODEL 8
REMARK VINA RESULT:      -8.0      5.400      8.904
REMARK  4 active torsions:
REMARK  status: ('A' for Active; 'I' for Inactive)
REMARK    1  A    between atoms: C4_5  and  N1_6 
REMARK    2  A    between atoms: N1_6  and  C5_7 
REMARK    3  A    between atoms: C10_12  and  C11_13 
REMARK    4  A    between atoms: C11_13  and  C12_14 
ROOT
HETATM    1  C5  UNL     1      23.341   0.232  52.933  1.00  0.00     0.015 A 
HETATM    2  C6  UNL     1      22.227  -0.391  52.577  1.00  0.00     0.026 A 
HETATM    3  C7  UNL     1      21.311   0.262  51.650  1.00  0.00     0.011 A 
HETATM    4  C8  UNL     1      21.534   1.465  51.137  1.00  0.00    -0.026 A 
HETATM    5  C9  UNL     1      20.569   2.070  50.206  1.00  0.00     0.097 A 
HETATM    6  C10 UNL     1      21.086   3.406  49.804  1.00  0.00     0.043 A 
HETATM    7  N3  UNL     1      22.180   3.924  50.203  1.00  0.00    -0.158 NA
HETATM    8  N4  UNL     1      23.067   3.311  51.089  1.00  0.00    -0.154 NA
HETATM    9  C17 UNL     1      22.769   2.123  51.549  1.00  0.00     0.069 A 
HETATM   10  C18 UNL     1      23.786   1.576  52.480  1.00  0.00     0.118 A 
ENDROOT
BRANCH   1  11
HETATM   11  N1  UNL     1      24.314  -0.308  53.832  1.00  0.00    -0.359 N 
HETATM   12  H3  UNL     1      24.102  -0.850  54.699  1.00  0.00     0.166 HD
BRANCH  11  13
HETATM   13  C4  UNL     1      25.736  -0.339  53.922  1.00  0.00     0.032 A 
HETATM   14  C3  UNL     1      26.334  -1.079  52.914  1.00  0.00     0.031 A 
HETATM   15  C2  UNL     1      27.713  -1.250  52.799  1.00  0.00     0.026 A 
HETATM   16  C1  UNL     1      28.485  -0.627  53.767  1.00  0.00     0.034 A 
HETATM   17 CL1  UNL     1      30.223  -0.788  53.700  1.00  0.00    -0.084 Cl
HETATM   18  C20 UNL     1      27.907   0.110  54.772  1.00  0.00     0.026 A 
HETATM   19  C19 UNL     1      26.537   0.266  54.868  1.00  0.00     0.031 A 
ENDBRANCH  11  13
ENDBRANCH   1  11
BRANCH   6  20
HETATM   20  C11 UNL     1      20.264   4.186  48.867  1.00  0.00     0.095 C 
BRANCH  20  21
HETATM   21  C12 UNL     1      20.929   4.532  47.601  1.00  0.00    -0.050 A 
HETATM   22  C13 UNL     1      21.030   3.578  46.614  1.00  0.00     0.026 A 
HETATM   23  C14 UNL     1      21.638   3.840  45.414  1.00  0.00     0.116 A 
HETATM   24  N2  UNL     1      22.174   5.058  45.139  1.00  0.00    -0.273 NA
HETATM   25  C15 UNL     1      22.092   6.015  46.086  1.00  0.00     0.116 A 
HETATM   26  C16 UNL     1      21.488   5.777  47.295  1.00  0.00     0.026 A 
ENDBRANCH  20  21
ENDBRANCH   6  20
TORSDOF 4
ENDMDL
MODEL 9
REMARK VINA RESULT:      -8.0      8.074     10.905
REMARK  4 active torsions:
REMARK  status: ('A' for Active; 'I' for Inactive)
REMARK    1  A    between atoms: C4_5  and  N1_6 
REMARK    2  A    between atoms: N1_6  and  C5_7 
REMARK    3  A    between atoms: C10_12  and  C11_13 
REMARK    4  A    between atoms: C11_13  and  C12_14 
ROOT
HETATM    1  C5  UNL     1      25.782   4.428  49.433  1.00  0.00     0.015 A 
HETATM    2  C6  UNL     1      25.110   5.519  49.095  1.00  0.00     0.026 A 
HETATM    3  C7  UNL     1      25.811   6.607  48.423  1.00  0.00     0.011 A 
HETATM    4  C8  UNL     1      27.103   6.563  48.127  1.00  0.00    -0.026 A 
HETATM    5  C9  UNL     1      27.751   7.695  47.447  1.00  0.00     0.097 A 
HETATM    6  C10 UNL     1      29.187   7.359  47.251  1.00  0.00     0.043 A 
HETATM    7  N3  UNL     1      29.747   6.274  47.613  1.00  0.00    -0.158 NA
HETATM    8  N4  UNL     1      29.089   5.224  48.257  1.00  0.00    -0.154 NA
HETATM    9  C17 UNL     1      27.812   5.349  48.513  1.00  0.00     0.069 A 
HETATM   10  C18 UNL     1      27.227   4.171  49.197  1.00  0.00     0.118 A 
ENDROOT
BRANCH   1  11
HETATM   11  N1  UNL     1      25.205   3.299  50.094  1.00  0.00    -0.359 N 
HETATM   12  H3  UNL     1      24.441   2.698  49.711  1.00  0.00     0.166 HD
BRANCH  11  13
HETATM   13  C4  UNL     1      25.385   2.621  51.335  1.00  0.00     0.032 A 
HETATM   14  C3  UNL     1      26.365   1.640  51.288  1.00  0.00     0.031 A 
HETATM   15  C2  UNL     1      26.714   0.849  52.381  1.00  0.00     0.026 A 
HETATM   16  C1  UNL     1      26.019   1.093  53.554  1.00  0.00     0.034 A 
HETATM   17 CL1  UNL     1      26.392   0.147  54.975  1.00  0.00    -0.084 Cl
HETATM   18  C20 UNL     1      25.046   2.060  53.617  1.00  0.00     0.026 A 
HETATM   19  C19 UNL     1      24.714   2.834  52.521  1.00  0.00     0.031 A 
ENDBRANCH  11  13
ENDBRANCH   1  11
BRANCH   6  20
HETATM   20  C11 UNL     1      30.023   8.368  46.583  1.00  0.00     0.095 C 
BRANCH  20  21
HETATM   21  C12 UNL     1      30.129   9.653  47.293  1.00  0.00    -0.050 A 
HETATM   22  C13 UNL     1      29.735  10.806  46.655  1.00  0.00     0.026 A 
HETATM   23  C14 UNL     1      29.810  12.032  47.263  1.00  0.00     0.116 A 
HETATM   24  N2  UNL     1      30.278  12.169  48.532  1.00  0.00    -0.273 NA
HETATM   25  C15 UNL     1      30.672  11.057  49.185  1.00  0.00     0.116 A 
HETATM   26  C16 UNL     1      30.607   9.818  48.597  1.00  0.00     0.026 A 
ENDBRANCH  20  21
ENDBRANCH   6  20
TORSDOF 4
ENDMDL
