MODEL 1
REMARK VINA RESULT:      -8.6      0.000      0.000
REMARK  7 active torsions:
REMARK  status: ('A' for Active; 'I' for Inactive)
REMARK    1  A    between atoms: O1_2  and  C2_3 
REMARK    2  A    between atoms: C6_9  and  N3_10 
REMARK    3  A    between atoms: N3_10  and  C7_11 
REMARK    4  A    between atoms: C15_21  and  C16_22 
REMARK    5  A    between atoms: C16_22  and  N4_23 
REMARK    6  A    between atoms: N4_23  and  C18_25 
REMARK    7  A    between atoms: C18_25  and  N5_27 
ROOT
HETATM    1  C2  UNL     1      20.129  -0.157  52.736  1.00  0.00     0.078 A 
HETATM    2  C3  UNL     1      20.588  -0.781  53.878  1.00  0.00     0.070 A 
HETATM    3  C4  UNL     1      21.921  -0.840  54.228  1.00  0.00     0.074 A 
HETATM    4  N1  UNL     1      22.323  -1.460  55.350  1.00  0.00    -0.241 NA
HETATM    5  C5  UNL     1      23.627  -1.512  55.678  1.00  0.00     0.236 A 
HETATM    6  N2  UNL     1      24.537  -0.924  54.850  1.00  0.00    -0.224 NA
HETATM    7  C6  UNL     1      24.143  -0.302  53.723  1.00  0.00     0.142 A 
HETATM    8  C13 UNL     1      22.815  -0.234  53.366  1.00  0.00     0.039 A 
HETATM    9  C14 UNL     1      22.359   0.388  52.225  1.00  0.00     0.029 A 
HETATM   10  C15 UNL     1      21.011   0.448  51.872  1.00  0.00    -0.006 A 
ENDROOT
BRANCH   7  11
HETATM   11  N3  UNL     1      25.102   0.307  52.866  1.00  0.00    -0.340 N 
HETATM   12  H6  UNL     1      24.648   0.863  52.112  1.00  0.00     0.167 HD
BRANCH  11  13
HETATM   13  C7  UNL     1      26.484   0.095  53.126  1.00  0.00     0.035 A 
HETATM   14  C8  UNL     1      27.003  -1.136  52.810  1.00  0.00     0.032 A 
HETATM   15  C9  UNL     1      28.335  -1.416  53.034  1.00  0.00     0.046 A 
HETATM   16  C10 UNL     1      29.158  -0.455  53.579  1.00  0.00     0.138 A 
HETATM   17  F1  UNL     1      30.463  -0.670  53.820  1.00  0.00    -0.204 F 
HETATM   18  C11 UNL     1      28.657   0.796  53.906  1.00  0.00     0.074 A 
HETATM   19 CL1  UNL     1      29.610   2.084  54.601  1.00  0.00    -0.081 Cl
HETATM   20  C12 UNL     1      27.311   1.053  53.670  1.00  0.00     0.056 A 
ENDBRANCH  11  13
ENDBRANCH   7  11
BRANCH  10  21
HETATM   21  C16 UNL     1      20.768   1.143  50.609  1.00  0.00     0.160 C 
BRANCH  21  22
HETATM   22  N4  UNL     1      20.920   2.557  50.611  1.00  0.00    -0.390 N 
HETATM   23  C17 UNL     1      22.041   3.090  49.913  1.00  0.00     0.145 C 
BRANCH  22  24
HETATM   24  C18 UNL     1      20.612   3.178  51.865  1.00  0.00     0.230 C 
HETATM   25  C19 UNL     1      21.691   4.178  52.198  1.00  0.00     0.060 C 
BRANCH  24  26
HETATM   26  N5  UNL     1      19.342   3.830  51.776  1.00  0.00    -0.115 NA
HETATM   27  O2  UNL     1      18.378   3.209  52.101  1.00  0.00    -0.065 OA
ENDBRANCH  24  26
ENDBRANCH  22  24
ENDBRANCH  21  22
ENDBRANCH  10  21
BRANCH   1  28
HETATM   28  O1  UNL     1      18.804  -0.091  52.380  1.00  0.00    -0.355 OA
HETATM   29  C1  UNL     1      17.775  -0.920  52.821  1.00  0.00     0.210 C 
ENDBRANCH   1  28
TORSDOF 7
ENDMDL
MODEL 2
REMARK VINA RESULT:      -8.6      4.661      7.061
REMARK  7 active torsions:
REMARK  status: ('A' for Active; 'I' for Inactive)
REMARK    1  A    between atoms: O1_2  and  C2_3 
REMARK    2  A    between atoms: C6_9  and  N3_10 
REMARK    3  A    between atoms: N3_10  and  C7_11 
REMARK    4  A    between atoms: C15_21  and  C16_22 
REMARK    5  A    between atoms: C16_22  and  N4_23 
REMARK    6  A    between atoms: N4_23  and  C18_25 
REMARK    7  A    between atoms: C18_25  and  N5_27 
ROOT
HETATM    1  C2  UNL     1      23.579   0.203  53.210  1.00  0.00     0.078 A 
HETATM    2  C3  UNL     1      22.690   0.592  52.229  1.00  0.00     0.070 A 
HETATM    3  C4  UNL     1      23.027   1.433  51.189  1.00  0.00     0.074 A 
HETATM    4  N1  UNL     1      22.129   1.788  50.256  1.00  0.00    -0.241 NA
HETATM    5  C5  UNL     1      22.471   2.611  49.247  1.00  0.00     0.236 A 
HETATM    6  N2  UNL     1      23.750   3.080  49.188  1.00  0.00    -0.224 NA
HETATM    7  C6  UNL     1      24.657   2.731  50.119  1.00  0.00     0.142 A 
HETATM    8  C13 UNL     1      24.331   1.890  51.160  1.00  0.00     0.039 A 
HETATM    9  C14 UNL     1      25.220   1.502  52.138  1.00  0.00     0.029 A 
HETATM   10  C15 UNL     1      24.878   0.652  53.190  1.00  0.00    -0.006 A 
ENDROOT
BRANCH   7  11
HETATM   11  N3  UNL     1      25.988   3.229  50.048  1.00  0.00    -0.340 N 
HETATM   12  H6  UNL     1      26.688   2.497  50.293  1.00  0.00     0.167 HD
BRANCH  11  13
HETATM   13  C7  UNL     1      26.192   4.584  49.671  1.00  0.00     0.035 A 
HETATM   14  C8  UNL     1      27.220   4.847  48.800  1.00  0.00     0.032 A 
HETATM   15  C9  UNL     1      27.480   6.138  48.389  1.00  0.00     0.046 A 
HETATM   16  C10 UNL     1      26.704   7.178  48.853  1.00  0.00     0.138 A 
HETATM   17  F1  UNL     1      26.910   8.455  48.488  1.00  0.00    -0.204 F 
HETATM   18  C11 UNL     1      25.660   6.937  49.733  1.00  0.00     0.074 A 
HETATM   19 CL1  UNL     1      24.617   8.178  50.383  1.00  0.00    -0.081 Cl
HETATM   20  C12 UNL     1      25.418   5.627  50.132  1.00  0.00     0.056 A 
ENDBRANCH  11  13
ENDBRANCH   7  11
BRANCH  10  21
HETATM   21  C16 UNL     1      25.979   0.397  54.117  1.00  0.00     0.160 C 
BRANCH  21  22
HETATM   22  N4  UNL     1      27.220  -0.006  53.550  1.00  0.00    -0.390 N 
HETATM   23  C17 UNL     1      27.259  -1.279  52.913  1.00  0.00     0.145 C 
BRANCH  22  24
HETATM   24  C18 UNL     1      28.364   0.331  54.344  1.00  0.00     0.230 C 
HETATM   25  C19 UNL     1      29.591  -0.296  53.732  1.00  0.00     0.060 C 
BRANCH  24  26
HETATM   26  N5  UNL     1      28.506   1.753  54.397  1.00  0.00    -0.115 NA
HETATM   27  O2  UNL     1      29.410   2.195  55.037  1.00  0.00    -0.065 OA
ENDBRANCH  24  26
ENDBRANCH  22  24
ENDBRANCH  21  22
ENDBRANCH  10  21
BRANCH   1  28
HETATM   28  O1  UNL     1      23.253  -0.636  54.249  1.00  0.00    -0.355 OA
HETATM   29  C1  UNL     1      21.997  -0.803  54.829  1.00  0.00     0.210 C 
ENDBRANCH   1  28
TORSDOF 7
ENDMDL
MODEL 3
REMARK VINA RESULT:      -8.6      1.339      1.749
REMARK  7 active torsions:
REMARK  status: ('A' for Active; 'I' for Inactive)
REMARK    1  A    between atoms: O1_2  and  C2_3 
REMARK    2  A    between atoms: C6_9  and  N3_10 
REMARK    3  A    between atoms: N3_10  and  C7_11 
REMARK    4  A    between atoms: C15_21  and  C16_22 
REMARK    5  A    between atoms: C16_22  and  N4_23 
REMARK    6  A    between atoms: N4_23  and  C18_25 
REMARK    7  A    between atoms: C18_25  and  N5_27 
ROOT
HETATM    1  C2  UNL     1      20.373  -0.286  53.178  1.00  0.00     0.078 A 
HETATM    2  C3  UNL     1      20.901  -0.850  54.321  1.00  0.00     0.070 A 
HETATM    3  C4  UNL     1      22.256  -0.945  54.565  1.00  0.00     0.074 A 
HETATM    4  N1  UNL     1      22.727  -1.504  55.693  1.00  0.00    -0.241 NA
HETATM    5  C5  UNL     1      24.051  -1.592  55.916  1.00  0.00     0.236 A 
HETATM    6  N2  UNL     1      24.910  -1.103  54.977  1.00  0.00    -0.224 NA
HETATM    7  C6  UNL     1      24.447  -0.542  53.844  1.00  0.00     0.142 A 
HETATM    8  C13 UNL     1      23.098  -0.440  53.592  1.00  0.00     0.039 A 
HETATM    9  C14 UNL     1      22.572   0.123  52.450  1.00  0.00     0.029 A 
HETATM   10  C15 UNL     1      21.202   0.219  52.204  1.00  0.00    -0.006 A 
ENDROOT
BRANCH   7  11
HETATM   11  N3  UNL     1      25.354  -0.038  52.871  1.00  0.00    -0.340 N 
HETATM   12  H6  UNL     1      24.855   0.358  52.047  1.00  0.00     0.167 HD
BRANCH  11  13
HETATM   13  C7  UNL     1      26.750  -0.127  53.124  1.00  0.00     0.035 A 
HETATM   14  C8  UNL     1      27.369  -1.314  52.823  1.00  0.00     0.032 A 
HETATM   15  C9  UNL     1      28.721  -1.477  53.041  1.00  0.00     0.046 A 
HETATM   16  C10 UNL     1      29.463  -0.441  53.567  1.00  0.00     0.138 A 
HETATM   17  F1  UNL     1      30.783  -0.542  53.802  1.00  0.00    -0.204 F 
HETATM   18  C11 UNL     1      28.860   0.768  53.878  1.00  0.00     0.074 A 
HETATM   19 CL1  UNL     1      29.704   2.142  54.548  1.00  0.00    -0.081 Cl
HETATM   20  C12 UNL     1      27.496   0.906  53.648  1.00  0.00     0.056 A 
ENDBRANCH  11  13
ENDBRANCH   7  11
BRANCH  10  21
HETATM   21  C16 UNL     1      20.881   0.836  50.919  1.00  0.00     0.160 C 
BRANCH  21  22
HETATM   22  N4  UNL     1      21.149   2.226  50.785  1.00  0.00    -0.390 N 
HETATM   23  C17 UNL     1      20.149   3.127  51.247  1.00  0.00     0.145 C 
BRANCH  22  24
HETATM   24  C18 UNL     1      21.792   2.583  49.554  1.00  0.00     0.230 C 
HETATM   25  C19 UNL     1      23.221   2.969  49.839  1.00  0.00     0.060 C 
BRANCH  24  26
HETATM   26  N5  UNL     1      21.747   1.474  48.653  1.00  0.00    -0.115 NA
HETATM   27  O2  UNL     1      22.393   1.546  47.654  1.00  0.00    -0.065 OA
ENDBRANCH  24  26
ENDBRANCH  22  24
ENDBRANCH  21  22
ENDBRANCH  10  21
BRANCH   1  28
HETATM   28  O1  UNL     1      19.026  -0.185  52.927  1.00  0.00    -0.355 OA
HETATM   29  C1  UNL     1      18.086  -1.213  52.967  1.00  0.00     0.210 C 
ENDBRANCH   1  28
TORSDOF 7
ENDMDL
MODEL 4
REMARK VINA RESULT:      -8.5      2.626      4.670
REMARK  7 active torsions:
REMARK  status: ('A' for Active; 'I' for Inactive)
REMARK    1  A    between atoms: O1_2  and  C2_3 
REMARK    2  A    between atoms: C6_9  and  N3_10 
REMARK    3  A    between atoms: N3_10  and  C7_11 
REMARK    4  A    between atoms: C15_21  and  C16_22 
REMARK    5  A    between atoms: C16_22  and  N4_23 
REMARK    6  A    between atoms: N4_23  and  C18_25 
REMARK    7  A    between atoms: C18_25  and  N5_27 
ROOT
HETATM    1  C2  UNL     1      21.995   2.437  50.689  1.00  0.00     0.078 A 
HETATM    2  C3  UNL     1      22.944   2.882  49.791  1.00  0.00     0.070 A 
HETATM    3  C4  UNL     1      24.283   3.005  50.099  1.00  0.00     0.074 A 
HETATM    4  N1  UNL     1      25.173   3.445  49.193  1.00  0.00    -0.241 NA
HETATM    5  C5  UNL     1      26.476   3.562  49.508  1.00  0.00     0.236 A 
HETATM    6  N2  UNL     1      26.880   3.225  50.766  1.00  0.00    -0.224 NA
HETATM    7  C6  UNL     1      25.996   2.784  51.681  1.00  0.00     0.142 A 
HETATM    8  C13 UNL     1      24.658   2.656  51.382  1.00  0.00     0.039 A 
HETATM    9  C14 UNL     1      23.712   2.211  52.280  1.00  0.00     0.029 A 
HETATM   10  C15 UNL     1      22.358   2.087  51.968  1.00  0.00    -0.006 A 
ENDROOT
BRANCH   7  11
HETATM   11  N3  UNL     1      26.430   2.438  52.991  1.00  0.00    -0.340 N 
HETATM   12  H6  UNL     1      26.042   3.085  53.709  1.00  0.00     0.167 HD
BRANCH  11  13
HETATM   13  C7  UNL     1      27.289   1.317  53.153  1.00  0.00     0.035 A 
HETATM   14  C8  UNL     1      28.527   1.548  53.699  1.00  0.00     0.032 A 
HETATM   15  C9  UNL     1      29.416   0.510  53.888  1.00  0.00     0.046 A 
HETATM   16  C10 UNL     1      29.064  -0.773  53.527  1.00  0.00     0.138 A 
HETATM   17  F1  UNL     1      29.888  -1.823  53.686  1.00  0.00    -0.204 F 
HETATM   18  C11 UNL     1      27.818  -1.030  52.974  1.00  0.00     0.074 A 
HETATM   19 CL1  UNL     1      27.271  -2.613  52.482  1.00  0.00    -0.081 Cl
HETATM   20  C12 UNL     1      26.941   0.034  52.795  1.00  0.00     0.056 A 
ENDBRANCH  11  13
ENDBRANCH   7  11
BRANCH  10  21
HETATM   21  C16 UNL     1      21.542   1.615  53.084  1.00  0.00     0.160 C 
BRANCH  21  22
HETATM   22  N4  UNL     1      21.245   0.224  53.124  1.00  0.00    -0.390 N 
HETATM   23  C17 UNL     1      19.890  -0.156  52.910  1.00  0.00     0.145 C 
BRANCH  22  24
HETATM   24  C18 UNL     1      21.941  -0.494  54.151  1.00  0.00     0.230 C 
HETATM   25  C19 UNL     1      21.190  -1.765  54.458  1.00  0.00     0.060 C 
BRANCH  24  26
HETATM   26  N5  UNL     1      23.267  -0.795  53.708  1.00  0.00    -0.115 NA
HETATM   27  O2  UNL     1      24.133  -0.809  54.527  1.00  0.00    -0.065 OA
ENDBRANCH  24  26
ENDBRANCH  22  24
ENDBRANCH  21  22
ENDBRANCH  10  21
BRANCH   1  28
HETATM   28  O1  UNL     1      20.660   2.309  50.391  1.00  0.00    -0.355 OA
HETATM   29  C1  UNL     1      20.076   1.364  49.549  1.00  0.00     0.210 C 
ENDBRANCH   1  28
TORSDOF 7
ENDMDL
MODEL 5
REMARK VINA RESULT:      -7.9      4.010      5.251
REMARK  7 active torsions:
REMARK  status: ('A' for Active; 'I' for Inactive)
REMARK    1  A    between atoms: O1_2  and  C2_3 
REMARK    2  A    between atoms: C6_9  and  N3_10 
REMARK    3  A    between atoms: N3_10  and  C7_11 
REMARK    4  A    between atoms: C15_21  and  C16_22 
REMARK    5  A    between atoms: C16_22  and  N4_23 
REMARK    6  A    between atoms: N4_23  and  C18_25 
REMARK    7  A    between atoms: C18_25  and  N5_27 
ROOT
HETATM    1  C2  UNL     1      23.116   0.838  53.034  1.00  0.00     0.078 A 
HETATM    2  C3  UNL     1      24.341   0.946  53.661  1.00  0.00     0.070 A 
HETATM    3  C4  UNL     1      25.460   1.479  53.054  1.00  0.00     0.074 A 
HETATM    4  N1  UNL     1      26.634   1.565  53.702  1.00  0.00    -0.241 NA
HETATM    5  C5  UNL     1      27.717   2.085  53.097  1.00  0.00     0.236 A 
HETATM    6  N2  UNL     1      27.604   2.525  51.812  1.00  0.00    -0.224 NA
HETATM    7  C6  UNL     1      26.432   2.444  51.155  1.00  0.00     0.142 A 
HETATM    8  C13 UNL     1      25.310   1.916  51.752  1.00  0.00     0.039 A 
HETATM    9  C14 UNL     1      24.088   1.808  51.124  1.00  0.00     0.029 A 
HETATM   10  C15 UNL     1      22.957   1.269  51.739  1.00  0.00    -0.006 A 
ENDROOT
BRANCH   7  11
HETATM   11  N3  UNL     1      26.328   2.905  49.813  1.00  0.00    -0.340 N 
HETATM   12  H6  UNL     1      26.207   2.118  49.142  1.00  0.00     0.167 HD
BRANCH  11  13
HETATM   13  C7  UNL     1      26.395   4.303  49.563  1.00  0.00     0.035 A 
HETATM   14  C8  UNL     1      27.414   4.749  48.758  1.00  0.00     0.032 A 
HETATM   15  C9  UNL     1      27.545   6.092  48.470  1.00  0.00     0.046 A 
HETATM   16  C10 UNL     1      26.648   6.999  48.992  1.00  0.00     0.138 A 
HETATM   17  F1  UNL     1      26.727   8.319  48.747  1.00  0.00    -0.204 F 
HETATM   18  C11 UNL     1      25.612   6.572  49.808  1.00  0.00     0.074 A 
HETATM   19 CL1  UNL     1      24.423   7.634  50.522  1.00  0.00    -0.081 Cl
HETATM   20  C12 UNL     1      25.501   5.213  50.082  1.00  0.00     0.056 A 
ENDBRANCH  11  13
ENDBRANCH   7  11
BRANCH  10  21
HETATM   21  C16 UNL     1      21.780   1.240  50.873  1.00  0.00     0.160 C 
BRANCH  21  22
HETATM   22  N4  UNL     1      21.053   2.454  50.729  1.00  0.00    -0.390 N 
HETATM   23  C17 UNL     1      21.147   3.122  49.476  1.00  0.00     0.145 C 
BRANCH  22  24
HETATM   24  C18 UNL     1      21.083   3.295  51.889  1.00  0.00     0.230 C 
HETATM   25  C19 UNL     1      21.665   4.634  51.512  1.00  0.00     0.060 C 
BRANCH  24  26
HETATM   26  N5  UNL     1      19.756   3.456  52.397  1.00  0.00    -0.115 NA
HETATM   27  O2  UNL     1      18.976   2.577  52.194  1.00  0.00    -0.065 OA
ENDBRANCH  24  26
ENDBRANCH  22  24
ENDBRANCH  21  22
ENDBRANCH  10  21
BRANCH   1  28
HETATM   28  O1  UNL     1      21.996   0.311  53.630  1.00  0.00    -0.355 OA
HETATM   29  C1  UNL     1      21.957  -0.645  54.644  1.00  0.00     0.210 C 
ENDBRANCH   1  28
TORSDOF 7
ENDMDL
MODEL 6
REMARK VINA RESULT:      -7.6      2.570      4.671
REMARK  7 active torsions:
REMARK  status: ('A' for Active; 'I' for Inactive)
REMARK    1  A    between atoms: O1_2  and  C2_3 
REMARK    2  A    between atoms: C6_9  and  N3_10 
REMARK    3  A    between atoms: N3_10  and  C7_11 
REMARK    4  A    between atoms: C15_21  and  C16_22 
REMARK    5  A    between atoms: C16_22  and  N4_23 
REMARK    6  A    between atoms: N4_23  and  C18_25 
REMARK    7  A    between atoms: C18_25  and  N5_27 
ROOT
HETATM    1  C2  UNL     1      22.091   4.143  50.111  1.00  0.00     0.078 A 
HETATM    2  C3  UNL     1      23.273   4.339  49.426  1.00  0.00     0.070 A 
HETATM    3  C4  UNL     1      24.498   3.899  49.882  1.00  0.00     0.074 A 
HETATM    4  N1  UNL     1      25.624   4.114  49.182  1.00  0.00    -0.241 NA
HETATM    5  C5  UNL     1      26.813   3.680  49.641  1.00  0.00     0.236 A 
HETATM    6  N2  UNL     1      26.856   3.017  50.831  1.00  0.00    -0.224 NA
HETATM    7  C6  UNL     1      25.733   2.797  51.539  1.00  0.00     0.142 A 
HETATM    8  C13 UNL     1      24.505   3.230  51.092  1.00  0.00     0.039 A 
HETATM    9  C14 UNL     1      23.326   3.033  51.778  1.00  0.00     0.029 A 
HETATM   10  C15 UNL     1      22.087   3.479  51.315  1.00  0.00    -0.006 A 
ENDROOT
BRANCH   7  11
HETATM   11  N3  UNL     1      25.790   2.105  52.781  1.00  0.00    -0.340 N 
HETATM   12  H6  UNL     1      24.971   2.325  53.385  1.00  0.00     0.167 HD
BRANCH  11  13
HETATM   13  C7  UNL     1      26.895   1.246  53.035  1.00  0.00     0.035 A 
HETATM   14  C8  UNL     1      28.034   1.819  53.544  1.00  0.00     0.032 A 
HETATM   15  C9  UNL     1      29.146   1.050  53.815  1.00  0.00     0.046 A 
HETATM   16  C10 UNL     1      29.120  -0.307  53.577  1.00  0.00     0.138 A 
HETATM   17  F1  UNL     1      30.173  -1.106  53.821  1.00  0.00    -0.204 F 
HETATM   18  C11 UNL     1      27.981  -0.908  53.064  1.00  0.00     0.074 A 
HETATM   19 CL1  UNL     1      27.840  -2.615  52.724  1.00  0.00    -0.081 Cl
HETATM   20  C12 UNL     1      26.873  -0.111  52.799  1.00  0.00     0.056 A 
ENDBRANCH  11  13
ENDBRANCH   7  11
BRANCH  10  21
HETATM   21  C16 UNL     1      20.982   3.172  52.220  1.00  0.00     0.160 C 
BRANCH  21  22
HETATM   22  N4  UNL     1      20.032   2.211  51.777  1.00  0.00    -0.390 N 
HETATM   23  C17 UNL     1      18.665   2.608  51.761  1.00  0.00     0.145 C 
BRANCH  22  24
HETATM   24  C18 UNL     1      20.289   0.878  52.237  1.00  0.00     0.230 C 
HETATM   25  C19 UNL     1      21.108   0.149  51.201  1.00  0.00     0.060 C 
BRANCH  24  26
HETATM   26  N5  UNL     1      20.993   0.929  53.480  1.00  0.00    -0.115 NA
HETATM   27  O2  UNL     1      20.432   0.524  54.451  1.00  0.00    -0.065 OA
ENDBRANCH  24  26
ENDBRANCH  22  24
ENDBRANCH  21  22
ENDBRANCH  10  21
BRANCH   1  28
HETATM   28  O1  UNL     1      20.866   4.575  49.664  1.00  0.00    -0.355 OA
HETATM   29  C1  UNL     1      20.432   5.895  49.555  1.00  0.00     0.210 C 
ENDBRANCH   1  28
TORSDOF 7
ENDMDL
MODEL 7
REMARK VINA RESULT:      -7.5      4.169      5.420
REMARK  7 active torsions:
REMARK  status: ('A' for Active; 'I' for Inactive)
REMARK    1  A    between atoms: O1_2  and  C2_3 
REMARK    2  A    between atoms: C6_9  and  N3_10 
REMARK    3  A    between atoms: N3_10  and  C7_11 
REMARK    4  A    between atoms: C15_21  and  C16_22 
REMARK    5  A    between atoms: C16_22  and  N4_23 
REMARK    6  A    between atoms: N4_23  and  C18_25 
REMARK    7  A    between atoms: C18_25  and  N5_27 
ROOT
HETATM    1  C2  UNL     1      22.837   0.823  52.949  1.00  0.00     0.078 A 
HETATM    2  C3  UNL     1      24.094   0.887  53.516  1.00  0.00     0.070 A 
HETATM    3  C4  UNL     1      25.184   1.450  52.886  1.00  0.00     0.074 A 
HETATM    4  N1  UNL     1      26.390   1.490  53.475  1.00  0.00    -0.241 NA
HETATM    5  C5  UNL     1      27.445   2.041  52.848  1.00  0.00     0.236 A 
HETATM    6  N2  UNL     1      27.269   2.561  51.600  1.00  0.00    -0.224 NA
HETATM    7  C6  UNL     1      26.064   2.526  51.001  1.00  0.00     0.142 A 
HETATM    8  C13 UNL     1      24.970   1.968  51.623  1.00  0.00     0.039 A 
HETATM    9  C14 UNL     1      23.716   1.905  51.055  1.00  0.00     0.029 A 
HETATM   10  C15 UNL     1      22.614   1.334  51.693  1.00  0.00    -0.006 A 
ENDROOT
BRANCH   7  11
HETATM   11  N3  UNL     1      25.894   3.070  49.698  1.00  0.00    -0.340 N 
HETATM   12  H6  UNL     1      25.558   2.353  49.021  1.00  0.00     0.167 HD
BRANCH  11  13
HETATM   13  C7  UNL     1      26.183   4.446  49.487  1.00  0.00     0.035 A 
HETATM   14  C8  UNL     1      27.283   4.748  48.724  1.00  0.00     0.032 A 
HETATM   15  C9  UNL     1      27.627   6.061  48.476  1.00  0.00     0.046 A 
HETATM   16  C10 UNL     1      26.864   7.083  48.997  1.00  0.00     0.138 A 
HETATM   17  F1  UNL     1      27.151   8.380  48.789  1.00  0.00    -0.204 F 
HETATM   18  C11 UNL     1      25.748   6.802  49.770  1.00  0.00     0.074 A 
HETATM   19 CL1  UNL     1      24.713   8.018  50.478  1.00  0.00    -0.081 Cl
HETATM   20  C12 UNL     1      25.422   5.471  50.004  1.00  0.00     0.056 A 
ENDBRANCH  11  13
ENDBRANCH   7  11
BRANCH  10  21
HETATM   21  C16 UNL     1      21.394   1.364  50.889  1.00  0.00     0.160 C 
BRANCH  21  22
HETATM   22  N4  UNL     1      20.701   2.603  50.814  1.00  0.00    -0.390 N 
HETATM   23  C17 UNL     1      19.765   2.887  51.848  1.00  0.00     0.145 C 
BRANCH  22  24
HETATM   24  C18 UNL     1      20.296   2.969  49.488  1.00  0.00     0.230 C 
HETATM   25  C19 UNL     1      19.017   3.763  49.565  1.00  0.00     0.060 C 
BRANCH  24  26
HETATM   26  N5  UNL     1      21.326   3.746  48.872  1.00  0.00    -0.115 NA
HETATM   27  O2  UNL     1      21.881   4.561  49.543  1.00  0.00    -0.065 OA
ENDBRANCH  24  26
ENDBRANCH  22  24
ENDBRANCH  21  22
ENDBRANCH  10  21
BRANCH   1  28
HETATM   28  O1  UNL     1      21.745   0.265  53.570  1.00  0.00    -0.355 OA
HETATM   29  C1  UNL     1      21.755  -0.698  54.577  1.00  0.00     0.210 C 
ENDBRANCH   1  28
TORSDOF 7
ENDMDL
MODEL 8
REMARK VINA RESULT:      -7.5      5.116      6.887
REMARK  7 active torsions:
REMARK  status: ('A' for Active; 'I' for Inactive)
REMARK    1  A    between atoms: O1_2  and  C2_3 
REMARK    2  A    between atoms: C6_9  and  N3_10 
REMARK    3  A    between atoms: N3_10  and  C7_11 
REMARK    4  A    between atoms: C15_21  and  C16_22 
REMARK    5  A    between atoms: C16_22  and  N4_23 
REMARK    6  A    between atoms: N4_23  and  C18_25 
REMARK    7  A    between atoms: C18_25  and  N5_27 
ROOT
HETATM    1  C2  UNL     1      23.660   6.474  49.293  1.00  0.00     0.078 A 
HETATM    2  C3  UNL     1      22.896   5.739  50.176  1.00  0.00     0.070 A 
HETATM    3  C4  UNL     1      23.382   4.659  50.884  1.00  0.00     0.074 A 
HETATM    4  N1  UNL     1      22.602   3.970  51.734  1.00  0.00    -0.241 NA
HETATM    5  C5  UNL     1      23.089   2.918  52.417  1.00  0.00     0.236 A 
HETATM    6  N2  UNL     1      24.391   2.560  52.232  1.00  0.00    -0.224 NA
HETATM    7  C6  UNL     1      25.180   3.244  51.382  1.00  0.00     0.142 A 
HETATM    8  C13 UNL     1      24.706   4.324  50.673  1.00  0.00     0.039 A 
HETATM    9  C14 UNL     1      25.470   5.057  49.791  1.00  0.00     0.029 A 
HETATM   10  C15 UNL     1      24.977   6.149  49.075  1.00  0.00    -0.006 A 
ENDROOT
BRANCH   7  11
HETATM   11  N3  UNL     1      26.538   2.860  51.196  1.00  0.00    -0.340 N 
HETATM   12  H6  UNL     1      26.976   3.364  50.397  1.00  0.00     0.167 HD
BRANCH  11  13
HETATM   13  C7  UNL     1      27.102   1.892  52.072  1.00  0.00     0.035 A 
HETATM   14  C8  UNL     1      27.927   2.351  53.068  1.00  0.00     0.032 A 
HETATM   15  C9  UNL     1      28.512   1.472  53.957  1.00  0.00     0.046 A 
HETATM   16  C10 UNL     1      28.269   0.120  53.848  1.00  0.00     0.138 A 
HETATM   17  F1  UNL     1      28.811  -0.783  54.684  1.00  0.00    -0.204 F 
HETATM   18  C11 UNL     1      27.438  -0.366  52.850  1.00  0.00     0.074 A 
HETATM   19 CL1  UNL     1      27.064  -2.057  52.623  1.00  0.00    -0.081 Cl
HETATM   20  C12 UNL     1      26.861   0.540  51.968  1.00  0.00     0.056 A 
ENDBRANCH  11  13
ENDBRANCH   7  11
BRANCH  10  21
HETATM   21  C16 UNL     1      25.965   6.757  48.186  1.00  0.00     0.160 C 
BRANCH  21  22
HETATM   22  N4  UNL     1      27.235   7.065  48.746  1.00  0.00    -0.390 N 
HETATM   23  C17 UNL     1      27.385   8.345  49.352  1.00  0.00     0.145 C 
BRANCH  22  24
HETATM   24  C18 UNL     1      28.347   6.611  47.964  1.00  0.00     0.230 C 
HETATM   25  C19 UNL     1      29.471   7.609  48.079  1.00  0.00     0.060 C 
BRANCH  24  26
HETATM   26  N5  UNL     1      28.770   5.329  48.434  1.00  0.00    -0.115 NA
HETATM   27  O2  UNL     1      29.847   4.944  48.098  1.00  0.00    -0.065 OA
ENDBRANCH  24  26
ENDBRANCH  22  24
ENDBRANCH  21  22
ENDBRANCH  10  21
BRANCH   1  28
HETATM   28  O1  UNL     1      23.186   7.551  48.585  1.00  0.00    -0.355 OA
HETATM   29  C1  UNL     1      22.886   8.817  49.085  1.00  0.00     0.210 C 
ENDBRANCH   1  28
TORSDOF 7
ENDMDL
MODEL 9
REMARK VINA RESULT:      -7.3      4.089      7.554
REMARK  7 active torsions:
REMARK  status: ('A' for Active; 'I' for Inactive)
REMARK    1  A    between atoms: O1_2  and  C2_3 
REMARK    2  A    between atoms: C6_9  and  N3_10 
REMARK    3  A    between atoms: N3_10  and  C7_11 
REMARK    4  A    between atoms: C15_21  and  C16_22 
REMARK    5  A    between atoms: C16_22  and  N4_23 
REMARK    6  A    between atoms: N4_23  and  C18_25 
REMARK    7  A    between atoms: C18_25  and  N5_27 
ROOT
HETATM    1  C2  UNL     1      24.674   4.757  49.436  1.00  0.00     0.078 A 
HETATM    2  C3  UNL     1      23.562   5.015  48.660  1.00  0.00     0.070 A 
HETATM    3  C4  UNL     1      22.528   4.117  48.493  1.00  0.00     0.074 A 
HETATM    4  N1  UNL     1      21.464   4.410  47.727  1.00  0.00    -0.241 NA
HETATM    5  C5  UNL     1      20.463   3.524  47.572  1.00  0.00     0.236 A 
HETATM    6  N2  UNL     1      20.546   2.321  48.206  1.00  0.00    -0.224 NA
HETATM    7  C6  UNL     1      21.609   2.018  48.975  1.00  0.00     0.142 A 
HETATM    8  C13 UNL     1      22.645   2.907  49.151  1.00  0.00     0.039 A 
HETATM    9  C14 UNL     1      23.755   2.648  49.925  1.00  0.00     0.029 A 
HETATM   10  C15 UNL     1      24.801   3.556  50.093  1.00  0.00    -0.006 A 
ENDROOT
BRANCH   7  11
HETATM   11  N3  UNL     1      21.685   0.758  49.631  1.00  0.00    -0.340 N 
HETATM   12  H6  UNL     1      21.938  -0.007  48.970  1.00  0.00     0.167 HD
BRANCH  11  13
HETATM   13  C7  UNL     1      21.424   0.695  51.027  1.00  0.00     0.035 A 
HETATM   14  C8  UNL     1      20.254   1.257  51.474  1.00  0.00     0.032 A 
HETATM   15  C9  UNL     1      19.931   1.236  52.815  1.00  0.00     0.046 A 
HETATM   16  C10 UNL     1      20.788   0.647  53.720  1.00  0.00     0.138 A 
HETATM   17  F1  UNL     1      20.527   0.597  55.038  1.00  0.00    -0.204 F 
HETATM   18  C11 UNL     1      21.975   0.072  53.292  1.00  0.00     0.074 A 
HETATM   19 CL1  UNL     1      23.130  -0.698  54.351  1.00  0.00    -0.081 Cl
HETATM   20  C12 UNL     1      22.276   0.106  51.935  1.00  0.00     0.056 A 
ENDBRANCH  11  13
ENDBRANCH   7  11
BRANCH  10  21
HETATM   21  C16 UNL     1      25.879   3.054  50.942  1.00  0.00     0.160 C 
BRANCH  21  22
HETATM   22  N4  UNL     1      25.502   2.281  52.075  1.00  0.00    -0.390 N 
HETATM   23  C17 UNL     1      24.605   2.882  53.002  1.00  0.00     0.145 C 
BRANCH  22  24
HETATM   24  C18 UNL     1      26.572   1.518  52.646  1.00  0.00     0.230 C 
HETATM   25  C19 UNL     1      26.577   0.140  52.035  1.00  0.00     0.060 C 
BRANCH  24  26
HETATM   26  N5  UNL     1      27.816   2.177  52.393  1.00  0.00    -0.115 NA
HETATM   27  O2  UNL     1      28.759   1.850  53.045  1.00  0.00    -0.065 OA
ENDBRANCH  24  26
ENDBRANCH  22  24
ENDBRANCH  21  22
ENDBRANCH  10  21
BRANCH   1  28
HETATM   28  O1  UNL     1      25.708   5.644  49.610  1.00  0.00    -0.355 OA
HETATM   29  C1  UNL     1      26.563   6.139  48.626  1.00  0.00     0.210 C 
ENDBRANCH   1  28
TORSDOF 7
ENDMDL
