MODEL 1
REMARK VINA RESULT:      -6.8      0.000      0.000
REMARK  7 active torsions:
REMARK  status: ('A' for Active; 'I' for Inactive)
REMARK    1  A    between atoms: N1_2  and  C2_3 
REMARK    2  A    between atoms: C2_3  and  C3_4 
REMARK    3  A    between atoms: C2_3  and  C4_6 
REMARK    4  A    between atoms: C4_6  and  N2_7 
REMARK    5  A    between atoms: N2_7  and  C5_8 
REMARK    6  A    between atoms: C5_8  and  C6_9 
REMARK    7  A    between atoms: C9_14  and  C10_15 
ROOT
HETATM    1  C6  UNL     1      24.850  -0.117  53.289  1.00  0.00     0.037 C 
HETATM    2  N3  UNL     1      23.586  -0.131  53.593  1.00  0.00    -0.273 NA
HETATM    3  C7  UNL     1      22.917   0.814  52.694  1.00  0.00     0.118 A 
HETATM    4  C8  UNL     1      21.593   1.388  53.040  1.00  0.00     0.121 A 
HETATM    5  S1  UNL     1      21.784   0.383  51.517  1.00  0.00    -0.131 SA
HETATM    6  C9  UNL     1      24.032   1.861  52.517  1.00  0.00     0.068 C 
HETATM    7  C15 UNL     1      25.124   0.843  52.141  1.00  0.00     0.069 C 
ENDROOT
BRANCH   1   8
HETATM    8  C5  UNL     1      26.111  -0.814  53.777  1.00  0.00     0.323 C 
BRANCH   8   9
HETATM    9  N2  UNL     1      26.653  -0.222  54.951  1.00  0.00     0.090 NA
HETATM   10  H10 UNL     1      25.971   0.507  55.325  1.00  0.00     0.316 HD
BRANCH   9  11
HETATM   11  C4  UNL     1      27.983   0.220  54.958  1.00  0.00     0.307 C 
BRANCH  11  12
HETATM   12  C2  UNL     1      28.626   0.825  53.779  1.00  0.00     0.276 C 
BRANCH  12  13
HETATM   13  N1  UNL     1      29.942   0.359  53.455  1.00  0.00     0.087 NA
HETATM   14  C1  UNL     1      30.038  -1.074  53.599  1.00  0.00     0.307 C 
HETATM   15  H4  UNL     1      30.607   0.790  54.153  1.00  0.00     0.316 HD
ENDBRANCH  12  13
BRANCH  12  16
HETATM   16  C3  UNL     1      28.357   2.274  53.554  1.00  0.00     0.259 C 
HETATM   17  F1  UNL     1      27.129   2.735  53.870  1.00  0.00    -0.253 F 
ENDBRANCH  12  16
ENDBRANCH  11  12
ENDBRANCH   9  11
ENDBRANCH   8   9
ENDBRANCH   1   8
BRANCH   6  18
HETATM   18  C10 UNL     1      23.789   2.902  51.567  1.00  0.00    -0.012 C 
HETATM   19  C11 UNL     1      23.714   4.141  52.102  1.00  0.00     0.120 C 
HETATM   20  F2  UNL     1      23.861   4.345  53.427  1.00  0.00    -0.208 F 
HETATM   21  C12 UNL     1      23.464   5.330  51.260  1.00  0.00     0.220 C 
HETATM   22  N4  UNL     1      23.865   5.088  49.874  1.00  0.00    -0.281 NA
HETATM   23  C13 UNL     1      23.703   3.937  49.376  1.00  0.00     0.080 C 
HETATM   24  C14 UNL     1      23.616   2.877  50.129  1.00  0.00     0.044 C 
ENDBRANCH   6  18
TORSDOF 7
ENDMDL
MODEL 2
REMARK VINA RESULT:      -6.5      2.707      3.554
REMARK  7 active torsions:
REMARK  status: ('A' for Active; 'I' for Inactive)
REMARK    1  A    between atoms: N1_2  and  C2_3 
REMARK    2  A    between atoms: C2_3  and  C3_4 
REMARK    3  A    between atoms: C2_3  and  C4_6 
REMARK    4  A    between atoms: C4_6  and  N2_7 
REMARK    5  A    between atoms: N2_7  and  C5_8 
REMARK    6  A    between atoms: C5_8  and  C6_9 
REMARK    7  A    between atoms: C9_14  and  C10_15 
ROOT
HETATM    1  C6  UNL     1      24.482   0.454  53.047  1.00  0.00     0.037 C 
HETATM    2  N3  UNL     1      24.985   1.242  52.143  1.00  0.00    -0.273 NA
HETATM    3  C7  UNL     1      23.885   2.062  51.627  1.00  0.00     0.118 A 
HETATM    4  C8  UNL     1      23.986   2.729  50.306  1.00  0.00     0.121 A 
HETATM    5  S1  UNL     1      23.760   3.736  51.823  1.00  0.00    -0.131 SA
HETATM    6  C9  UNL     1      22.720   1.062  51.743  1.00  0.00     0.068 C 
HETATM    7  C15 UNL     1      22.990   0.698  53.215  1.00  0.00     0.069 C 
ENDROOT
BRANCH   1   8
HETATM    8  C5  UNL     1      25.001  -0.633  53.976  1.00  0.00     0.323 C 
BRANCH   8   9
HETATM    9  N2  UNL     1      26.421  -0.696  54.019  1.00  0.00     0.090 NA
HETATM   10  H10 UNL     1      26.726  -1.712  54.123  1.00  0.00     0.316 HD
BRANCH   9  11
HETATM   11  C4  UNL     1      27.132   0.177  54.852  1.00  0.00     0.307 C 
BRANCH  11  12
HETATM   12  C2  UNL     1      28.593   0.343  54.766  1.00  0.00     0.276 C 
BRANCH  12  13
HETATM   13  N1  UNL     1      29.085   1.687  54.694  1.00  0.00     0.087 NA
HETATM   14  C1  UNL     1      28.520   2.389  53.566  1.00  0.00     0.307 C 
HETATM   15  H4  UNL     1      30.128   1.630  54.539  1.00  0.00     0.316 HD
ENDBRANCH  12  13
BRANCH  12  16
HETATM   16  C3  UNL     1      29.325  -0.678  53.963  1.00  0.00     0.259 C 
HETATM   17  F1  UNL     1      30.502  -0.310  53.413  1.00  0.00    -0.253 F 
ENDBRANCH  12  16
ENDBRANCH  11  12
ENDBRANCH   9  11
ENDBRANCH   8   9
ENDBRANCH   1   8
BRANCH   6  18
HETATM   18  C10 UNL     1      21.413   1.563  51.449  1.00  0.00    -0.012 C 
HETATM   19  C11 UNL     1      20.910   1.154  50.264  1.00  0.00     0.120 C 
HETATM   20  F2  UNL     1      21.609   0.339  49.448  1.00  0.00    -0.208 F 
HETATM   21  C12 UNL     1      19.572   1.583  49.805  1.00  0.00     0.220 C 
HETATM   22  N4  UNL     1      18.725   1.967  50.934  1.00  0.00    -0.281 NA
HETATM   23  C13 UNL     1      19.248   2.546  51.929  1.00  0.00     0.080 C 
HETATM   24  C14 UNL     1      20.519   2.427  52.194  1.00  0.00     0.044 C 
ENDBRANCH   6  18
TORSDOF 7
ENDMDL
MODEL 3
REMARK VINA RESULT:      -6.4      2.540      4.068
REMARK  7 active torsions:
REMARK  status: ('A' for Active; 'I' for Inactive)
REMARK    1  A    between atoms: N1_2  and  C2_3 
REMARK    2  A    between atoms: C2_3  and  C3_4 
REMARK    3  A    between atoms: C2_3  and  C4_6 
REMARK    4  A    between atoms: C4_6  and  N2_7 
REMARK    5  A    between atoms: N2_7  and  C5_8 
REMARK    6  A    between atoms: C5_8  and  C6_9 
REMARK    7  A    between atoms: C9_14  and  C10_15 
ROOT
HETATM    1  C6  UNL     1      25.471   2.200  51.495  1.00  0.00     0.037 C 
HETATM    2  N3  UNL     1      24.906   3.198  50.882  1.00  0.00    -0.273 NA
HETATM    3  C7  UNL     1      23.480   3.159  51.221  1.00  0.00     0.118 A 
HETATM    4  C8  UNL     1      22.476   3.841  50.369  1.00  0.00     0.121 A 
HETATM    5  S1  UNL     1      22.674   4.339  52.123  1.00  0.00    -0.131 SA
HETATM    6  C9  UNL     1      23.270   1.640  51.352  1.00  0.00     0.068 C 
HETATM    7  C15 UNL     1      24.454   1.414  52.310  1.00  0.00     0.069 C 
ENDROOT
BRANCH   1   8
HETATM    8  C5  UNL     1      26.876   1.628  51.610  1.00  0.00     0.323 C 
BRANCH   8   9
HETATM    9  N2  UNL     1      27.729   2.412  52.433  1.00  0.00     0.090 NA
HETATM   10  H10 UNL     1      28.492   2.852  51.832  1.00  0.00     0.316 HD
BRANCH   9  11
HETATM   11  C4  UNL     1      28.217   1.883  53.635  1.00  0.00     0.307 C 
BRANCH  11  12
HETATM   12  C2  UNL     1      28.518   0.452  53.809  1.00  0.00     0.276 C 
BRANCH  12  13
HETATM   13  N1  UNL     1      27.881  -0.210  54.909  1.00  0.00     0.087 NA
HETATM   14  C1  UNL     1      26.506   0.210  55.044  1.00  0.00     0.307 C 
HETATM   15  H4  UNL     1      28.388   0.087  55.788  1.00  0.00     0.316 HD
ENDBRANCH  12  13
BRANCH  12  16
HETATM   16  C3  UNL     1      29.912   0.029  53.494  1.00  0.00     0.259 C 
HETATM   17  F1  UNL     1      30.268  -1.231  53.820  1.00  0.00    -0.253 F 
ENDBRANCH  12  16
ENDBRANCH  11  12
ENDBRANCH   9  11
ENDBRANCH   8   9
ENDBRANCH   1   8
BRANCH   6  18
HETATM   18  C10 UNL     1      21.991   1.207  51.822  1.00  0.00    -0.012 C 
HETATM   19  C11 UNL     1      21.161   0.758  50.854  1.00  0.00     0.120 C 
HETATM   20  F2  UNL     1      21.541   0.732  49.560  1.00  0.00    -0.208 F 
HETATM   21  C12 UNL     1      19.799   0.277  51.168  1.00  0.00     0.220 C 
HETATM   22  N4  UNL     1      19.703  -0.162  52.560  1.00  0.00    -0.281 NA
HETATM   23  C13 UNL     1      20.356   0.455  53.449  1.00  0.00     0.080 C 
HETATM   24  C14 UNL     1      21.417   1.153  53.151  1.00  0.00     0.044 C 
ENDBRANCH   6  18
TORSDOF 7
ENDMDL
MODEL 4
REMARK VINA RESULT:      -6.2      3.000      6.990
REMARK  7 active torsions:
REMARK  status: ('A' for Active; 'I' for Inactive)
REMARK    1  A    between atoms: N1_2  and  C2_3 
REMARK    2  A    between atoms: C2_3  and  C3_4 
REMARK    3  A    between atoms: C2_3  and  C4_6 
REMARK    4  A    between atoms: C4_6  and  N2_7 
REMARK    5  A    between atoms: N2_7  and  C5_8 
REMARK    6  A    between atoms: C5_8  and  C6_9 
REMARK    7  A    between atoms: C9_14  and  C10_15 
ROOT
HETATM    1  C6  UNL     1      22.214  -0.264  53.707  1.00  0.00     0.037 C 
HETATM    2  N3  UNL     1      22.442   0.997  53.486  1.00  0.00    -0.273 NA
HETATM    3  C7  UNL     1      23.844   1.115  53.078  1.00  0.00     0.118 A 
HETATM    4  C8  UNL     1      24.563   2.408  53.186  1.00  0.00     0.121 A 
HETATM    5  S1  UNL     1      24.361   1.610  51.547  1.00  0.00    -0.131 SA
HETATM    6  C9  UNL     1      24.468  -0.026  53.903  1.00  0.00     0.068 C 
HETATM    7  C15 UNL     1      23.460  -1.098  53.449  1.00  0.00     0.069 C 
ENDROOT
BRANCH   1   8
HETATM    8  C5  UNL     1      21.029  -1.112  54.146  1.00  0.00     0.323 C 
BRANCH   8   9
HETATM    9  N2  UNL     1      19.785  -0.436  54.015  1.00  0.00     0.090 NA
HETATM   10  H10 UNL     1      19.221  -0.559  54.911  1.00  0.00     0.316 HD
BRANCH   9  11
HETATM   11  C4  UNL     1      19.015  -0.611  52.857  1.00  0.00     0.307 C 
BRANCH  11  12
HETATM   12  C2  UNL     1      18.750   0.483  51.908  1.00  0.00     0.276 C 
BRANCH  12  13
HETATM   13  N1  UNL     1      17.406   0.603  51.424  1.00  0.00     0.087 NA
HETATM   14  C1  UNL     1      17.336   0.328  50.008  1.00  0.00     0.307 C 
HETATM   15  H4  UNL     1      17.113   1.608  51.564  1.00  0.00     0.316 HD
ENDBRANCH  12  13
BRANCH  12  16
HETATM   16  C3  UNL     1      19.838   0.790  50.936  1.00  0.00     0.259 C 
HETATM   17  F1  UNL     1      20.864  -0.084  50.854  1.00  0.00    -0.253 F 
ENDBRANCH  12  16
ENDBRANCH  11  12
ENDBRANCH   9  11
ENDBRANCH   8   9
ENDBRANCH   1   8
BRANCH   6  18
HETATM   18  C10 UNL     1      25.846  -0.315  53.658  1.00  0.00    -0.012 C 
HETATM   19  C11 UNL     1      26.693   0.149  54.604  1.00  0.00     0.120 C 
HETATM   20  F2  UNL     1      26.242   0.825  55.680  1.00  0.00    -0.208 F 
HETATM   21  C12 UNL     1      28.153  -0.061  54.502  1.00  0.00     0.220 C 
HETATM   22  N4  UNL     1      28.462  -1.217  53.661  1.00  0.00    -0.281 NA
HETATM   23  C13 UNL     1      27.734  -1.463  52.656  1.00  0.00     0.080 C 
HETATM   24  C14 UNL     1      26.508  -1.024  52.582  1.00  0.00     0.044 C 
ENDBRANCH   6  18
TORSDOF 7
ENDMDL
MODEL 5
REMARK VINA RESULT:      -6.1      4.054      6.733
REMARK  7 active torsions:
REMARK  status: ('A' for Active; 'I' for Inactive)
REMARK    1  A    between atoms: N1_2  and  C2_3 
REMARK    2  A    between atoms: C2_3  and  C3_4 
REMARK    3  A    between atoms: C2_3  and  C4_6 
REMARK    4  A    between atoms: C4_6  and  N2_7 
REMARK    5  A    between atoms: N2_7  and  C5_8 
REMARK    6  A    between atoms: C5_8  and  C6_9 
REMARK    7  A    between atoms: C9_14  and  C10_15 
ROOT
HETATM    1  C6  UNL     1      25.909   3.378  50.222  1.00  0.00     0.037 C 
HETATM    2  N3  UNL     1      24.766   2.837  50.527  1.00  0.00    -0.273 NA
HETATM    3  C7  UNL     1      24.976   2.048  51.745  1.00  0.00     0.118 A 
HETATM    4  C8  UNL     1      24.042   0.957  52.116  1.00  0.00     0.121 A 
HETATM    5  S1  UNL     1      24.270   2.386  53.243  1.00  0.00    -0.131 SA
HETATM    6  C9  UNL     1      26.429   1.589  51.528  1.00  0.00     0.068 C 
HETATM    7  C15 UNL     1      26.981   2.996  51.232  1.00  0.00     0.069 C 
ENDROOT
BRANCH   1   8
HETATM    8  C5  UNL     1      26.441   4.292  49.129  1.00  0.00     0.323 C 
BRANCH   8   9
HETATM    9  N2  UNL     1      27.765   4.745  49.379  1.00  0.00     0.090 NA
HETATM   10  H10 UNL     1      27.779   5.310  50.283  1.00  0.00     0.316 HD
BRANCH   9  11
HETATM   11  C4  UNL     1      28.504   5.343  48.349  1.00  0.00     0.307 C 
BRANCH  11  12
HETATM   12  C2  UNL     1      28.915   6.757  48.385  1.00  0.00     0.276 C 
BRANCH  12  13
HETATM   13  N1  UNL     1      28.173   7.620  49.256  1.00  0.00     0.087 NA
HETATM   14  C1  UNL     1      28.646   8.982  49.165  1.00  0.00     0.307 C 
HETATM   15  H4  UNL     1      28.348   7.292  50.245  1.00  0.00     0.316 HD
ENDBRANCH  12  13
BRANCH  12  16
HETATM   16  C3  UNL     1      29.369   7.343  47.092  1.00  0.00     0.259 C 
HETATM   17  F1  UNL     1      30.699   7.399  46.867  1.00  0.00    -0.253 F 
ENDBRANCH  12  16
ENDBRANCH  11  12
ENDBRANCH   9  11
ENDBRANCH   8   9
ENDBRANCH   1   8
BRANCH   6  18
HETATM   18  C10 UNL     1      27.048   0.886  52.609  1.00  0.00    -0.012 C 
HETATM   19  C11 UNL     1      27.121  -0.453  52.437  1.00  0.00     0.120 C 
HETATM   20  F2  UNL     1      26.642  -1.046  51.325  1.00  0.00    -0.208 F 
HETATM   21  C12 UNL     1      27.728  -1.329  53.461  1.00  0.00     0.220 C 
HETATM   22  N4  UNL     1      28.666  -0.586  54.303  1.00  0.00    -0.281 NA
HETATM   23  C13 UNL     1      28.412   0.617  54.596  1.00  0.00     0.080 C 
HETATM   24  C14 UNL     1      27.621   1.345  53.858  1.00  0.00     0.044 C 
ENDBRANCH   6  18
TORSDOF 7
ENDMDL
MODEL 6
REMARK VINA RESULT:      -6.1      1.415      1.951
REMARK  7 active torsions:
REMARK  status: ('A' for Active; 'I' for Inactive)
REMARK    1  A    between atoms: N1_2  and  C2_3 
REMARK    2  A    between atoms: C2_3  and  C3_4 
REMARK    3  A    between atoms: C2_3  and  C4_6 
REMARK    4  A    between atoms: C4_6  and  N2_7 
REMARK    5  A    between atoms: N2_7  and  C5_8 
REMARK    6  A    between atoms: C5_8  and  C6_9 
REMARK    7  A    between atoms: C9_14  and  C10_15 
ROOT
HETATM    1  C6  UNL     1      22.505   0.571  53.040  1.00  0.00     0.037 C 
HETATM    2  N3  UNL     1      21.363   1.191  53.081  1.00  0.00    -0.273 NA
HETATM    3  C7  UNL     1      21.439   2.296  52.121  1.00  0.00     0.118 A 
HETATM    4  C8  UNL     1      20.525   3.460  52.224  1.00  0.00     0.121 A 
HETATM    5  S1  UNL     1      20.508   2.415  50.716  1.00  0.00    -0.131 SA
HETATM    6  C9  UNL     1      22.933   2.655  52.233  1.00  0.00     0.068 C 
HETATM    7  C15 UNL     1      23.440   1.215  52.028  1.00  0.00     0.069 C 
ENDROOT
BRANCH   1   8
HETATM    8  C5  UNL     1      23.135  -0.628  53.733  1.00  0.00     0.323 C 
BRANCH   8   9
HETATM    9  N2  UNL     1      24.524  -0.759  53.461  1.00  0.00     0.090 NA
HETATM   10  H10 UNL     1      24.717  -1.735  53.077  1.00  0.00     0.316 HD
BRANCH   9  11
HETATM   11  C4  UNL     1      25.464  -0.353  54.417  1.00  0.00     0.307 C 
BRANCH  11  12
HETATM   12  C2  UNL     1      26.759   0.247  54.052  1.00  0.00     0.276 C 
BRANCH  12  13
HETATM   13  N1  UNL     1      27.918  -0.270  54.719  1.00  0.00     0.087 NA
HETATM   14  C1  UNL     1      29.043   0.624  54.577  1.00  0.00     0.307 C 
HETATM   15  H4  UNL     1      28.174  -1.177  54.242  1.00  0.00     0.316 HD
ENDBRANCH  12  13
BRANCH  12  16
HETATM   16  C3  UNL     1      26.751   1.711  53.770  1.00  0.00     0.259 C 
HETATM   17  F1  UNL     1      25.665   2.413  54.158  1.00  0.00    -0.253 F 
ENDBRANCH  12  16
ENDBRANCH  11  12
ENDBRANCH   9  11
ENDBRANCH   8   9
ENDBRANCH   1   8
BRANCH   6  18
HETATM   18  C10 UNL     1      23.429   3.632  51.315  1.00  0.00    -0.012 C 
HETATM   19  C11 UNL     1      23.657   4.847  51.861  1.00  0.00     0.120 C 
HETATM   20  F2  UNL     1      23.427   5.085  53.168  1.00  0.00    -0.208 F 
HETATM   21  C12 UNL     1      24.167   5.973  51.049  1.00  0.00     0.220 C 
HETATM   22  N4  UNL     1      24.878   5.491  49.865  1.00  0.00    -0.281 NA
HETATM   23  C13 UNL     1      24.465   4.448  49.280  1.00  0.00     0.080 C 
HETATM   24  C14 UNL     1      23.741   3.560  49.902  1.00  0.00     0.044 C 
ENDBRANCH   6  18
TORSDOF 7
ENDMDL
MODEL 7
REMARK VINA RESULT:      -6.1      2.265      5.570
REMARK  7 active torsions:
REMARK  status: ('A' for Active; 'I' for Inactive)
REMARK    1  A    between atoms: N1_2  and  C2_3 
REMARK    2  A    between atoms: C2_3  and  C3_4 
REMARK    3  A    between atoms: C2_3  and  C4_6 
REMARK    4  A    between atoms: C4_6  and  N2_7 
REMARK    5  A    between atoms: N2_7  and  C5_8 
REMARK    6  A    between atoms: C5_8  and  C6_9 
REMARK    7  A    between atoms: C9_14  and  C10_15 
ROOT
HETATM    1  C6  UNL     1      22.701   3.714  52.049  1.00  0.00     0.037 C 
HETATM    2  N3  UNL     1      21.835   2.818  51.676  1.00  0.00    -0.273 NA
HETATM    3  C7  UNL     1      22.284   1.533  52.222  1.00  0.00     0.118 A 
HETATM    4  C8  UNL     1      21.816   0.253  51.638  1.00  0.00     0.121 A 
HETATM    5  S1  UNL     1      21.453   0.643  53.394  1.00  0.00    -0.131 SA
HETATM    6  C9  UNL     1      23.810   1.731  52.169  1.00  0.00     0.068 C 
HETATM    7  C15 UNL     1      23.803   3.091  52.892  1.00  0.00     0.069 C 
ENDROOT
BRANCH   1   8
HETATM    8  C5  UNL     1      22.887   5.213  51.865  1.00  0.00     0.323 C 
BRANCH   8   9
HETATM    9  N2  UNL     1      24.250   5.589  51.722  1.00  0.00     0.090 NA
HETATM   10  H10 UNL     1      24.453   6.426  52.351  1.00  0.00     0.316 HD
BRANCH   9  11
HETATM   11  C4  UNL     1      24.806   5.721  50.442  1.00  0.00     0.307 C 
BRANCH  11  12
HETATM   12  C2  UNL     1      25.866   4.828  49.942  1.00  0.00     0.276 C 
BRANCH  12  13
HETATM   13  N1  UNL     1      27.065   5.455  49.470  1.00  0.00     0.087 NA
HETATM   14  C1  UNL     1      26.777   6.417  48.433  1.00  0.00     0.307 C 
HETATM   15  H4  UNL     1      27.664   4.698  49.039  1.00  0.00     0.316 HD
ENDBRANCH  12  13
BRANCH  12  16
HETATM   16  C3  UNL     1      25.410   3.617  49.201  1.00  0.00     0.259 C 
HETATM   17  F1  UNL     1      24.082   3.384  49.147  1.00  0.00    -0.253 F 
ENDBRANCH  12  16
ENDBRANCH  11  12
ENDBRANCH   9  11
ENDBRANCH   8   9
ENDBRANCH   1   8
BRANCH   6  18
HETATM   18  C10 UNL     1      24.611   0.707  52.764  1.00  0.00    -0.012 C 
HETATM   19  C11 UNL     1      25.830   0.552  52.203  1.00  0.00     0.120 C 
HETATM   20  F2  UNL     1      26.230   1.318  51.167  1.00  0.00    -0.208 F 
HETATM   21  C12 UNL     1      26.782  -0.466  52.696  1.00  0.00     0.220 C 
HETATM   22  N4  UNL     1      26.499  -0.823  54.086  1.00  0.00    -0.281 NA
HETATM   23  C13 UNL     1      25.299  -0.862  54.482  1.00  0.00     0.080 C 
HETATM   24  C14 UNL     1      24.360  -0.196  53.869  1.00  0.00     0.044 C 
ENDBRANCH   6  18
TORSDOF 7
ENDMDL
MODEL 8
REMARK VINA RESULT:      -6.0      1.896      2.283
REMARK  7 active torsions:
REMARK  status: ('A' for Active; 'I' for Inactive)
REMARK    1  A    between atoms: N1_2  and  C2_3 
REMARK    2  A    between atoms: C2_3  and  C3_4 
REMARK    3  A    between atoms: C2_3  and  C4_6 
REMARK    4  A    between atoms: C4_6  and  N2_7 
REMARK    5  A    between atoms: N2_7  and  C5_8 
REMARK    6  A    between atoms: C5_8  and  C6_9 
REMARK    7  A    between atoms: C9_14  and  C10_15 
ROOT
HETATM    1  C6  UNL     1      24.283   0.754  52.343  1.00  0.00     0.037 C 
HETATM    2  N3  UNL     1      23.025   0.901  52.046  1.00  0.00    -0.273 NA
HETATM    3  C7  UNL     1      22.918   2.102  51.213  1.00  0.00     0.118 A 
HETATM    4  C8  UNL     1      21.627   2.819  51.073  1.00  0.00     0.121 A 
HETATM    5  S1  UNL     1      22.442   2.108  49.591  1.00  0.00    -0.131 SA
HETATM    6  C9  UNL     1      24.052   2.954  51.812  1.00  0.00     0.068 C 
HETATM    7  C15 UNL     1      25.124   1.854  51.713  1.00  0.00     0.069 C 
ENDROOT
BRANCH   1   8
HETATM    8  C5  UNL     1      25.120  -0.231  53.145  1.00  0.00     0.323 C 
BRANCH   8   9
HETATM    9  N2  UNL     1      26.424  -0.417  52.608  1.00  0.00     0.090 NA
HETATM   10  H10 UNL     1      26.354  -0.963  51.695  1.00  0.00     0.316 HD
BRANCH   9  11
HETATM   11  C4  UNL     1      27.461  -0.866  53.436  1.00  0.00     0.307 C 
BRANCH  11  12
HETATM   12  C2  UNL     1      28.416   0.051  54.081  1.00  0.00     0.276 C 
BRANCH  12  13
HETATM   13  N1  UNL     1      27.931   1.360  54.406  1.00  0.00     0.087 NA
HETATM   14  C1  UNL     1      28.565   2.368  53.588  1.00  0.00     0.307 C 
HETATM   15  H4  UNL     1      28.202   1.553  55.409  1.00  0.00     0.316 HD
ENDBRANCH  12  13
BRANCH  12  16
HETATM   16  C3  UNL     1      29.831  -0.040  53.619  1.00  0.00     0.259 C 
HETATM   17  F1  UNL     1      30.492  -1.191  53.864  1.00  0.00    -0.253 F 
ENDBRANCH  12  16
ENDBRANCH  11  12
ENDBRANCH   9  11
ENDBRANCH   8   9
ENDBRANCH   1   8
BRANCH   6  18
HETATM   18  C10 UNL     1      24.350   4.184  51.147  1.00  0.00    -0.012 C 
HETATM   19  C11 UNL     1      23.836   5.283  51.743  1.00  0.00     0.120 C 
HETATM   20  F2  UNL     1      23.107   5.192  52.874  1.00  0.00    -0.208 F 
HETATM   21  C12 UNL     1      24.047   6.634  51.183  1.00  0.00     0.220 C 
HETATM   22  N4  UNL     1      25.244   6.676  50.343  1.00  0.00    -0.281 NA
HETATM   23  C13 UNL     1      25.542   5.667  49.642  1.00  0.00     0.080 C 
HETATM   24  C14 UNL     1      25.111   4.475  49.949  1.00  0.00     0.044 C 
ENDBRANCH   6  18
TORSDOF 7
ENDMDL
MODEL 9
REMARK VINA RESULT:      -5.9      2.304      3.207
REMARK  7 active torsions:
REMARK  status: ('A' for Active; 'I' for Inactive)
REMARK    1  A    between atoms: N1_2  and  C2_3 
REMARK    2  A    between atoms: C2_3  and  C3_4 
REMARK    3  A    between atoms: C2_3  and  C4_6 
REMARK    4  A    between atoms: C4_6  and  N2_7 
REMARK    5  A    between atoms: N2_7  and  C5_8 
REMARK    6  A    between atoms: C5_8  and  C6_9 
REMARK    7  A    between atoms: C9_14  and  C10_15 
ROOT
HETATM    1  C6  UNL     1      25.488   2.674  51.568  1.00  0.00     0.037 C 
HETATM    2  N3  UNL     1      24.473   2.851  52.361  1.00  0.00    -0.273 NA
HETATM    3  C7  UNL     1      23.502   3.677  51.638  1.00  0.00     0.118 A 
HETATM    4  C8  UNL     1      22.460   4.442  52.366  1.00  0.00     0.121 A 
HETATM    5  S1  UNL     1      21.968   3.156  51.153  1.00  0.00    -0.131 SA
HETATM    6  C9  UNL     1      24.454   4.548  50.797  1.00  0.00     0.068 C 
HETATM    7  C15 UNL     1      25.265   3.368  50.232  1.00  0.00     0.069 C 
ENDROOT
BRANCH   1   8
HETATM    8  C5  UNL     1      26.826   1.951  51.631  1.00  0.00     0.323 C 
BRANCH   8   9
HETATM    9  N2  UNL     1      27.839   2.713  52.274  1.00  0.00     0.090 NA
HETATM   10  H10 UNL     1      28.577   2.994  51.558  1.00  0.00     0.316 HD
BRANCH   9  11
HETATM   11  C4  UNL     1      28.392   2.262  53.480  1.00  0.00     0.307 C 
BRANCH  11  12
HETATM   12  C2  UNL     1      28.313   0.856  53.912  1.00  0.00     0.276 C 
BRANCH  12  13
HETATM   13  N1  UNL     1      27.537   0.587  55.086  1.00  0.00     0.087 NA
HETATM   14  C1  UNL     1      26.240   0.053  54.742  1.00  0.00     0.307 C 
HETATM   15  H4  UNL     1      27.377   1.511  55.573  1.00  0.00     0.316 HD
ENDBRANCH  12  13
BRANCH  12  16
HETATM   16  C3  UNL     1      29.547   0.040  53.728  1.00  0.00     0.259 C 
HETATM   17  F1  UNL     1      29.458  -1.053  52.942  1.00  0.00    -0.253 F 
ENDBRANCH  12  16
ENDBRANCH  11  12
ENDBRANCH   9  11
ENDBRANCH   8   9
ENDBRANCH   1   8
BRANCH   6  18
HETATM   18  C10 UNL     1      23.848   5.413  49.833  1.00  0.00    -0.012 C 
HETATM   19  C11 UNL     1      23.793   6.712  50.202  1.00  0.00     0.120 C 
HETATM   20  F2  UNL     1      24.280   7.126  51.390  1.00  0.00    -0.208 F 
HETATM   21  C12 UNL     1      23.195   7.739  49.323  1.00  0.00     0.220 C 
HETATM   22  N4  UNL     1      23.219   7.314  47.924  1.00  0.00    -0.281 NA
HETATM   23  C13 UNL     1      23.048   6.092  47.646  1.00  0.00     0.080 C 
HETATM   24  C14 UNL     1      23.286   5.157  48.523  1.00  0.00     0.044 C 
ENDBRANCH   6  18
TORSDOF 7
ENDMDL
