MODEL 1
REMARK VINA RESULT:      -7.7      0.000      0.000
REMARK  10 active torsions:
REMARK  status: ('A' for Active; 'I' for Inactive)
REMARK    1  A    between atoms: O1_2  and  C2_3 
REMARK    2  A    between atoms: C2_3  and  C3_4 
REMARK    3  A    between atoms: C3_4  and  O2_5 
REMARK    4  A    between atoms: O2_5  and  C4_6 
REMARK    5  A    between atoms: C8_12  and  N3_13 
REMARK    6  A    between atoms: N3_13  and  C9_14 
REMARK    7  A    between atoms: C18_23  and  O3_24 
REMARK    8  A    between atoms: O3_24  and  C19_25 
REMARK    9  A    between atoms: C19_25  and  C20_26 
REMARK   10  A    between atoms: C20_26  and  O4_27 
ROOT
HETATM    1  C4  UNL     1      26.285  -0.310  53.010  1.00  0.00     0.104 A 
HETATM    2  C5  UNL     1      25.323  -0.842  53.835  1.00  0.00     0.072 A 
HETATM    3  C6  UNL     1      24.013  -0.427  53.848  1.00  0.00     0.075 A 
HETATM    4  N1  UNL     1      23.227  -1.079  54.736  1.00  0.00    -0.241 NA
HETATM    5  C7  UNL     1      21.936  -0.719  54.797  1.00  0.00     0.236 A 
HETATM    6  N2  UNL     1      21.496   0.252  53.990  1.00  0.00    -0.224 NA
HETATM    7  C8  UNL     1      22.231   0.924  53.100  1.00  0.00     0.142 A 
HETATM    8  C16 UNL     1      23.559   0.574  53.016  1.00  0.00     0.042 A 
HETATM    9  C17 UNL     1      24.477   1.135  52.177  1.00  0.00     0.057 A 
HETATM   10  C18 UNL     1      25.798   0.707  52.173  1.00  0.00     0.103 A 
ENDROOT
BRANCH   7  11
HETATM   11  N3  UNL     1      21.739   1.948  52.259  1.00  0.00    -0.340 N 
HETATM   12  H10 UNL     1      21.237   2.773  52.639  1.00  0.00     0.167 HD
BRANCH  11  13
HETATM   13  C9  UNL     1      21.820   2.056  50.847  1.00  0.00     0.034 A 
HETATM   14  C10 UNL     1      21.394   1.049  50.007  1.00  0.00     0.029 A 
HETATM   15  C11 UNL     1      21.457   1.094  48.632  1.00  0.00     0.003 A 
HETATM   16  C12 UNL     1      21.977   2.214  48.019  1.00  0.00     0.007 A 
HETATM   17  C13 UNL     1      22.415   3.245  48.819  1.00  0.00    -0.060 A 
HETATM   18  C14 UNL     1      22.983   4.471  48.202  1.00  0.00     0.048 C 
HETATM   19  C15 UNL     1      22.322   3.129  50.178  1.00  0.00     0.036 A 
ENDBRANCH  11  13
ENDBRANCH   7  11
BRANCH  10  20
HETATM   20  O3  UNL     1      26.645   1.366  51.261  1.00  0.00    -0.346 OA
BRANCH  20  21
HETATM   21  C19 UNL     1      26.624   2.771  51.138  1.00  0.00     0.201 C 
BRANCH  21  22
HETATM   22  C20 UNL     1      26.414   3.119  49.672  1.00  0.00     0.193 C 
BRANCH  22  23
HETATM   23  O4  UNL     1      27.367   4.017  49.258  1.00  0.00    -0.394 OA
HETATM   24  C21 UNL     1      26.859   5.214  48.817  1.00  0.00     0.201 C 
ENDBRANCH  22  23
ENDBRANCH  21  22
ENDBRANCH  20  21
ENDBRANCH  10  20
BRANCH   1  25
HETATM   25  O2  UNL     1      27.604  -0.545  52.815  1.00  0.00    -0.346 OA
BRANCH  25  26
HETATM   26  C3  UNL     1      28.658  -0.393  53.705  1.00  0.00     0.201 C 
BRANCH  26  27
HETATM   27  C2  UNL     1      28.307   0.385  54.933  1.00  0.00     0.193 C 
BRANCH  27  28
HETATM   28  O1  UNL     1      29.097   1.536  55.001  1.00  0.00    -0.394 OA
HETATM   29  C1  UNL     1      28.900   2.318  53.872  1.00  0.00     0.201 C 
ENDBRANCH  27  28
ENDBRANCH  26  27
ENDBRANCH  25  26
ENDBRANCH   1  25
TORSDOF 10
ENDMDL
MODEL 2
REMARK VINA RESULT:      -7.6      3.497      7.045
REMARK  10 active torsions:
REMARK  status: ('A' for Active; 'I' for Inactive)
REMARK    1  A    between atoms: O1_2  and  C2_3 
REMARK    2  A    between atoms: C2_3  and  C3_4 
REMARK    3  A    between atoms: C3_4  and  O2_5 
REMARK    4  A    between atoms: O2_5  and  C4_6 
REMARK    5  A    between atoms: C8_12  and  N3_13 
REMARK    6  A    between atoms: N3_13  and  C9_14 
REMARK    7  A    between atoms: C18_23  and  O3_24 
REMARK    8  A    between atoms: O3_24  and  C19_25 
REMARK    9  A    between atoms: C19_25  and  C20_26 
REMARK   10  A    between atoms: C20_26  and  O4_27 
ROOT
HETATM    1  C4  UNL     1      20.273  -0.017  52.966  1.00  0.00     0.104 A 
HETATM    2  C5  UNL     1      20.813  -0.634  54.069  1.00  0.00     0.072 A 
HETATM    3  C6  UNL     1      22.163  -0.716  54.314  1.00  0.00     0.075 A 
HETATM    4  N1  UNL     1      22.486  -1.366  55.456  1.00  0.00    -0.241 NA
HETATM    5  C7  UNL     1      23.790  -1.480  55.752  1.00  0.00     0.236 A 
HETATM    6  N2  UNL     1      24.692  -0.953  54.917  1.00  0.00    -0.224 NA
HETATM    7  C8  UNL     1      24.422  -0.304  53.782  1.00  0.00     0.142 A 
HETATM    8  C16 UNL     1      23.093  -0.172  53.454  1.00  0.00     0.042 A 
HETATM    9  C17 UNL     1      22.605   0.452  52.343  1.00  0.00     0.057 A 
HETATM   10  C18 UNL     1      21.240   0.528  52.105  1.00  0.00     0.103 A 
ENDROOT
BRANCH   7  11
HETATM   11  N3  UNL     1      25.397   0.243  52.917  1.00  0.00    -0.340 N 
HETATM   12  H10 UNL     1      25.187   0.456  51.923  1.00  0.00     0.167 HD
BRANCH  11  13
HETATM   13  C9  UNL     1      26.745   0.586  53.198  1.00  0.00     0.034 A 
HETATM   14  C10 UNL     1      27.154   1.892  53.356  1.00  0.00     0.029 A 
HETATM   15  C11 UNL     1      28.448   2.284  53.620  1.00  0.00     0.003 A 
HETATM   16  C12 UNL     1      29.429   1.324  53.744  1.00  0.00     0.007 A 
HETATM   17  C13 UNL     1      29.066   0.005  53.593  1.00  0.00    -0.060 A 
HETATM   18  C14 UNL     1      30.090  -1.064  53.718  1.00  0.00     0.048 C 
HETATM   19  C15 UNL     1      27.761  -0.309  53.331  1.00  0.00     0.036 A 
ENDBRANCH  11  13
ENDBRANCH   7  11
BRANCH  10  20
HETATM   20  O3  UNL     1      20.867   1.198  50.924  1.00  0.00    -0.346 OA
BRANCH  20  21
HETATM   21  C19 UNL     1      21.842   1.680  50.026  1.00  0.00     0.201 C 
BRANCH  21  22
HETATM   22  C20 UNL     1      21.446   1.255  48.620  1.00  0.00     0.193 C 
BRANCH  22  23
HETATM   23  O4  UNL     1      21.925   2.157  47.701  1.00  0.00    -0.394 OA
HETATM   24  C21 UNL     1      22.585   3.227  48.254  1.00  0.00     0.201 C 
ENDBRANCH  22  23
ENDBRANCH  21  22
ENDBRANCH  20  21
ENDBRANCH  10  20
BRANCH   1  25
HETATM   25  O2  UNL     1      19.012   0.190  52.516  1.00  0.00    -0.346 OA
BRANCH  25  26
HETATM   26  C3  UNL     1      18.072  -0.740  52.099  1.00  0.00     0.201 C 
BRANCH  26  27
HETATM   27  C2  UNL     1      17.341  -1.409  53.220  1.00  0.00     0.193 C 
BRANCH  27  28
HETATM   28  O1  UNL     1      17.990  -2.600  53.557  1.00  0.00    -0.394 OA
HETATM   29  C1  UNL     1      17.091  -3.656  53.540  1.00  0.00     0.201 C 
ENDBRANCH  27  28
ENDBRANCH  26  27
ENDBRANCH  25  26
ENDBRANCH   1  25
TORSDOF 10
ENDMDL
MODEL 3
REMARK VINA RESULT:      -7.5      3.483      7.039
REMARK  10 active torsions:
REMARK  status: ('A' for Active; 'I' for Inactive)
REMARK    1  A    between atoms: O1_2  and  C2_3 
REMARK    2  A    between atoms: C2_3  and  C3_4 
REMARK    3  A    between atoms: C3_4  and  O2_5 
REMARK    4  A    between atoms: O2_5  and  C4_6 
REMARK    5  A    between atoms: C8_12  and  N3_13 
REMARK    6  A    between atoms: N3_13  and  C9_14 
REMARK    7  A    between atoms: C18_23  and  O3_24 
REMARK    8  A    between atoms: O3_24  and  C19_25 
REMARK    9  A    between atoms: C19_25  and  C20_26 
REMARK   10  A    between atoms: C20_26  and  O4_27 
ROOT
HETATM    1  C4  UNL     1      20.318   0.184  52.652  1.00  0.00     0.104 A 
HETATM    2  C5  UNL     1      20.731  -0.417  53.816  1.00  0.00     0.072 A 
HETATM    3  C6  UNL     1      22.051  -0.621  54.144  1.00  0.00     0.075 A 
HETATM    4  N1  UNL     1      22.244  -1.231  55.337  1.00  0.00    -0.241 NA
HETATM    5  C7  UNL     1      23.511  -1.459  55.714  1.00  0.00     0.236 A 
HETATM    6  N2  UNL     1      24.506  -1.080  54.906  1.00  0.00    -0.224 NA
HETATM    7  C8  UNL     1      24.366  -0.477  53.722  1.00  0.00     0.142 A 
HETATM    8  C16 UNL     1      23.077  -0.229  53.311  1.00  0.00     0.042 A 
HETATM    9  C17 UNL     1      22.717   0.373  52.140  1.00  0.00     0.057 A 
HETATM   10  C18 UNL     1      21.381   0.574  51.820  1.00  0.00     0.103 A 
ENDROOT
BRANCH   7  11
HETATM   11  N3  UNL     1      25.437  -0.086  52.886  1.00  0.00    -0.340 N 
HETATM   12  H10 UNL     1      25.276   0.288  51.932  1.00  0.00     0.167 HD
BRANCH  11  13
HETATM   13  C9  UNL     1      26.831  -0.121  53.151  1.00  0.00     0.034 A 
HETATM   14  C10 UNL     1      27.586  -1.259  52.967  1.00  0.00     0.029 A 
HETATM   15  C11 UNL     1      28.938  -1.353  53.215  1.00  0.00     0.003 A 
HETATM   16  C12 UNL     1      29.615  -0.247  53.680  1.00  0.00     0.007 A 
HETATM   17  C13 UNL     1      28.900   0.913  53.878  1.00  0.00    -0.060 A 
HETATM   18  C14 UNL     1      29.588   2.131  54.379  1.00  0.00     0.048 C 
HETATM   19  C15 UNL     1      27.559   0.932  53.610  1.00  0.00     0.036 A 
ENDBRANCH  11  13
ENDBRANCH   7  11
BRANCH  10  20
HETATM   20  O3  UNL     1      21.143   1.205  50.584  1.00  0.00    -0.346 OA
BRANCH  20  21
HETATM   21  C19 UNL     1      21.638   2.500  50.325  1.00  0.00     0.201 C 
BRANCH  21  22
HETATM   22  C20 UNL     1      20.788   3.499  51.096  1.00  0.00     0.193 C 
BRANCH  22  23
HETATM   23  O4  UNL     1      21.536   4.093  52.083  1.00  0.00    -0.394 OA
HETATM   24  C21 UNL     1      22.060   5.313  51.734  1.00  0.00     0.201 C 
ENDBRANCH  22  23
ENDBRANCH  21  22
ENDBRANCH  20  21
ENDBRANCH  10  20
BRANCH   1  25
HETATM   25  O2  UNL     1      19.112   0.492  52.119  1.00  0.00    -0.346 OA
BRANCH  25  26
HETATM   26  C3  UNL     1      18.156  -0.355  51.579  1.00  0.00     0.201 C 
BRANCH  26  27
HETATM   27  C2  UNL     1      16.906  -0.458  52.395  1.00  0.00     0.193 C 
BRANCH  27  28
HETATM   28  O1  UNL     1      17.198  -1.056  53.624  1.00  0.00    -0.394 OA
HETATM   29  C1  UNL     1      17.631  -2.360  53.431  1.00  0.00     0.201 C 
ENDBRANCH  27  28
ENDBRANCH  26  27
ENDBRANCH  25  26
ENDBRANCH   1  25
TORSDOF 10
ENDMDL
MODEL 4
REMARK VINA RESULT:      -7.4      3.306      7.621
REMARK  10 active torsions:
REMARK  status: ('A' for Active; 'I' for Inactive)
REMARK    1  A    between atoms: O1_2  and  C2_3 
REMARK    2  A    between atoms: C2_3  and  C3_4 
REMARK    3  A    between atoms: C3_4  and  O2_5 
REMARK    4  A    between atoms: O2_5  and  C4_6 
REMARK    5  A    between atoms: C8_12  and  N3_13 
REMARK    6  A    between atoms: N3_13  and  C9_14 
REMARK    7  A    between atoms: C18_23  and  O3_24 
REMARK    8  A    between atoms: O3_24  and  C19_25 
REMARK    9  A    between atoms: C19_25  and  C20_26 
REMARK   10  A    between atoms: C20_26  and  O4_27 
ROOT
HETATM    1  C4  UNL     1      21.962   2.272  50.231  1.00  0.00     0.104 A 
HETATM    2  C5  UNL     1      23.032   2.955  49.705  1.00  0.00     0.072 A 
HETATM    3  C6  UNL     1      24.310   2.877  50.207  1.00  0.00     0.075 A 
HETATM    4  N1  UNL     1      25.219   3.630  49.544  1.00  0.00    -0.241 NA
HETATM    5  C7  UNL     1      26.485   3.597  49.986  1.00  0.00     0.236 A 
HETATM    6  N2  UNL     1      26.783   2.835  51.044  1.00  0.00    -0.224 NA
HETATM    7  C8  UNL     1      25.923   2.077  51.729  1.00  0.00     0.142 A 
HETATM    8  C16 UNL     1      24.617   2.091  51.297  1.00  0.00     0.042 A 
HETATM    9  C17 UNL     1      23.587   1.392  51.855  1.00  0.00     0.057 A 
HETATM   10  C18 UNL     1      22.300   1.479  51.340  1.00  0.00     0.103 A 
ENDROOT
BRANCH   7  11
HETATM   11  N3  UNL     1      26.265   1.280  52.845  1.00  0.00    -0.340 N 
HETATM   12  H10 UNL     1      25.983   1.540  53.809  1.00  0.00     0.167 HD
BRANCH  11  13
HETATM   13  C9  UNL     1      26.999   0.066  52.881  1.00  0.00     0.034 A 
HETATM   14  C10 UNL     1      26.462  -1.131  52.460  1.00  0.00     0.029 A 
HETATM   15  C11 UNL     1      27.123  -2.339  52.480  1.00  0.00     0.003 A 
HETATM   16  C12 UNL     1      28.418  -2.389  52.946  1.00  0.00     0.007 A 
HETATM   17  C13 UNL     1      28.997  -1.216  53.377  1.00  0.00    -0.060 A 
HETATM   18  C14 UNL     1      30.391  -1.223  53.889  1.00  0.00     0.048 C 
HETATM   19  C15 UNL     1      28.278  -0.054  53.329  1.00  0.00     0.036 A 
ENDBRANCH  11  13
ENDBRANCH   7  11
BRANCH  10  20
HETATM   20  O3  UNL     1      21.328   0.709  52.007  1.00  0.00    -0.346 OA
BRANCH  20  21
HETATM   21  C19 UNL     1      21.004   0.961  53.356  1.00  0.00     0.201 C 
BRANCH  21  22
HETATM   22  C20 UNL     1      20.537  -0.342  53.987  1.00  0.00     0.193 C 
BRANCH  22  23
HETATM   23  O4  UNL     1      21.533  -1.285  53.917  1.00  0.00    -0.394 OA
HETATM   24  C21 UNL     1      22.495  -1.161  54.889  1.00  0.00     0.201 C 
ENDBRANCH  22  23
ENDBRANCH  21  22
ENDBRANCH  20  21
ENDBRANCH  10  20
BRANCH   1  25
HETATM   25  O2  UNL     1      20.647   2.185  49.922  1.00  0.00    -0.346 OA
BRANCH  25  26
HETATM   26  C3  UNL     1      19.692   3.190  49.882  1.00  0.00     0.201 C 
BRANCH  26  27
HETATM   27  C2  UNL     1      19.695   4.077  51.087  1.00  0.00     0.193 C 
BRANCH  27  28
HETATM   28  O1  UNL     1      18.895   3.514  52.085  1.00  0.00    -0.394 OA
HETATM   29  C1  UNL     1      17.667   3.138  51.559  1.00  0.00     0.201 C 
ENDBRANCH  27  28
ENDBRANCH  26  27
ENDBRANCH  25  26
ENDBRANCH   1  25
TORSDOF 10
ENDMDL
MODEL 5
REMARK VINA RESULT:      -7.2      2.269      4.739
REMARK  10 active torsions:
REMARK  status: ('A' for Active; 'I' for Inactive)
REMARK    1  A    between atoms: O1_2  and  C2_3 
REMARK    2  A    between atoms: C2_3  and  C3_4 
REMARK    3  A    between atoms: C3_4  and  O2_5 
REMARK    4  A    between atoms: O2_5  and  C4_6 
REMARK    5  A    between atoms: C8_12  and  N3_13 
REMARK    6  A    between atoms: N3_13  and  C9_14 
REMARK    7  A    between atoms: C18_23  and  O3_24 
REMARK    8  A    between atoms: O3_24  and  C19_25 
REMARK    9  A    between atoms: C19_25  and  C20_26 
REMARK   10  A    between atoms: C20_26  and  O4_27 
ROOT
HETATM    1  C4  UNL     1      26.495   0.583  52.243  1.00  0.00     0.104 A 
HETATM    2  C5  UNL     1      26.760   1.677  51.453  1.00  0.00     0.072 A 
HETATM    3  C6  UNL     1      25.819   2.617  51.109  1.00  0.00     0.075 A 
HETATM    4  N1  UNL     1      26.285   3.616  50.324  1.00  0.00    -0.241 NA
HETATM    5  C7  UNL     1      25.413   4.566  49.952  1.00  0.00     0.236 A 
HETATM    6  N2  UNL     1      24.146   4.481  50.370  1.00  0.00    -0.224 NA
HETATM    7  C8  UNL     1      23.639   3.517  51.144  1.00  0.00     0.142 A 
HETATM    8  C16 UNL     1      24.512   2.530  51.540  1.00  0.00     0.042 A 
HETATM    9  C17 UNL     1      24.198   1.460  52.328  1.00  0.00     0.057 A 
HETATM   10  C18 UNL     1      25.158   0.517  52.669  1.00  0.00     0.103 A 
ENDROOT
BRANCH   7  11
HETATM   11  N3  UNL     1      22.293   3.451  51.571  1.00  0.00    -0.340 N 
HETATM   12  H10 UNL     1      21.949   4.004  52.379  1.00  0.00     0.167 HD
BRANCH  11  13
HETATM   13  C9  UNL     1      21.226   2.685  51.035  1.00  0.00     0.034 A 
HETATM   14  C10 UNL     1      20.775   2.855  49.744  1.00  0.00     0.029 A 
HETATM   15  C11 UNL     1      19.739   2.148  49.174  1.00  0.00     0.003 A 
HETATM   16  C12 UNL     1      19.087   1.191  49.922  1.00  0.00     0.007 A 
HETATM   17  C13 UNL     1      19.504   0.987  51.218  1.00  0.00    -0.060 A 
HETATM   18  C14 UNL     1      18.830  -0.034  52.061  1.00  0.00     0.048 C 
HETATM   19  C15 UNL     1      20.540   1.728  51.717  1.00  0.00     0.036 A 
ENDBRANCH  11  13
ENDBRANCH   7  11
BRANCH  10  20
HETATM   20  O3  UNL     1      24.707  -0.538  53.485  1.00  0.00    -0.346 OA
BRANCH  20  21
HETATM   21  C19 UNL     1      23.356  -0.622  53.880  1.00  0.00     0.201 C 
BRANCH  21  22
HETATM   22  C20 UNL     1      23.295  -1.316  55.232  1.00  0.00     0.193 C 
BRANCH  22  23
HETATM   23  O4  UNL     1      22.119  -2.015  55.352  1.00  0.00    -0.394 OA
HETATM   24  C21 UNL     1      21.154  -1.653  54.445  1.00  0.00     0.201 C 
ENDBRANCH  22  23
ENDBRANCH  21  22
ENDBRANCH  20  21
ENDBRANCH  10  20
BRANCH   1  25
HETATM   25  O2  UNL     1      27.233  -0.451  52.710  1.00  0.00    -0.346 OA
BRANCH  25  26
HETATM   26  C3  UNL     1      28.454  -0.423  53.369  1.00  0.00     0.201 C 
BRANCH  26  27
HETATM   27  C2  UNL     1      28.357  -0.021  54.807  1.00  0.00     0.193 C 
BRANCH  27  28
HETATM   28  O1  UNL     1      28.249   1.369  54.899  1.00  0.00    -0.394 OA
HETATM   29  C1  UNL     1      29.322   1.975  54.261  1.00  0.00     0.201 C 
ENDBRANCH  27  28
ENDBRANCH  26  27
ENDBRANCH  25  26
ENDBRANCH   1  25
TORSDOF 10
ENDMDL
MODEL 6
REMARK VINA RESULT:      -7.2      2.670      5.948
REMARK  10 active torsions:
REMARK  status: ('A' for Active; 'I' for Inactive)
REMARK    1  A    between atoms: O1_2  and  C2_3 
REMARK    2  A    between atoms: C2_3  and  C3_4 
REMARK    3  A    between atoms: C3_4  and  O2_5 
REMARK    4  A    between atoms: O2_5  and  C4_6 
REMARK    5  A    between atoms: C8_12  and  N3_13 
REMARK    6  A    between atoms: N3_13  and  C9_14 
REMARK    7  A    between atoms: C18_23  and  O3_24 
REMARK    8  A    between atoms: O3_24  and  C19_25 
REMARK    9  A    between atoms: C19_25  and  C20_26 
REMARK   10  A    between atoms: C20_26  and  O4_27 
ROOT
HETATM    1  C4  UNL     1      22.952   0.411  52.800  1.00  0.00     0.104 A 
HETATM    2  C5  UNL     1      22.204   0.959  51.785  1.00  0.00     0.072 A 
HETATM    3  C6  UNL     1      22.711   1.822  50.843  1.00  0.00     0.075 A 
HETATM    4  N1  UNL     1      21.807   2.248  49.930  1.00  0.00    -0.241 NA
HETATM    5  C7  UNL     1      22.241   3.094  48.982  1.00  0.00     0.236 A 
HETATM    6  N2  UNL     1      23.524   3.468  48.986  1.00  0.00    -0.224 NA
HETATM    7  C8  UNL     1      24.452   3.075  49.864  1.00  0.00     0.142 A 
HETATM    8  C16 UNL     1      24.034   2.207  50.847  1.00  0.00     0.042 A 
HETATM    9  C17 UNL     1      24.819   1.689  51.836  1.00  0.00     0.057 A 
HETATM   10  C18 UNL     1      24.296   0.819  52.782  1.00  0.00     0.103 A 
ENDROOT
BRANCH   7  11
HETATM   11  N3  UNL     1      25.804   3.488  49.845  1.00  0.00    -0.340 N 
HETATM   12  H10 UNL     1      26.568   2.867  50.172  1.00  0.00     0.167 HD
BRANCH  11  13
HETATM   13  C9  UNL     1      26.351   4.724  49.416  1.00  0.00     0.034 A 
HETATM   14  C10 UNL     1      27.513   4.798  48.678  1.00  0.00     0.029 A 
HETATM   15  C11 UNL     1      28.094   5.968  48.242  1.00  0.00     0.003 A 
HETATM   16  C12 UNL     1      27.495   7.171  48.547  1.00  0.00     0.007 A 
HETATM   17  C13 UNL     1      26.332   7.146  49.283  1.00  0.00    -0.060 A 
HETATM   18  C14 UNL     1      25.651   8.418  49.636  1.00  0.00     0.048 C 
HETATM   19  C15 UNL     1      25.812   5.945  49.682  1.00  0.00     0.036 A 
ENDBRANCH  11  13
ENDBRANCH   7  11
BRANCH  10  20
HETATM   20  O3  UNL     1      25.209   0.356  53.749  1.00  0.00    -0.346 OA
BRANCH  20  21
HETATM   21  C19 UNL     1      26.510  -0.045  53.383  1.00  0.00     0.201 C 
BRANCH  21  22
HETATM   22  C20 UNL     1      27.461   0.333  54.509  1.00  0.00     0.193 C 
BRANCH  22  23
HETATM   23  O4  UNL     1      27.649   1.693  54.531  1.00  0.00    -0.394 OA
HETATM   24  C21 UNL     1      28.242   2.198  53.400  1.00  0.00     0.201 C 
ENDBRANCH  22  23
ENDBRANCH  21  22
ENDBRANCH  20  21
ENDBRANCH  10  20
BRANCH   1  25
HETATM   25  O2  UNL     1      22.689  -0.441  53.819  1.00  0.00    -0.346 OA
BRANCH  25  26
HETATM   26  C3  UNL     1      21.583  -0.485  54.655  1.00  0.00     0.201 C 
BRANCH  26  27
HETATM   27  C2  UNL     1      20.492  -1.387  54.171  1.00  0.00     0.193 C 
BRANCH  27  28
HETATM   28  O1  UNL     1      19.528  -0.634  53.494  1.00  0.00    -0.394 OA
HETATM   29  C1  UNL     1      18.359  -1.368  53.355  1.00  0.00     0.201 C 
ENDBRANCH  27  28
ENDBRANCH  26  27
ENDBRANCH  25  26
ENDBRANCH   1  25
TORSDOF 10
ENDMDL
MODEL 7
REMARK VINA RESULT:      -7.1      3.168      5.869
REMARK  10 active torsions:
REMARK  status: ('A' for Active; 'I' for Inactive)
REMARK    1  A    between atoms: O1_2  and  C2_3 
REMARK    2  A    between atoms: C2_3  and  C3_4 
REMARK    3  A    between atoms: C3_4  and  O2_5 
REMARK    4  A    between atoms: O2_5  and  C4_6 
REMARK    5  A    between atoms: C8_12  and  N3_13 
REMARK    6  A    between atoms: N3_13  and  C9_14 
REMARK    7  A    between atoms: C18_23  and  O3_24 
REMARK    8  A    between atoms: O3_24  and  C19_25 
REMARK    9  A    between atoms: C19_25  and  C20_26 
REMARK   10  A    between atoms: C20_26  and  O4_27 
ROOT
HETATM    1  C4  UNL     1      22.586   1.647  52.388  1.00  0.00     0.104 A 
HETATM    2  C5  UNL     1      23.757   1.578  53.103  1.00  0.00     0.072 A 
HETATM    3  C6  UNL     1      24.986   1.919  52.589  1.00  0.00     0.075 A 
HETATM    4  N1  UNL     1      26.015   1.778  53.458  1.00  0.00    -0.241 NA
HETATM    5  C7  UNL     1      27.242   2.094  53.016  1.00  0.00     0.236 A 
HETATM    6  N2  UNL     1      27.386   2.526  51.758  1.00  0.00    -0.224 NA
HETATM    7  C8  UNL     1      26.404   2.680  50.866  1.00  0.00     0.142 A 
HETATM    8  C16 UNL     1      25.135   2.364  51.293  1.00  0.00     0.042 A 
HETATM    9  C17 UNL     1      23.999   2.450  50.542  1.00  0.00     0.057 A 
HETATM   10  C18 UNL     1      22.763   2.103  51.072  1.00  0.00     0.103 A 
ENDROOT
BRANCH   7  11
HETATM   11  N3  UNL     1      26.586   3.138  49.541  1.00  0.00    -0.340 N 
HETATM   12  H10 UNL     1      26.570   2.489  48.732  1.00  0.00     0.167 HD
BRANCH  11  13
HETATM   13  C9  UNL     1      26.807   4.462  49.080  1.00  0.00     0.034 A 
HETATM   14  C10 UNL     1      25.814   5.417  49.080  1.00  0.00     0.029 A 
HETATM   15  C11 UNL     1      25.969   6.712  48.636  1.00  0.00     0.003 A 
HETATM   16  C12 UNL     1      27.195   7.115  48.153  1.00  0.00     0.007 A 
HETATM   17  C13 UNL     1      28.218   6.193  48.134  1.00  0.00    -0.060 A 
HETATM   18  C14 UNL     1      29.556   6.583  47.621  1.00  0.00     0.048 C 
HETATM   19  C15 UNL     1      27.990   4.924  48.591  1.00  0.00     0.036 A 
ENDBRANCH  11  13
ENDBRANCH   7  11
BRANCH  10  20
HETATM   20  O3  UNL     1      21.670   2.236  50.194  1.00  0.00    -0.346 OA
BRANCH  20  21
HETATM   21  C19 UNL     1      21.626   3.277  49.243  1.00  0.00     0.201 C 
BRANCH  21  22
HETATM   22  C20 UNL     1      21.404   2.660  47.870  1.00  0.00     0.193 C 
BRANCH  22  23
HETATM   23  O4  UNL     1      22.315   3.163  46.974  1.00  0.00    -0.394 OA
HETATM   24  C21 UNL     1      21.754   3.676  45.830  1.00  0.00     0.201 C 
ENDBRANCH  22  23
ENDBRANCH  21  22
ENDBRANCH  20  21
ENDBRANCH  10  20
BRANCH   1  25
HETATM   25  O2  UNL     1      21.288   1.378  52.665  1.00  0.00    -0.346 OA
BRANCH  25  26
HETATM   26  C3  UNL     1      20.634   0.154  52.671  1.00  0.00     0.201 C 
BRANCH  26  27
HETATM   27  C2  UNL     1      20.723  -0.576  53.974  1.00  0.00     0.193 C 
BRANCH  27  28
HETATM   28  O1  UNL     1      21.817  -1.445  53.950  1.00  0.00    -0.394 OA
HETATM   29  C1  UNL     1      22.564  -1.306  55.111  1.00  0.00     0.201 C 
ENDBRANCH  27  28
ENDBRANCH  26  27
ENDBRANCH  25  26
ENDBRANCH   1  25
TORSDOF 10
ENDMDL
MODEL 8
REMARK VINA RESULT:      -7.1      3.430      7.023
REMARK  10 active torsions:
REMARK  status: ('A' for Active; 'I' for Inactive)
REMARK    1  A    between atoms: O1_2  and  C2_3 
REMARK    2  A    between atoms: C2_3  and  C3_4 
REMARK    3  A    between atoms: C3_4  and  O2_5 
REMARK    4  A    between atoms: O2_5  and  C4_6 
REMARK    5  A    between atoms: C8_12  and  N3_13 
REMARK    6  A    between atoms: N3_13  and  C9_14 
REMARK    7  A    between atoms: C18_23  and  O3_24 
REMARK    8  A    between atoms: O3_24  and  C19_25 
REMARK    9  A    between atoms: C19_25  and  C20_26 
REMARK   10  A    between atoms: C20_26  and  O4_27 
ROOT
HETATM    1  C4  UNL     1      19.935   0.295  52.132  1.00  0.00     0.104 A 
HETATM    2  C5  UNL     1      20.324  -0.314  53.301  1.00  0.00     0.072 A 
HETATM    3  C6  UNL     1      21.635  -0.442  53.695  1.00  0.00     0.075 A 
HETATM    4  N1  UNL     1      21.804  -1.074  54.880  1.00  0.00    -0.241 NA
HETATM    5  C7  UNL     1      23.062  -1.231  55.320  1.00  0.00     0.236 A 
HETATM    6  N2  UNL     1      24.071  -0.762  54.579  1.00  0.00    -0.224 NA
HETATM    7  C8  UNL     1      23.954  -0.133  53.407  1.00  0.00     0.142 A 
HETATM    8  C16 UNL     1      22.675   0.042  52.932  1.00  0.00     0.042 A 
HETATM    9  C17 UNL     1      22.339   0.656  51.760  1.00  0.00     0.057 A 
HETATM   10  C18 UNL     1      21.012   0.779  51.371  1.00  0.00     0.103 A 
ENDROOT
BRANCH   7  11
HETATM   11  N3  UNL     1      25.040   0.353  52.643  1.00  0.00    -0.340 N 
HETATM   12  H10 UNL     1      24.922   0.657  51.658  1.00  0.00     0.167 HD
BRANCH  11  13
HETATM   13  C9  UNL     1      26.397   0.513  53.026  1.00  0.00     0.034 A 
HETATM   14  C10 UNL     1      26.925   1.741  53.365  1.00  0.00     0.029 A 
HETATM   15  C11 UNL     1      28.235   1.957  53.735  1.00  0.00     0.003 A 
HETATM   16  C12 UNL     1      29.105   0.890  53.782  1.00  0.00     0.007 A 
HETATM   17  C13 UNL     1      28.621  -0.356  53.452  1.00  0.00    -0.060 A 
HETATM   18  C14 UNL     1      29.523  -1.535  53.489  1.00  0.00     0.048 C 
HETATM   19  C15 UNL     1      27.308  -0.495  53.094  1.00  0.00     0.036 A 
ENDBRANCH  11  13
ENDBRANCH   7  11
BRANCH  10  20
HETATM   20  O3  UNL     1      20.799   1.432  50.142  1.00  0.00    -0.346 OA
BRANCH  20  21
HETATM   21  C19 UNL     1      21.377   0.942  48.952  1.00  0.00     0.201 C 
BRANCH  21  22
HETATM   22  C20 UNL     1      21.556   2.109  47.993  1.00  0.00     0.193 C 
BRANCH  22  23
HETATM   23  O4  UNL     1      22.885   2.437  47.889  1.00  0.00    -0.394 OA
HETATM   24  C21 UNL     1      23.312   3.359  48.814  1.00  0.00     0.201 C 
ENDBRANCH  22  23
ENDBRANCH  21  22
ENDBRANCH  20  21
ENDBRANCH  10  20
BRANCH   1  25
HETATM   25  O2  UNL     1      18.741   0.540  51.541  1.00  0.00    -0.346 OA
BRANCH  25  26
HETATM   26  C3  UNL     1      17.756   1.445  51.909  1.00  0.00     0.201 C 
BRANCH  26  27
HETATM   27  C2  UNL     1      17.858   2.767  51.215  1.00  0.00     0.193 C 
BRANCH  27  28
HETATM   28  O1  UNL     1      17.454   3.784  52.084  1.00  0.00    -0.394 OA
HETATM   29  C1  UNL     1      16.069   3.879  52.098  1.00  0.00     0.201 C 
ENDBRANCH  27  28
ENDBRANCH  26  27
ENDBRANCH  25  26
ENDBRANCH   1  25
TORSDOF 10
ENDMDL
MODEL 9
REMARK VINA RESULT:      -7.1      1.432      2.134
REMARK  10 active torsions:
REMARK  status: ('A' for Active; 'I' for Inactive)
REMARK    1  A    between atoms: O1_2  and  C2_3 
REMARK    2  A    between atoms: C2_3  and  C3_4 
REMARK    3  A    between atoms: C3_4  and  O2_5 
REMARK    4  A    between atoms: O2_5  and  C4_6 
REMARK    5  A    between atoms: C8_12  and  N3_13 
REMARK    6  A    between atoms: N3_13  and  C9_14 
REMARK    7  A    between atoms: C18_23  and  O3_24 
REMARK    8  A    between atoms: O3_24  and  C19_25 
REMARK    9  A    between atoms: C19_25  and  C20_26 
REMARK   10  A    between atoms: C20_26  and  O4_27 
ROOT
HETATM    1  C4  UNL     1      26.209  -0.321  52.924  1.00  0.00     0.104 A 
HETATM    2  C5  UNL     1      25.291  -0.884  53.778  1.00  0.00     0.072 A 
HETATM    3  C6  UNL     1      23.985  -0.469  53.877  1.00  0.00     0.075 A 
HETATM    4  N1  UNL     1      23.246  -1.155  54.780  1.00  0.00    -0.241 NA
HETATM    5  C7  UNL     1      21.961  -0.797  54.924  1.00  0.00     0.236 A 
HETATM    6  N2  UNL     1      21.480   0.205  54.180  1.00  0.00    -0.224 NA
HETATM    7  C8  UNL     1      22.168   0.911  53.279  1.00  0.00     0.142 A 
HETATM    8  C16 UNL     1      23.489   0.564  53.110  1.00  0.00     0.042 A 
HETATM    9  C17 UNL     1      24.363   1.157  52.245  1.00  0.00     0.057 A 
HETATM   10  C18 UNL     1      25.680   0.729  52.154  1.00  0.00     0.103 A 
ENDROOT
BRANCH   7  11
HETATM   11  N3  UNL     1      21.635   1.967  52.506  1.00  0.00    -0.340 N 
HETATM   12  H10 UNL     1      21.911   2.954  52.666  1.00  0.00     0.167 HD
BRANCH  11  13
HETATM   13  C9  UNL     1      20.694   1.907  51.445  1.00  0.00     0.034 A 
HETATM   14  C10 UNL     1      20.759   2.749  50.356  1.00  0.00     0.029 A 
HETATM   15  C11 UNL     1      19.870   2.742  49.304  1.00  0.00     0.003 A 
HETATM   16  C12 UNL     1      18.830   1.838  49.308  1.00  0.00     0.007 A 
HETATM   17  C13 UNL     1      18.726   0.976  50.377  1.00  0.00    -0.060 A 
HETATM   18  C14 UNL     1      17.621  -0.015  50.424  1.00  0.00     0.048 C 
HETATM   19  C15 UNL     1      19.646   1.041  51.387  1.00  0.00     0.036 A 
ENDBRANCH  11  13
ENDBRANCH   7  11
BRANCH  10  20
HETATM   20  O3  UNL     1      26.479   1.422  51.225  1.00  0.00    -0.346 OA
BRANCH  20  21
HETATM   21  C19 UNL     1      26.443   2.830  51.147  1.00  0.00     0.201 C 
BRANCH  21  22
HETATM   22  C20 UNL     1      26.337   3.225  49.682  1.00  0.00     0.193 C 
BRANCH  22  23
HETATM   23  O4  UNL     1      25.019   3.369  49.325  1.00  0.00    -0.394 OA
HETATM   24  C21 UNL     1      24.302   4.206  50.144  1.00  0.00     0.201 C 
ENDBRANCH  22  23
ENDBRANCH  21  22
ENDBRANCH  20  21
ENDBRANCH  10  20
BRANCH   1  25
HETATM   25  O2  UNL     1      27.515  -0.549  52.649  1.00  0.00    -0.346 OA
BRANCH  25  26
HETATM   26  C3  UNL     1      28.562  -0.787  53.528  1.00  0.00     0.201 C 
BRANCH  26  27
HETATM   27  C2  UNL     1      28.688   0.235  54.613  1.00  0.00     0.193 C 
BRANCH  27  28
HETATM   28  O1  UNL     1      29.551   1.254  54.198  1.00  0.00    -0.394 OA
HETATM   29  C1  UNL     1      28.824   2.381  53.842  1.00  0.00     0.201 C 
ENDBRANCH  27  28
ENDBRANCH  26  27
ENDBRANCH  25  26
ENDBRANCH   1  25
TORSDOF 10
ENDMDL
