MODEL 1
REMARK VINA RESULT:      -8.2      0.000      0.000
REMARK  7 active torsions:
REMARK  status: ('A' for Active; 'I' for Inactive)
REMARK    1  A    between atoms: C2_2  and  C3_3 
REMARK    2  A    between atoms: C3_3  and  O1_4 
REMARK    3  A    between atoms: O1_4  and  C4_5 
REMARK    4  A    between atoms: C4_5  and  C5_6 
REMARK    5  A    between atoms: C5_6  and  C6_7 
REMARK    6  A    between atoms: C7_8  and  C8_9 
REMARK    7  A    between atoms: N3_18  and  C15_19 
ROOT
HETATM    1  C8  UNL     1      23.151   1.756  51.379  1.00  0.00     0.186 A 
HETATM    2  C9  UNL     1      24.114   1.081  52.281  1.00  0.00     0.043 A 
HETATM    3  C10 UNL     1      23.742   0.294  53.274  1.00  0.00     0.067 A 
HETATM    4  C11 UNL     1      22.348   0.014  53.574  1.00  0.00     0.009 A 
HETATM    5  C12 UNL     1      21.386   0.552  52.845  1.00  0.00     0.098 A 
HETATM    6  N1  UNL     1      21.816   1.385  51.797  1.00  0.00    -0.380 N 
HETATM    7  C13 UNL     1      22.039  -0.877  54.681  1.00  0.00     0.034 A 
HETATM    8  C14 UNL     1      23.002  -1.411  55.390  1.00  0.00     0.108 A 
HETATM    9  N2  UNL     1      24.379  -1.120  55.077  1.00  0.00    -0.305 N 
HETATM   10  N3  UNL     1      24.806  -0.268  54.024  1.00  0.00    -0.256 N 
HETATM   11  H15 UNL     1      21.157   1.870  51.150  1.00  0.00     0.160 HD
HETATM   12  H18 UNL     1      25.095  -1.592  55.695  1.00  0.00     0.186 HD
ENDROOT
BRANCH   1  13
HETATM   13  C7  UNL     1      23.390   3.195  51.433  1.00  0.00    -0.077 C 
HETATM   14  C6  UNL     1      23.572   4.379  51.481  1.00  0.00    -0.102 C 
BRANCH  14  15
HETATM   15  C5  UNL     1      23.781   5.843  51.557  1.00  0.00     0.120 C 
BRANCH  15  16
HETATM   16  C4  UNL     1      24.371   6.263  50.222  1.00  0.00     0.179 C 
BRANCH  16  17
HETATM   17  O1  UNL     1      25.720   6.015  50.108  1.00  0.00    -0.390 OA
BRANCH  17  18
HETATM   18  C3  UNL     1      26.151   5.650  48.856  1.00  0.00     0.167 C 
BRANCH  18  19
HETATM   19  C2  UNL     1      27.216   4.550  48.941  1.00  0.00     0.022 C 
HETATM   20  C1  UNL     1      26.584   3.307  49.529  1.00  0.00     0.007 C 
ENDBRANCH  18  19
ENDBRANCH  17  18
ENDBRANCH  16  17
ENDBRANCH  15  16
ENDBRANCH  14  15
ENDBRANCH   1  13
BRANCH  10  21
HETATM   21  C15 UNL     1      26.204  -0.116  53.878  1.00  0.00     0.058 A 
HETATM   22  C16 UNL     1      26.784  -1.223  53.246  1.00  0.00     0.034 A 
HETATM   23  C17 UNL     1      28.154  -1.328  52.999  1.00  0.00     0.046 A 
HETATM   24  C18 UNL     1      28.984  -0.324  53.382  1.00  0.00     0.138 A 
HETATM   25  F1  UNL     1      30.325  -0.285  53.210  1.00  0.00    -0.204 F 
HETATM   26  C19 UNL     1      28.429   0.773  54.006  1.00  0.00     0.074 A 
HETATM   27 CL1  UNL     1      29.400   2.131  54.544  1.00  0.00    -0.081 Cl
HETATM   28  C20 UNL     1      27.079   0.878  54.250  1.00  0.00     0.058 A 
ENDBRANCH  10  21
TORSDOF 7
ENDMDL
MODEL 2
REMARK VINA RESULT:      -8.0      2.896      5.773
REMARK  7 active torsions:
REMARK  status: ('A' for Active; 'I' for Inactive)
REMARK    1  A    between atoms: C2_2  and  C3_3 
REMARK    2  A    between atoms: C3_3  and  O1_4 
REMARK    3  A    between atoms: O1_4  and  C4_5 
REMARK    4  A    between atoms: C4_5  and  C5_6 
REMARK    5  A    between atoms: C5_6  and  C6_7 
REMARK    6  A    between atoms: C7_8  and  C8_9 
REMARK    7  A    between atoms: N3_18  and  C15_19 
ROOT
HETATM    1  C8  UNL     1      22.622   3.378  52.288  1.00  0.00     0.186 A 
HETATM    2  C9  UNL     1      24.015   2.925  52.062  1.00  0.00     0.043 A 
HETATM    3  C10 UNL     1      24.812   3.466  51.161  1.00  0.00     0.067 A 
HETATM    4  C11 UNL     1      24.397   4.564  50.304  1.00  0.00     0.009 A 
HETATM    5  C12 UNL     1      23.178   5.066  50.402  1.00  0.00     0.098 A 
HETATM    6  N1  UNL     1      22.354   4.465  51.371  1.00  0.00    -0.380 N 
HETATM    7  C13 UNL     1      25.354   5.103  49.350  1.00  0.00     0.034 A 
HETATM    8  C14 UNL     1      26.561   4.604  49.269  1.00  0.00     0.108 A 
HETATM    9  N2  UNL     1      26.953   3.513  50.127  1.00  0.00    -0.305 N 
HETATM   10  N3  UNL     1      26.112   2.904  51.095  1.00  0.00    -0.256 N 
HETATM   11  H15 UNL     1      21.372   4.768  51.548  1.00  0.00     0.160 HD
HETATM   12  H18 UNL     1      27.945   3.169  49.999  1.00  0.00     0.186 HD
ENDROOT
BRANCH   1  13
HETATM   13  C7  UNL     1      21.725   2.241  52.106  1.00  0.00    -0.077 C 
HETATM   14  C6  UNL     1      20.987   1.306  51.972  1.00  0.00    -0.102 C 
BRANCH  14  15
HETATM   15  C5  UNL     1      20.063   0.158  51.823  1.00  0.00     0.120 C 
BRANCH  15  16
HETATM   16  C4  UNL     1      19.677  -0.268  53.229  1.00  0.00     0.179 C 
BRANCH  16  17
HETATM   17  O1  UNL     1      20.714  -0.211  54.131  1.00  0.00    -0.390 OA
BRANCH  17  18
HETATM   18  C3  UNL     1      21.263  -1.420  54.479  1.00  0.00     0.167 C 
BRANCH  18  19
HETATM   19  C2  UNL     1      22.696  -1.244  54.998  1.00  0.00     0.022 C 
HETATM   20  C1  UNL     1      23.520  -0.566  53.924  1.00  0.00     0.007 C 
ENDBRANCH  18  19
ENDBRANCH  17  18
ENDBRANCH  16  17
ENDBRANCH  15  16
ENDBRANCH  14  15
ENDBRANCH   1  13
BRANCH  10  21
HETATM   21  C15 UNL     1      26.688   1.851  51.842  1.00  0.00     0.058 A 
HETATM   22  C16 UNL     1      27.647   2.320  52.748  1.00  0.00     0.034 A 
HETATM   23  C17 UNL     1      28.375   1.478  53.591  1.00  0.00     0.046 A 
HETATM   24  C18 UNL     1      28.162   0.138  53.548  1.00  0.00     0.138 A 
HETATM   25  F1  UNL     1      28.788  -0.796  54.300  1.00  0.00    -0.204 F 
HETATM   26  C19 UNL     1      27.222  -0.341  52.661  1.00  0.00     0.074 A 
HETATM   27 CL1  UNL     1      26.861  -2.051  52.516  1.00  0.00    -0.081 Cl
HETATM   28  C20 UNL     1      26.504   0.488  51.829  1.00  0.00     0.058 A 
ENDBRANCH  10  21
TORSDOF 7
ENDMDL
MODEL 3
REMARK VINA RESULT:      -7.6      3.471      6.571
REMARK  7 active torsions:
REMARK  status: ('A' for Active; 'I' for Inactive)
REMARK    1  A    between atoms: C2_2  and  C3_3 
REMARK    2  A    between atoms: C3_3  and  O1_4 
REMARK    3  A    between atoms: O1_4  and  C4_5 
REMARK    4  A    between atoms: C4_5  and  C5_6 
REMARK    5  A    between atoms: C5_6  and  C6_7 
REMARK    6  A    between atoms: C7_8  and  C8_9 
REMARK    7  A    between atoms: N3_18  and  C15_19 
ROOT
HETATM    1  C8  UNL     1      26.253   2.581  50.936  1.00  0.00     0.186 A 
HETATM    2  C9  UNL     1      24.861   2.426  51.422  1.00  0.00     0.043 A 
HETATM    3  C10 UNL     1      23.957   3.383  51.336  1.00  0.00     0.067 A 
HETATM    4  C11 UNL     1      24.243   4.683  50.753  1.00  0.00     0.009 A 
HETATM    5  C12 UNL     1      25.447   4.954  50.280  1.00  0.00     0.098 A 
HETATM    6  N1  UNL     1      26.387   3.914  50.388  1.00  0.00    -0.380 N 
HETATM    7  C13 UNL     1      23.175   5.669  50.692  1.00  0.00     0.034 A 
HETATM    8  C14 UNL     1      21.984   5.385  51.155  1.00  0.00     0.108 A 
HETATM    9  N2  UNL     1      21.721   4.090  51.731  1.00  0.00    -0.305 N 
HETATM   10  N3  UNL     1      22.677   3.047  51.847  1.00  0.00    -0.256 N 
HETATM   11  H15 UNL     1      27.370   3.999  50.053  1.00  0.00     0.160 HD
HETATM   12  H18 UNL     1      20.734   3.940  52.081  1.00  0.00     0.186 HD
ENDROOT
BRANCH   1  13
HETATM   13  C7  UNL     1      27.166   2.323  52.046  1.00  0.00    -0.077 C 
HETATM   14  C6  UNL     1      27.906   2.100  52.962  1.00  0.00    -0.102 C 
BRANCH  14  15
HETATM   15  C5  UNL     1      28.817   1.802  54.091  1.00  0.00     0.120 C 
BRANCH  15  16
HETATM   16  C4  UNL     1      29.325   0.389  53.873  1.00  0.00     0.179 C 
BRANCH  16  17
HETATM   17  O1  UNL     1      28.372  -0.582  54.078  1.00  0.00    -0.390 OA
BRANCH  17  18
HETATM   18  C3  UNL     1      28.301  -1.556  53.112  1.00  0.00     0.167 C 
BRANCH  18  19
HETATM   19  C2  UNL     1      26.888  -1.643  52.523  1.00  0.00     0.022 C 
HETATM   20  C1  UNL     1      25.931  -0.925  53.451  1.00  0.00     0.007 C 
ENDBRANCH  18  19
ENDBRANCH  17  18
ENDBRANCH  16  17
ENDBRANCH  15  16
ENDBRANCH  14  15
ENDBRANCH   1  13
BRANCH  10  21
HETATM   21  C15 UNL     1      22.219   1.848  52.438  1.00  0.00     0.058 A 
HETATM   22  C16 UNL     1      20.973   1.460  51.928  1.00  0.00     0.034 A 
HETATM   23  C17 UNL     1      20.294   0.320  52.360  1.00  0.00     0.046 A 
HETATM   24  C18 UNL     1      20.846  -0.466  53.320  1.00  0.00     0.138 A 
HETATM   25  F1  UNL     1      20.309  -1.596  53.836  1.00  0.00    -0.204 F 
HETATM   26  C19 UNL     1      22.071  -0.099  53.834  1.00  0.00     0.074 A 
HETATM   27 CL1  UNL     1      22.882  -1.035  55.076  1.00  0.00    -0.081 Cl
HETATM   28  C20 UNL     1      22.742   1.025  53.409  1.00  0.00     0.058 A 
ENDBRANCH  10  21
TORSDOF 7
ENDMDL
MODEL 4
REMARK VINA RESULT:      -7.2      3.949      7.200
REMARK  7 active torsions:
REMARK  status: ('A' for Active; 'I' for Inactive)
REMARK    1  A    between atoms: C2_2  and  C3_3 
REMARK    2  A    between atoms: C3_3  and  O1_4 
REMARK    3  A    between atoms: O1_4  and  C4_5 
REMARK    4  A    between atoms: C4_5  and  C5_6 
REMARK    5  A    between atoms: C5_6  and  C6_7 
REMARK    6  A    between atoms: C7_8  and  C8_9 
REMARK    7  A    between atoms: N3_18  and  C15_19 
ROOT
HETATM    1  C8  UNL     1      25.774   3.253  50.314  1.00  0.00     0.186 A 
HETATM    2  C9  UNL     1      24.343   3.253  50.700  1.00  0.00     0.043 A 
HETATM    3  C10 UNL     1      23.618   4.353  50.777  1.00  0.00     0.067 A 
HETATM    4  C11 UNL     1      24.157   5.671  50.489  1.00  0.00     0.009 A 
HETATM    5  C12 UNL     1      25.422   5.813  50.132  1.00  0.00     0.098 A 
HETATM    6  N1  UNL     1      26.167   4.622  50.060  1.00  0.00    -0.380 N 
HETATM    7  C13 UNL     1      23.274   6.823  50.590  1.00  0.00     0.034 A 
HETATM    8  C14 UNL     1      22.021   6.668  50.935  1.00  0.00     0.108 A 
HETATM    9  N2  UNL     1      21.505   5.352  51.218  1.00  0.00    -0.305 N 
HETATM   10  N3  UNL     1      22.265   4.154  51.155  1.00  0.00    -0.256 N 
HETATM   11  H15 UNL     1      27.173   4.597  49.791  1.00  0.00     0.160 HD
HETATM   12  H18 UNL     1      20.484   5.313  51.489  1.00  0.00     0.186 HD
ENDROOT
BRANCH   1  13
HETATM   13  C7  UNL     1      26.546   2.624  51.383  1.00  0.00    -0.077 C 
HETATM   14  C6  UNL     1      27.176   2.121  52.269  1.00  0.00    -0.102 C 
BRANCH  14  15
HETATM   15  C5  UNL     1      27.940   1.508  53.379  1.00  0.00     0.120 C 
BRANCH  15  16
HETATM   16  C4  UNL     1      27.854   0.005  53.183  1.00  0.00     0.179 C 
BRANCH  16  17
HETATM   17  O1  UNL     1      27.306  -0.664  54.253  1.00  0.00    -0.390 OA
BRANCH  17  18
HETATM   18  C3  UNL     1      26.228  -0.052  54.845  1.00  0.00     0.167 C 
BRANCH  18  19
HETATM   19  C2  UNL     1      24.919  -0.749  54.456  1.00  0.00     0.022 C 
HETATM   20  C1  UNL     1      24.280   0.018  53.318  1.00  0.00     0.007 C 
ENDBRANCH  18  19
ENDBRANCH  17  18
ENDBRANCH  16  17
ENDBRANCH  15  16
ENDBRANCH  14  15
ENDBRANCH   1  13
BRANCH  10  21
HETATM   21  C15 UNL     1      21.572   2.962  51.465  1.00  0.00     0.058 A 
HETATM   22  C16 UNL     1      20.835   2.490  50.372  1.00  0.00     0.034 A 
HETATM   23  C17 UNL     1      20.048   1.339  50.424  1.00  0.00     0.046 A 
HETATM   24  C18 UNL     1      19.976   0.626  51.577  1.00  0.00     0.138 A 
HETATM   25  F1  UNL     1      19.259  -0.504  51.777  1.00  0.00    -0.204 F 
HETATM   26  C19 UNL     1      20.694   1.078  52.664  1.00  0.00     0.074 A 
HETATM   27 CL1  UNL     1      20.680   0.242  54.205  1.00  0.00    -0.081 Cl
HETATM   28  C20 UNL     1      21.471   2.213  52.614  1.00  0.00     0.058 A 
ENDBRANCH  10  21
TORSDOF 7
ENDMDL
MODEL 5
REMARK VINA RESULT:      -7.2      1.479      1.796
REMARK  7 active torsions:
REMARK  status: ('A' for Active; 'I' for Inactive)
REMARK    1  A    between atoms: C2_2  and  C3_3 
REMARK    2  A    between atoms: C3_3  and  O1_4 
REMARK    3  A    between atoms: O1_4  and  C4_5 
REMARK    4  A    between atoms: C4_5  and  C5_6 
REMARK    5  A    between atoms: C5_6  and  C6_7 
REMARK    6  A    between atoms: C7_8  and  C8_9 
REMARK    7  A    between atoms: N3_18  and  C15_19 
ROOT
HETATM    1  C8  UNL     1      22.851   2.151  49.733  1.00  0.00     0.186 A 
HETATM    2  C9  UNL     1      23.547   1.571  50.906  1.00  0.00     0.043 A 
HETATM    3  C10 UNL     1      22.910   1.076  51.950  1.00  0.00     0.067 A 
HETATM    4  C11 UNL     1      21.460   1.051  52.046  1.00  0.00     0.009 A 
HETATM    5  C12 UNL     1      20.716   1.538  51.068  1.00  0.00     0.098 A 
HETATM    6  N1  UNL     1      21.426   2.058  49.971  1.00  0.00    -0.380 N 
HETATM    7  C13 UNL     1      20.850   0.472  53.233  1.00  0.00     0.034 A 
HETATM    8  C14 UNL     1      21.597  -0.015  54.191  1.00  0.00     0.108 A 
HETATM    9  N2  UNL     1      23.034   0.019  54.077  1.00  0.00    -0.305 N 
HETATM   10  N3  UNL     1      23.745   0.557  52.972  1.00  0.00    -0.256 N 
HETATM   11  H15 UNL     1      20.959   2.471  49.135  1.00  0.00     0.160 HD
HETATM   12  H18 UNL     1      23.564  -0.394  54.893  1.00  0.00     0.186 HD
ENDROOT
BRANCH   1  13
HETATM   13  C7  UNL     1      23.313   3.524  49.548  1.00  0.00    -0.077 C 
HETATM   14  C6  UNL     1      23.681   4.653  49.386  1.00  0.00    -0.102 C 
BRANCH  14  15
HETATM   15  C5  UNL     1      24.114   6.054  49.184  1.00  0.00     0.120 C 
BRANCH  15  16
HETATM   16  C4  UNL     1      25.317   6.268  50.084  1.00  0.00     0.179 C 
BRANCH  16  17
HETATM   17  O1  UNL     1      26.240   7.155  49.579  1.00  0.00    -0.390 OA
BRANCH  17  18
HETATM   18  C3  UNL     1      26.859   6.766  48.416  1.00  0.00     0.167 C 
BRANCH  18  19
HETATM   19  C2  UNL     1      27.531   5.398  48.582  1.00  0.00     0.022 C 
HETATM   20  C1  UNL     1      28.992   5.526  48.208  1.00  0.00     0.007 C 
ENDBRANCH  18  19
ENDBRANCH  17  18
ENDBRANCH  16  17
ENDBRANCH  15  16
ENDBRANCH  14  15
ENDBRANCH   1  13
BRANCH  10  21
HETATM   21  C15 UNL     1      25.155   0.491  53.050  1.00  0.00     0.058 A 
HETATM   22  C16 UNL     1      25.625  -0.817  52.872  1.00  0.00     0.034 A 
HETATM   23  C17 UNL     1      26.977  -1.154  52.923  1.00  0.00     0.046 A 
HETATM   24  C18 UNL     1      27.902  -0.187  53.155  1.00  0.00     0.138 A 
HETATM   25  F1  UNL     1      29.242  -0.361  53.230  1.00  0.00    -0.204 F 
HETATM   26  C19 UNL     1      27.457   1.106  53.333  1.00  0.00     0.074 A 
HETATM   27 CL1  UNL     1      28.556   2.438  53.638  1.00  0.00    -0.081 Cl
HETATM   28  C20 UNL     1      26.123   1.440  53.284  1.00  0.00     0.058 A 
ENDBRANCH  10  21
TORSDOF 7
ENDMDL
MODEL 6
REMARK VINA RESULT:      -6.9      1.615      2.025
REMARK  7 active torsions:
REMARK  status: ('A' for Active; 'I' for Inactive)
REMARK    1  A    between atoms: C2_2  and  C3_3 
REMARK    2  A    between atoms: C3_3  and  O1_4 
REMARK    3  A    between atoms: O1_4  and  C4_5 
REMARK    4  A    between atoms: C4_5  and  C5_6 
REMARK    5  A    between atoms: C5_6  and  C6_7 
REMARK    6  A    between atoms: C7_8  and  C8_9 
REMARK    7  A    between atoms: N3_18  and  C15_19 
ROOT
HETATM    1  C8  UNL     1      22.047   1.418  50.323  1.00  0.00     0.186 A 
HETATM    2  C9  UNL     1      22.955   0.981  51.411  1.00  0.00     0.043 A 
HETATM    3  C10 UNL     1      22.536   0.342  52.487  1.00  0.00     0.067 A 
HETATM    4  C11 UNL     1      21.140   0.002  52.705  1.00  0.00     0.009 A 
HETATM    5  C12 UNL     1      20.224   0.333  51.811  1.00  0.00     0.098 A 
HETATM    6  N1  UNL     1      20.703   1.014  50.678  1.00  0.00    -0.380 N 
HETATM    7  C13 UNL     1      20.778  -0.716  53.916  1.00  0.00     0.034 A 
HETATM    8  C14 UNL     1      21.696  -1.046  54.789  1.00  0.00     0.108 A 
HETATM    9  N2  UNL     1      23.076  -0.699  54.556  1.00  0.00    -0.305 N 
HETATM   10  N3  UNL     1      23.552  -0.001  53.415  1.00  0.00    -0.256 N 
HETATM   11  H15 UNL     1      20.084   1.330  49.901  1.00  0.00     0.160 HD
HETATM   12  H18 UNL     1      23.754  -1.002  55.308  1.00  0.00     0.186 HD
ENDROOT
BRANCH   1  13
HETATM   13  C7  UNL     1      22.185   2.861  50.151  1.00  0.00    -0.077 C 
HETATM   14  C6  UNL     1      22.284   4.048  50.014  1.00  0.00    -0.102 C 
BRANCH  14  15
HETATM   15  C5  UNL     1      22.394   5.516  49.864  1.00  0.00     0.120 C 
BRANCH  15  16
HETATM   16  C4  UNL     1      23.554   5.767  48.917  1.00  0.00     0.179 C 
BRANCH  16  17
HETATM   17  O1  UNL     1      24.685   5.044  49.219  1.00  0.00    -0.390 OA
BRANCH  17  18
HETATM   18  C3  UNL     1      25.736   5.772  49.721  1.00  0.00     0.167 C 
BRANCH  18  19
HETATM   19  C2  UNL     1      26.779   6.052  48.632  1.00  0.00     0.022 C 
HETATM   20  C1  UNL     1      27.757   4.897  48.589  1.00  0.00     0.007 C 
ENDBRANCH  18  19
ENDBRANCH  17  18
ENDBRANCH  16  17
ENDBRANCH  15  16
ENDBRANCH  14  15
ENDBRANCH   1  13
BRANCH  10  21
HETATM   21  C15 UNL     1      24.944   0.239  53.370  1.00  0.00     0.058 A 
HETATM   22  C16 UNL     1      25.239   1.607  53.419  1.00  0.00     0.034 A 
HETATM   23  C17 UNL     1      26.539   2.109  53.372  1.00  0.00     0.046 A 
HETATM   24  C18 UNL     1      27.587   1.251  53.272  1.00  0.00     0.138 A 
HETATM   25  F1  UNL     1      28.896   1.588  53.217  1.00  0.00    -0.204 F 
HETATM   26  C19 UNL     1      27.315  -0.100  53.222  1.00  0.00     0.074 A 
HETATM   27 CL1  UNL     1      28.585  -1.303  53.095  1.00  0.00    -0.081 Cl
HETATM   28  C20 UNL     1      26.033  -0.597  53.269  1.00  0.00     0.058 A 
ENDBRANCH  10  21
TORSDOF 7
ENDMDL
MODEL 7
REMARK VINA RESULT:      -6.9      4.047      5.883
REMARK  7 active torsions:
REMARK  status: ('A' for Active; 'I' for Inactive)
REMARK    1  A    between atoms: C2_2  and  C3_3 
REMARK    2  A    between atoms: C3_3  and  O1_4 
REMARK    3  A    between atoms: O1_4  and  C4_5 
REMARK    4  A    between atoms: C4_5  and  C5_6 
REMARK    5  A    between atoms: C5_6  and  C6_7 
REMARK    6  A    between atoms: C7_8  and  C8_9 
REMARK    7  A    between atoms: N3_18  and  C15_19 
ROOT
HETATM    1  C8  UNL     1      24.409   3.614  51.239  1.00  0.00     0.186 A 
HETATM    2  C9  UNL     1      23.939   2.322  51.795  1.00  0.00     0.043 A 
HETATM    3  C10 UNL     1      24.757   1.343  52.133  1.00  0.00     0.067 A 
HETATM    4  C11 UNL     1      26.200   1.441  51.992  1.00  0.00     0.009 A 
HETATM    5  C12 UNL     1      26.751   2.541  51.509  1.00  0.00     0.098 A 
HETATM    6  N1  UNL     1      25.853   3.564  51.158  1.00  0.00    -0.380 N 
HETATM    7  C13 UNL     1      27.018   0.312  52.405  1.00  0.00     0.034 A 
HETATM    8  C14 UNL     1      26.460  -0.768  52.891  1.00  0.00     0.108 A 
HETATM    9  N2  UNL     1      25.026  -0.846  53.021  1.00  0.00    -0.305 N 
HETATM   10  N3  UNL     1      24.123   0.186  52.655  1.00  0.00    -0.256 N 
HETATM   11  H15 UNL     1      26.159   4.480  50.766  1.00  0.00     0.160 HD
HETATM   12  H18 UNL     1      24.656  -1.751  53.423  1.00  0.00     0.186 HD
ENDROOT
BRANCH   1  13
HETATM   13  C7  UNL     1      23.768   3.825  49.944  1.00  0.00    -0.077 C 
HETATM   14  C6  UNL     1      23.251   4.011  48.879  1.00  0.00    -0.102 C 
BRANCH  14  15
HETATM   15  C5  UNL     1      22.631   4.250  47.556  1.00  0.00     0.120 C 
BRANCH  15  16
HETATM   16  C4  UNL     1      21.220   3.695  47.635  1.00  0.00     0.179 C 
BRANCH  16  17
HETATM   17  O1  UNL     1      21.162   2.378  48.027  1.00  0.00    -0.390 OA
BRANCH  17  18
HETATM   18  C3  UNL     1      20.274   2.099  49.038  1.00  0.00     0.167 C 
BRANCH  18  19
HETATM   19  C2  UNL     1      19.739   3.390  49.670  1.00  0.00     0.022 C 
HETATM   20  C1  UNL     1      20.110   3.400  51.138  1.00  0.00     0.007 C 
ENDBRANCH  18  19
ENDBRANCH  17  18
ENDBRANCH  16  17
ENDBRANCH  15  16
ENDBRANCH  14  15
ENDBRANCH   1  13
BRANCH  10  21
HETATM   21  C15 UNL     1      22.753  -0.085  52.867  1.00  0.00     0.058 A 
HETATM   22  C16 UNL     1      22.524  -0.655  54.125  1.00  0.00     0.034 A 
HETATM   23  C17 UNL     1      21.257  -1.033  54.571  1.00  0.00     0.046 A 
HETATM   24  C18 UNL     1      20.179  -0.851  53.766  1.00  0.00     0.138 A 
HETATM   25  F1  UNL     1      18.897  -1.166  54.061  1.00  0.00    -0.204 F 
HETATM   26  C19 UNL     1      20.387  -0.291  52.523  1.00  0.00     0.074 A 
HETATM   27 CL1  UNL     1      19.073  -0.006  51.397  1.00  0.00    -0.081 Cl
HETATM   28  C20 UNL     1      21.635   0.082  52.081  1.00  0.00     0.058 A 
ENDBRANCH  10  21
TORSDOF 7
ENDMDL
MODEL 8
REMARK VINA RESULT:      -6.8      2.138      3.061
REMARK  7 active torsions:
REMARK  status: ('A' for Active; 'I' for Inactive)
REMARK    1  A    between atoms: C2_2  and  C3_3 
REMARK    2  A    between atoms: C3_3  and  O1_4 
REMARK    3  A    between atoms: O1_4  and  C4_5 
REMARK    4  A    between atoms: C4_5  and  C5_6 
REMARK    5  A    between atoms: C5_6  and  C6_7 
REMARK    6  A    between atoms: C7_8  and  C8_9 
REMARK    7  A    between atoms: N3_18  and  C15_19 
ROOT
HETATM    1  C8  UNL     1      21.833   1.229  49.468  1.00  0.00     0.186 A 
HETATM    2  C9  UNL     1      22.565   0.973  50.731  1.00  0.00     0.043 A 
HETATM    3  C10 UNL     1      21.960   0.692  51.870  1.00  0.00     0.067 A 
HETATM    4  C11 UNL     1      20.515   0.605  51.991  1.00  0.00     0.009 A 
HETATM    5  C12 UNL     1      19.742   0.811  50.939  1.00  0.00     0.098 A 
HETATM    6  N1  UNL     1      20.417   1.109  49.742  1.00  0.00    -0.380 N 
HETATM    7  C13 UNL     1      19.943   0.276  53.287  1.00  0.00     0.034 A 
HETATM    8  C14 UNL     1      20.720   0.064  54.320  1.00  0.00     0.108 A 
HETATM    9  N2  UNL     1      22.152   0.157  54.179  1.00  0.00    -0.305 N 
HETATM   10  N3  UNL     1      22.827   0.470  52.970  1.00  0.00    -0.256 N 
HETATM   11  H15 UNL     1      19.924   1.292  48.842  1.00  0.00     0.160 HD
HETATM   12  H18 UNL     1      22.708  -0.029  55.060  1.00  0.00     0.186 HD
ENDROOT
BRANCH   1  13
HETATM   13  C7  UNL     1      22.210   2.549  48.969  1.00  0.00    -0.077 C 
HETATM   14  C6  UNL     1      22.522   3.626  48.546  1.00  0.00    -0.102 C 
BRANCH  14  15
HETATM   15  C5  UNL     1      22.896   4.952  48.003  1.00  0.00     0.120 C 
BRANCH  15  16
HETATM   16  C4  UNL     1      23.844   5.578  49.010  1.00  0.00     0.179 C 
BRANCH  16  17
HETATM   17  O1  UNL     1      23.230   6.438  49.891  1.00  0.00    -0.390 OA
BRANCH  17  18
HETATM   18  C3  UNL     1      23.667   6.366  51.191  1.00  0.00     0.167 C 
BRANCH  18  19
HETATM   19  C2  UNL     1      23.664   4.917  51.693  1.00  0.00     0.022 C 
HETATM   20  C1  UNL     1      22.286   4.592  52.227  1.00  0.00     0.007 C 
ENDBRANCH  18  19
ENDBRANCH  17  18
ENDBRANCH  16  17
ENDBRANCH  15  16
ENDBRANCH  14  15
ENDBRANCH   1  13
BRANCH  10  21
HETATM   21  C15 UNL     1      24.238   0.506  53.040  1.00  0.00     0.058 A 
HETATM   22  C16 UNL     1      24.717   1.810  53.224  1.00  0.00     0.034 A 
HETATM   23  C17 UNL     1      26.075   2.119  53.307  1.00  0.00     0.046 A 
HETATM   24  C18 UNL     1      26.996   1.127  53.205  1.00  0.00     0.138 A 
HETATM   25  F1  UNL     1      28.340   1.273  53.266  1.00  0.00    -0.204 F 
HETATM   26  C19 UNL     1      26.543  -0.162  53.022  1.00  0.00     0.074 A 
HETATM   27 CL1  UNL     1      27.638  -1.525  52.877  1.00  0.00    -0.081 Cl
HETATM   28  C20 UNL     1      25.204  -0.469  52.940  1.00  0.00     0.058 A 
ENDBRANCH  10  21
TORSDOF 7
ENDMDL
MODEL 9
REMARK VINA RESULT:      -6.7      3.037      5.373
REMARK  7 active torsions:
REMARK  status: ('A' for Active; 'I' for Inactive)
REMARK    1  A    between atoms: C2_2  and  C3_3 
REMARK    2  A    between atoms: C3_3  and  O1_4 
REMARK    3  A    between atoms: O1_4  and  C4_5 
REMARK    4  A    between atoms: C4_5  and  C5_6 
REMARK    5  A    between atoms: C5_6  and  C6_7 
REMARK    6  A    between atoms: C7_8  and  C8_9 
REMARK    7  A    between atoms: N3_18  and  C15_19 
ROOT
HETATM    1  C8  UNL     1      22.573   5.029  52.054  1.00  0.00     0.186 A 
HETATM    2  C9  UNL     1      23.668   4.030  52.031  1.00  0.00     0.043 A 
HETATM    3  C10 UNL     1      24.644   4.051  51.143  1.00  0.00     0.067 A 
HETATM    4  C11 UNL     1      24.738   5.061  50.103  1.00  0.00     0.009 A 
HETATM    5  C12 UNL     1      23.825   6.013  50.010  1.00  0.00     0.098 A 
HETATM    6  N1  UNL     1      22.798   5.961  50.970  1.00  0.00    -0.380 N 
HETATM    7  C13 UNL     1      25.859   5.008  49.178  1.00  0.00     0.034 A 
HETATM    8  C14 UNL     1      26.762   4.066  49.286  1.00  0.00     0.108 A 
HETATM    9  N2  UNL     1      26.651   3.072  50.325  1.00  0.00    -0.305 N 
HETATM   10  N3  UNL     1      25.606   3.018  51.285  1.00  0.00    -0.256 N 
HETATM   11  H15 UNL     1      22.019   6.652  51.006  1.00  0.00     0.160 HD
HETATM   12  H18 UNL     1      27.421   2.348  50.345  1.00  0.00     0.186 HD
ENDROOT
BRANCH   1  13
HETATM   13  C7  UNL     1      21.298   4.326  51.950  1.00  0.00    -0.077 C 
HETATM   14  C6  UNL     1      20.244   3.762  51.864  1.00  0.00    -0.102 C 
BRANCH  14  15
HETATM   15  C5  UNL     1      18.934   3.082  51.742  1.00  0.00     0.120 C 
BRANCH  15  16
HETATM   16  C4  UNL     1      19.219   1.591  51.773  1.00  0.00     0.179 C 
BRANCH  16  17
HETATM   17  O1  UNL     1      20.161   1.186  50.856  1.00  0.00    -0.390 OA
BRANCH  17  18
HETATM   18  C3  UNL     1      19.771   1.247  49.540  1.00  0.00     0.167 C 
BRANCH  18  19
HETATM   19  C2  UNL     1      20.946   1.635  48.636  1.00  0.00     0.022 C 
HETATM   20  C1  UNL     1      22.205   1.691  49.474  1.00  0.00     0.007 C 
ENDBRANCH  18  19
ENDBRANCH  17  18
ENDBRANCH  16  17
ENDBRANCH  15  16
ENDBRANCH  14  15
ENDBRANCH   1  13
BRANCH  10  21
HETATM   21  C15 UNL     1      25.681   1.967  52.225  1.00  0.00     0.058 A 
HETATM   22  C16 UNL     1      24.519   1.185  52.226  1.00  0.00     0.034 A 
HETATM   23  C17 UNL     1      24.334   0.095  53.077  1.00  0.00     0.046 A 
HETATM   24  C18 UNL     1      25.312  -0.244  53.956  1.00  0.00     0.138 A 
HETATM   25  F1  UNL     1      25.276  -1.270  54.837  1.00  0.00    -0.204 F 
HETATM   26  C19 UNL     1      26.463   0.515  53.969  1.00  0.00     0.074 A 
HETATM   27 CL1  UNL     1      27.794   0.173  55.059  1.00  0.00    -0.081 Cl
HETATM   28  C20 UNL     1      26.646   1.591  53.131  1.00  0.00     0.058 A 
ENDBRANCH  10  21
TORSDOF 7
ENDMDL
