MODEL 1
REMARK VINA RESULT:      -7.8      0.000      0.000
REMARK  2 active torsions:
REMARK  status: ('A' for Active; 'I' for Inactive)
REMARK    1  A    between atoms: N2_5  and  N3_6 
REMARK    2  A    between atoms: N3_6  and  C4_7 
ROOT
HETATM    1  N1  UNL     1      26.567  -1.225  53.493  1.00  0.00    -0.192 NA
HETATM    2  C1  UNL     1      25.611  -0.565  53.224  1.00  0.00     0.097 C 
HETATM    3  C2  UNL     1      24.445   0.261  52.873  1.00  0.00     0.048 C 
HETATM    4  C3  UNL     1      24.719   1.188  51.916  1.00  0.00     0.135 C 
HETATM    5  N2  UNL     1      24.117   2.226  51.172  1.00  0.00    -0.269 N 
HETATM    6  C6  UNL     1      22.972   2.619  50.448  1.00  0.00     0.083 A 
HETATM    7  C7  UNL     1      23.128   2.256  49.105  1.00  0.00     0.035 A 
HETATM    8  C8  UNL     1      22.246   2.429  48.024  1.00  0.00     0.021 A 
HETATM    9  C9  UNL     1      21.079   3.053  48.399  1.00  0.00     0.013 A 
HETATM   10 BR1  UNL     1      19.848   3.308  46.966  1.00  0.00    -0.051 Br
HETATM   11  C10 UNL     1      20.885   3.435  49.735  1.00  0.00     0.052 A 
HETATM   12  C11 UNL     1      21.785   3.240  50.762  1.00  0.00     0.072 A 
HETATM   13  N4  UNL     1      21.132   3.810  51.923  1.00  0.00    -0.319 N 
HETATM   14  N5  UNL     1      20.518   2.979  52.922  1.00  0.00    -0.237 NA
HETATM   15  C12 UNL     1      20.659   1.599  52.496  1.00  0.00     0.137 C 
HETATM   16  C13 UNL     1      20.157   0.718  53.554  1.00  0.00    -0.011 C 
HETATM   17  C14 UNL     1      20.812  -0.173  54.278  1.00  0.00    -0.006 C 
HETATM   18  C15 UNL     1      22.262  -0.471  54.175  1.00  0.00    -0.016 C 
HETATM   19  C16 UNL     1      23.525  -0.448  53.808  1.00  0.00     0.066 C 
HETATM   20  H9  UNL     1      21.192   4.847  51.870  1.00  0.00     0.181 HD
HETATM   21  H10 UNL     1      19.474   3.177  52.891  1.00  0.00     0.146 HD
ENDROOT
BRANCH   5  22
HETATM   22  N3  UNL     1      24.774   3.400  50.937  1.00  0.00    -0.327 N 
HETATM   23  H2  UNL     1      24.288   4.130  50.394  1.00  0.00     0.180 HD
BRANCH  22  24
HETATM   24  C4  UNL     1      26.171   3.315  50.766  1.00  0.00     0.176 C 
HETATM   25  C5  UNL     1      26.665   4.079  49.577  1.00  0.00     0.412 C 
HETATM   26  O1  UNL     1      27.188   4.660  48.641  1.00  0.00    -0.428 OA
ENDBRANCH  22  24
ENDBRANCH   5  22
TORSDOF 2
ENDMDL
MODEL 2
REMARK VINA RESULT:      -7.7      3.162      4.943
REMARK  2 active torsions:
REMARK  status: ('A' for Active; 'I' for Inactive)
REMARK    1  A    between atoms: N2_5  and  N3_6 
REMARK    2  A    between atoms: N3_6  and  C4_7 
ROOT
HETATM    1  N1  UNL     1      21.955  -1.919  54.960  1.00  0.00    -0.192 NA
HETATM    2  C1  UNL     1      22.637  -1.140  54.369  1.00  0.00     0.097 C 
HETATM    3  C2  UNL     1      23.458  -0.171  53.627  1.00  0.00     0.048 C 
HETATM    4  C3  UNL     1      22.756   0.503  52.676  1.00  0.00     0.135 C 
HETATM    5  N2  UNL     1      22.903   1.491  51.679  1.00  0.00    -0.269 N 
HETATM    6  C6  UNL     1      23.471   2.743  51.364  1.00  0.00     0.083 A 
HETATM    7  C7  UNL     1      22.570   3.758  51.706  1.00  0.00     0.035 A 
HETATM    8  C8  UNL     1      22.706   5.153  51.589  1.00  0.00     0.021 A 
HETATM    9  C9  UNL     1      23.920   5.513  51.054  1.00  0.00     0.013 A 
HETATM   10 BR1  UNL     1      24.155   7.397  50.878  1.00  0.00    -0.051 Br
HETATM   11  C10 UNL     1      24.851   4.527  50.695  1.00  0.00     0.052 A 
HETATM   12  C11 UNL     1      24.667   3.167  50.832  1.00  0.00     0.072 A 
HETATM   13  N4  UNL     1      25.892   2.587  50.317  1.00  0.00    -0.319 N 
HETATM   14  N5  UNL     1      26.905   2.072  51.196  1.00  0.00    -0.237 NA
HETATM   15  C12 UNL     1      26.463   2.298  52.560  1.00  0.00     0.137 C 
HETATM   16  C13 UNL     1      27.414   1.670  53.481  1.00  0.00    -0.011 C 
HETATM   17  C14 UNL     1      27.221   0.673  54.328  1.00  0.00    -0.006 C 
HETATM   18  C15 UNL     1      25.945  -0.059  54.521  1.00  0.00    -0.016 C 
HETATM   19  C16 UNL     1      24.697  -0.458  54.405  1.00  0.00     0.066 C 
HETATM   20  H9  UNL     1      25.878   2.633  49.278  1.00  0.00     0.181 HD
HETATM   21  H10 UNL     1      27.764   2.686  51.073  1.00  0.00     0.146 HD
ENDROOT
BRANCH   5  22
HETATM   22  N3  UNL     1      22.303   1.361  50.459  1.00  0.00    -0.327 N 
HETATM   23  H2  UNL     1      22.345   2.159  49.807  1.00  0.00     0.180 HD
BRANCH  22  24
HETATM   24  C4  UNL     1      21.132   0.576  50.416  1.00  0.00     0.176 C 
HETATM   25  C5  UNL     1      19.952   1.312  49.863  1.00  0.00     0.412 C 
HETATM   26  O1  UNL     1      18.921   1.800  49.432  1.00  0.00    -0.428 OA
ENDBRANCH  22  24
ENDBRANCH   5  22
TORSDOF 2
ENDMDL
MODEL 3
REMARK VINA RESULT:      -7.2      3.900      6.926
REMARK  2 active torsions:
REMARK  status: ('A' for Active; 'I' for Inactive)
REMARK    1  A    between atoms: N2_5  and  N3_6 
REMARK    2  A    between atoms: N3_6  and  C4_7 
ROOT
HETATM    1  N1  UNL     1      20.469   3.798  46.074  1.00  0.00    -0.192 NA
HETATM    2  C1  UNL     1      21.108   4.012  47.057  1.00  0.00     0.097 C 
HETATM    3  C2  UNL     1      21.885   4.258  48.282  1.00  0.00     0.048 C 
HETATM    4  C3  UNL     1      21.556   3.416  49.299  1.00  0.00     0.135 C 
HETATM    5  N2  UNL     1      21.876   3.117  50.640  1.00  0.00    -0.269 N 
HETATM    6  C6  UNL     1      22.921   2.950  51.573  1.00  0.00     0.083 A 
HETATM    7  C7  UNL     1      23.331   1.611  51.572  1.00  0.00     0.035 A 
HETATM    8  C8  UNL     1      24.342   0.985  52.320  1.00  0.00     0.021 A 
HETATM    9  C9  UNL     1      24.988   1.863  53.159  1.00  0.00     0.013 A 
HETATM   10 BR1  UNL     1      26.374   1.061  54.194  1.00  0.00    -0.051 Br
HETATM   11  C10 UNL     1      24.607   3.213  53.191  1.00  0.00     0.052 A 
HETATM   12  C11 UNL     1      23.604   3.779  52.433  1.00  0.00     0.072 A 
HETATM   13  N4  UNL     1      23.595   5.171  52.835  1.00  0.00    -0.319 N 
HETATM   14  N5  UNL     1      24.168   6.195  52.004  1.00  0.00    -0.237 NA
HETATM   15  C12 UNL     1      24.730   5.550  50.832  1.00  0.00     0.137 C 
HETATM   16  C13 UNL     1      25.209   6.578  49.904  1.00  0.00    -0.011 C 
HETATM   17  C14 UNL     1      24.789   6.859  48.683  1.00  0.00    -0.006 C 
HETATM   18  C15 UNL     1      23.686   6.170  47.969  1.00  0.00    -0.016 C 
HETATM   19  C16 UNL     1      22.693   5.358  47.680  1.00  0.00     0.066 C 
HETATM   20  H9  UNL     1      23.138   5.253  53.765  1.00  0.00     0.181 HD
HETATM   21  H10 UNL     1      24.999   6.594  52.532  1.00  0.00     0.146 HD
ENDROOT
BRANCH   5  22
HETATM   22  N3  UNL     1      20.901   2.825  51.552  1.00  0.00    -0.327 N 
HETATM   23  H2  UNL     1      21.184   2.400  52.448  1.00  0.00     0.180 HD
BRANCH  22  24
HETATM   24  C4  UNL     1      19.655   2.422  51.030  1.00  0.00     0.176 C 
HETATM   25  C5  UNL     1      18.506   3.206  51.583  1.00  0.00     0.412 C 
HETATM   26  O1  UNL     1      17.491   3.771  51.957  1.00  0.00    -0.428 OA
ENDBRANCH  22  24
ENDBRANCH   5  22
TORSDOF 2
ENDMDL
MODEL 4
REMARK VINA RESULT:      -7.2      7.416     11.212
REMARK  2 active torsions:
REMARK  status: ('A' for Active; 'I' for Inactive)
REMARK    1  A    between atoms: N2_5  and  N3_6 
REMARK    2  A    between atoms: N3_6  and  C4_7 
ROOT
HETATM    1  N1  UNL     1      33.255   2.311  47.847  1.00  0.00    -0.192 NA
HETATM    2  C1  UNL     1      32.760   3.333  47.484  1.00  0.00     0.097 C 
HETATM    3  C2  UNL     1      32.139   4.597  47.059  1.00  0.00     0.048 C 
HETATM    4  C3  UNL     1      31.330   5.138  48.010  1.00  0.00     0.135 C 
HETATM    5  N2  UNL     1      30.489   6.245  48.253  1.00  0.00    -0.269 N 
HETATM    6  C6  UNL     1      30.342   7.642  48.117  1.00  0.00     0.083 A 
HETATM    7  C7  UNL     1      30.871   8.274  49.249  1.00  0.00     0.035 A 
HETATM    8  C8  UNL     1      30.960   9.644  49.548  1.00  0.00     0.021 A 
HETATM    9  C9  UNL     1      30.435  10.430  48.550  1.00  0.00     0.013 A 
HETATM   10 BR1  UNL     1      30.535  12.300  48.907  1.00  0.00    -0.051 Br
HETATM   11  C10 UNL     1      29.894   9.836  47.399  1.00  0.00     0.052 A 
HETATM   12  C11 UNL     1      29.831   8.480  47.153  1.00  0.00     0.072 A 
HETATM   13  N4  UNL     1      29.185   8.381  45.860  1.00  0.00    -0.319 N 
HETATM   14  N5  UNL     1      29.933   8.095  44.667  1.00  0.00    -0.237 NA
HETATM   15  C12 UNL     1      31.333   7.993  45.038  1.00  0.00     0.137 C 
HETATM   16  C13 UNL     1      32.109   7.576  43.867  1.00  0.00    -0.011 C 
HETATM   17  C14 UNL     1      32.802   6.466  43.679  1.00  0.00    -0.006 C 
HETATM   18  C15 UNL     1      32.936   5.356  44.653  1.00  0.00    -0.016 C 
HETATM   19  C16 UNL     1      32.813   4.609  45.729  1.00  0.00     0.066 C 
HETATM   20  H9  UNL     1      28.166   8.555  45.976  1.00  0.00     0.181 HD
HETATM   21  H10 UNL     1      29.868   8.955  44.047  1.00  0.00     0.146 HD
ENDROOT
BRANCH   5  22
HETATM   22  N3  UNL     1      29.289   6.096  48.889  1.00  0.00    -0.327 N 
HETATM   23  H2  UNL     1      29.295   5.931  49.907  1.00  0.00     0.180 HD
BRANCH  22  24
HETATM   24  C4  UNL     1      28.264   5.464  48.155  1.00  0.00     0.176 C 
HETATM   25  C5  UNL     1      27.391   4.589  49.001  1.00  0.00     0.412 C 
HETATM   26  O1  UNL     1      26.613   3.849  49.578  1.00  0.00    -0.428 OA
ENDBRANCH  22  24
ENDBRANCH   5  22
TORSDOF 2
ENDMDL
MODEL 5
REMARK VINA RESULT:      -6.8      7.296     11.500
REMARK  2 active torsions:
REMARK  status: ('A' for Active; 'I' for Inactive)
REMARK    1  A    between atoms: N2_5  and  N3_6 
REMARK    2  A    between atoms: N3_6  and  C4_7 
ROOT
HETATM    1  N1  UNL     1      24.531   9.850  45.481  1.00  0.00    -0.192 NA
HETATM    2  C1  UNL     1      25.551   9.899  46.096  1.00  0.00     0.097 C 
HETATM    3  C2  UNL     1      26.808   9.935  46.858  1.00  0.00     0.048 C 
HETATM    4  C3  UNL     1      27.153   8.724  47.373  1.00  0.00     0.135 C 
HETATM    5  N2  UNL     1      28.149   8.089  48.146  1.00  0.00    -0.269 N 
HETATM    6  C6  UNL     1      29.535   7.965  48.375  1.00  0.00     0.083 A 
HETATM    7  C7  UNL     1      30.048   6.947  47.562  1.00  0.00     0.035 A 
HETATM    8  C8  UNL     1      31.369   6.482  47.438  1.00  0.00     0.021 A 
HETATM    9  C9  UNL     1      32.239   7.160  48.258  1.00  0.00     0.013 A 
HETATM   10 BR1  UNL     1      34.045   6.567  48.124  1.00  0.00    -0.051 Br
HETATM   11  C10 UNL     1      31.765   8.187  49.090  1.00  0.00     0.052 A 
HETATM   12  C11 UNL     1      30.454   8.607  49.173  1.00  0.00     0.072 A 
HETATM   13  N4  UNL     1      30.480   9.664  50.164  1.00  0.00    -0.319 N 
HETATM   14  N5  UNL     1      30.415  11.049  49.785  1.00  0.00    -0.237 NA
HETATM   15  C12 UNL     1      30.373  11.109  48.336  1.00  0.00     0.137 C 
HETATM   16  C13 UNL     1      30.178  12.500  47.920  1.00  0.00    -0.011 C 
HETATM   17  C14 UNL     1      29.161  13.042  47.273  1.00  0.00    -0.006 C 
HETATM   18  C15 UNL     1      27.943  12.325  46.822  1.00  0.00    -0.016 C 
HETATM   19  C16 UNL     1      27.051  11.384  46.600  1.00  0.00     0.066 C 
HETATM   20  H9  UNL     1      30.557   9.239  51.110  1.00  0.00     0.181 HD
HETATM   21  H10 UNL     1      31.343  11.488  50.058  1.00  0.00     0.146 HD
ENDROOT
BRANCH   5  22
HETATM   22  N3  UNL     1      27.823   7.170  49.103  1.00  0.00    -0.327 N 
HETATM   23  H2  UNL     1      28.585   6.755  49.660  1.00  0.00     0.180 HD
BRANCH  22  24
HETATM   24  C4  UNL     1      26.723   6.333  48.821  1.00  0.00     0.176 C 
HETATM   25  C5  UNL     1      27.028   4.880  49.010  1.00  0.00     0.412 C 
HETATM   26  O1  UNL     1      27.151   3.672  49.127  1.00  0.00    -0.428 OA
ENDBRANCH  22  24
ENDBRANCH   5  22
TORSDOF 2
ENDMDL
MODEL 6
REMARK VINA RESULT:      -6.6      6.469     10.289
REMARK  2 active torsions:
REMARK  status: ('A' for Active; 'I' for Inactive)
REMARK    1  A    between atoms: N2_5  and  N3_6 
REMARK    2  A    between atoms: N3_6  and  C4_7 
ROOT
HETATM    1  N1  UNL     1      23.022   7.423  45.797  1.00  0.00    -0.192 NA
HETATM    2  C1  UNL     1      23.974   7.870  46.357  1.00  0.00     0.097 C 
HETATM    3  C2  UNL     1      25.159   8.397  47.051  1.00  0.00     0.048 C 
HETATM    4  C3  UNL     1      25.970   7.419  47.537  1.00  0.00     0.135 C 
HETATM    5  N2  UNL     1      27.173   7.227  48.250  1.00  0.00    -0.269 N 
HETATM    6  C6  UNL     1      28.510   7.651  48.404  1.00  0.00     0.083 A 
HETATM    7  C7  UNL     1      29.332   6.899  47.556  1.00  0.00     0.035 A 
HETATM    8  C8  UNL     1      30.722   6.977  47.358  1.00  0.00     0.021 A 
HETATM    9  C9  UNL     1      31.304   7.949  48.137  1.00  0.00     0.013 A 
HETATM   10 BR1  UNL     1      33.190   8.097  47.901  1.00  0.00    -0.051 Br
HETATM   11  C10 UNL     1      30.516   8.724  49.001  1.00  0.00     0.052 A 
HETATM   12  C11 UNL     1      29.150   8.607  49.158  1.00  0.00     0.072 A 
HETATM   13  N4  UNL     1      28.819   9.605  50.155  1.00  0.00    -0.319 N 
HETATM   14  N5  UNL     1      28.205  10.853  49.791  1.00  0.00    -0.237 NA
HETATM   15  C12 UNL     1      28.067  10.873  48.347  1.00  0.00     0.137 C 
HETATM   16  C13 UNL     1      27.330  12.077  47.954  1.00  0.00    -0.011 C 
HETATM   17  C14 UNL     1      26.149  12.176  47.366  1.00  0.00    -0.006 C 
HETATM   18  C15 UNL     1      25.281  11.039  46.975  1.00  0.00    -0.016 C 
HETATM   19  C16 UNL     1      24.810   9.825  46.793  1.00  0.00     0.066 C 
HETATM   20  H9  UNL     1      29.103   9.255  51.092  1.00  0.00     0.181 HD
HETATM   21  H10 UNL     1      28.905  11.620  50.018  1.00  0.00     0.146 HD
ENDROOT
BRANCH   5  22
HETATM   22  N3  UNL     1      27.277   6.266  49.215  1.00  0.00    -0.327 N 
HETATM   23  H2  UNL     1      28.154   6.212  49.756  1.00  0.00     0.180 HD
BRANCH  22  24
HETATM   24  C4  UNL     1      26.620   5.045  48.959  1.00  0.00     0.176 C 
HETATM   25  C5  UNL     1      25.639   4.671  50.026  1.00  0.00     0.412 C 
HETATM   26  O1  UNL     1      24.815   4.258  50.825  1.00  0.00    -0.428 OA
ENDBRANCH  22  24
ENDBRANCH   5  22
TORSDOF 2
ENDMDL
MODEL 7
REMARK VINA RESULT:      -6.5      4.545      7.000
REMARK  2 active torsions:
REMARK  status: ('A' for Active; 'I' for Inactive)
REMARK    1  A    between atoms: N2_5  and  N3_6 
REMARK    2  A    between atoms: N3_6  and  C4_7 
ROOT
HETATM    1  N1  UNL     1      26.776   2.495  50.755  1.00  0.00    -0.192 NA
HETATM    2  C1  UNL     1      26.297   3.387  50.126  1.00  0.00     0.097 C 
HETATM    3  C2  UNL     1      25.683   4.481  49.358  1.00  0.00     0.048 C 
HETATM    4  C3  UNL     1      24.323   4.457  49.391  1.00  0.00     0.135 C 
HETATM    5  N2  UNL     1      23.189   5.146  48.913  1.00  0.00    -0.269 N 
HETATM    6  C6  UNL     1      22.612   6.414  48.688  1.00  0.00     0.083 A 
HETATM    7  C7  UNL     1      21.904   6.809  49.830  1.00  0.00     0.035 A 
HETATM    8  C8  UNL     1      21.187   7.993  50.073  1.00  0.00     0.021 A 
HETATM    9  C9  UNL     1      21.218   8.850  48.998  1.00  0.00     0.013 A 
HETATM   10 BR1  UNL     1      20.261  10.474  49.280  1.00  0.00    -0.051 Br
HETATM   11  C10 UNL     1      21.915   8.492  47.834  1.00  0.00     0.052 A 
HETATM   12  C11 UNL     1      22.607   7.313  47.647  1.00  0.00     0.072 A 
HETATM   13  N4  UNL     1      23.131   7.417  46.300  1.00  0.00    -0.319 N 
HETATM   14  N5  UNL     1      24.513   7.728  46.055  1.00  0.00    -0.237 NA
HETATM   15  C12 UNL     1      25.154   7.933  47.340  1.00  0.00     0.137 C 
HETATM   16  C13 UNL     1      26.592   8.126  47.133  1.00  0.00    -0.011 C 
HETATM   17  C14 UNL     1      27.601   7.375  47.539  1.00  0.00    -0.006 C 
HETATM   18  C15 UNL     1      27.482   6.116  48.314  1.00  0.00    -0.016 C 
HETATM   19  C16 UNL     1      26.989   5.082  48.961  1.00  0.00     0.066 C 
HETATM   20  H9  UNL     1      22.362   7.244  45.622  1.00  0.00     0.181 HD
HETATM   21  H10 UNL     1      24.537   8.674  45.574  1.00  0.00     0.146 HD
ENDROOT
BRANCH   5  22
HETATM   22  N3  UNL     1      22.091   4.473  48.458  1.00  0.00    -0.327 N 
HETATM   23  H2  UNL     1      21.255   4.439  49.061  1.00  0.00     0.180 HD
BRANCH  22  24
HETATM   24  C4  UNL     1      22.338   3.335  47.662  1.00  0.00     0.176 C 
HETATM   25  C5  UNL     1      22.089   3.572  46.205  1.00  0.00     0.412 C 
HETATM   26  O1  UNL     1      21.920   3.639  44.999  1.00  0.00    -0.428 OA
ENDBRANCH  22  24
ENDBRANCH   5  22
TORSDOF 2
ENDMDL
MODEL 8
REMARK VINA RESULT:      -6.5      4.069      7.357
REMARK  2 active torsions:
REMARK  status: ('A' for Active; 'I' for Inactive)
REMARK    1  A    between atoms: N2_5  and  N3_6 
REMARK    2  A    between atoms: N3_6  and  C4_7 
ROOT
HETATM    1  N1  UNL     1      21.587   6.517  44.996  1.00  0.00    -0.192 NA
HETATM    2  C1  UNL     1      22.053   6.390  46.086  1.00  0.00     0.097 C 
HETATM    3  C2  UNL     1      22.612   6.216  47.436  1.00  0.00     0.048 C 
HETATM    4  C3  UNL     1      21.905   5.334  48.194  1.00  0.00     0.135 C 
HETATM    5  N2  UNL     1      21.880   4.744  49.476  1.00  0.00    -0.269 N 
HETATM    6  C6  UNL     1      22.655   4.155  50.497  1.00  0.00     0.083 A 
HETATM    7  C7  UNL     1      22.739   2.775  50.276  1.00  0.00     0.035 A 
HETATM    8  C8  UNL     1      23.413   1.790  51.017  1.00  0.00     0.021 A 
HETATM    9  C9  UNL     1      24.067   2.315  52.107  1.00  0.00     0.013 A 
HETATM   10 BR1  UNL     1      25.001   1.018  53.145  1.00  0.00    -0.051 Br
HETATM   11  C10 UNL     1      24.007   3.694  52.365  1.00  0.00     0.052 A 
HETATM   12  C11 UNL     1      23.329   4.621  51.602  1.00  0.00     0.072 A 
HETATM   13  N4  UNL     1      23.561   5.880  52.281  1.00  0.00    -0.319 N 
HETATM   14  N5  UNL     1      24.505   6.841  51.777  1.00  0.00    -0.237 NA
HETATM   15  C12 UNL     1      25.122   6.274  50.592  1.00  0.00     0.137 C 
HETATM   16  C13 UNL     1      25.996   7.279  49.981  1.00  0.00    -0.011 C 
HETATM   17  C14 UNL     1      25.899   7.859  48.797  1.00  0.00    -0.006 C 
HETATM   18  C15 UNL     1      24.829   7.612  47.800  1.00  0.00    -0.016 C 
HETATM   19  C16 UNL     1      23.752   7.149  47.204  1.00  0.00     0.066 C 
HETATM   20  H9  UNL     1      22.962   5.924  53.129  1.00  0.00     0.181 HD
HETATM   21  H10 UNL     1      25.285   6.913  52.494  1.00  0.00     0.146 HD
ENDROOT
BRANCH   5  22
HETATM   22  N3  UNL     1      20.705   4.571  50.151  1.00  0.00    -0.327 N 
HETATM   23  H2  UNL     1      20.723   4.030  51.030  1.00  0.00     0.180 HD
BRANCH  22  24
HETATM   24  C4  UNL     1      19.540   4.454  49.365  1.00  0.00     0.176 C 
HETATM   25  C5  UNL     1      18.933   3.087  49.414  1.00  0.00     0.412 C 
HETATM   26  O1  UNL     1      18.347   2.018  49.371  1.00  0.00    -0.428 OA
ENDBRANCH  22  24
ENDBRANCH   5  22
TORSDOF 2
ENDMDL
MODEL 9
REMARK VINA RESULT:      -6.3      7.895     10.797
REMARK  2 active torsions:
REMARK  status: ('A' for Active; 'I' for Inactive)
REMARK    1  A    between atoms: N2_5  and  N3_6 
REMARK    2  A    between atoms: N3_6  and  C4_7 
ROOT
HETATM    1  N1  UNL     1      27.702   4.348  48.637  1.00  0.00    -0.192 NA
HETATM    2  C1  UNL     1      27.855   5.530  48.595  1.00  0.00     0.097 C 
HETATM    3  C2  UNL     1      28.068   6.984  48.539  1.00  0.00     0.048 C 
HETATM    4  C3  UNL     1      29.375   7.324  48.367  1.00  0.00     0.135 C 
HETATM    5  N2  UNL     1      30.223   8.444  48.240  1.00  0.00    -0.269 N 
HETATM    6  C6  UNL     1      30.385   9.713  47.645  1.00  0.00     0.083 A 
HETATM    7  C7  UNL     1      31.020   9.565  46.406  1.00  0.00     0.035 A 
HETATM    8  C8  UNL     1      31.372  10.542  45.459  1.00  0.00     0.021 A 
HETATM    9  C9  UNL     1      31.020  11.808  45.862  1.00  0.00     0.013 A 
HETATM   10 BR1  UNL     1      31.474  13.170  44.608  1.00  0.00    -0.051 Br
HETATM   11  C10 UNL     1      30.383  12.001  47.098  1.00  0.00     0.052 A 
HETATM   12  C11 UNL     1      30.058  11.004  47.994  1.00  0.00     0.072 A 
HETATM   13  N4  UNL     1      29.439  11.705  49.100  1.00  0.00    -0.319 N 
HETATM   14  N5  UNL     1      28.014  11.702  49.287  1.00  0.00    -0.237 NA
HETATM   15  C12 UNL     1      27.427  10.951  48.193  1.00  0.00     0.137 C 
HETATM   16  C13 UNL     1      25.985  10.819  48.422  1.00  0.00    -0.011 C 
HETATM   17  C14 UNL     1      25.270   9.727  48.629  1.00  0.00    -0.006 C 
HETATM   18  C15 UNL     1      25.804   8.344  48.687  1.00  0.00    -0.016 C 
HETATM   19  C16 UNL     1      26.620   7.313  48.679  1.00  0.00     0.066 C 
HETATM   20  H9  UNL     1      30.179  12.171  49.663  1.00  0.00     0.181 HD
HETATM   21  H10 UNL     1      27.681  12.702  49.153  1.00  0.00     0.146 HD
ENDROOT
BRANCH   5  22
HETATM   22  N3  UNL     1      31.437   8.487  48.864  1.00  0.00    -0.327 N 
HETATM   23  H2  UNL     1      32.067   9.277  48.652  1.00  0.00     0.180 HD
BRANCH  22  24
HETATM   24  C4  UNL     1      32.053   7.246  49.125  1.00  0.00     0.176 C 
HETATM   25  C5  UNL     1      33.454   7.164  48.606  1.00  0.00     0.412 C 
HETATM   26  O1  UNL     1      34.599   6.975  48.230  1.00  0.00    -0.428 OA
ENDBRANCH  22  24
ENDBRANCH   5  22
TORSDOF 2
ENDMDL
