MODEL 1
REMARK VINA RESULT:      -8.7      0.000      0.000
REMARK  6 active torsions:
REMARK  status: ('A' for Active; 'I' for Inactive)
REMARK    1  A    between atoms: C5_5  and  C6_6 
REMARK    2  A    between atoms: C6_6  and  N1_7 
REMARK    3  A    between atoms: N1_7  and  P1_8 
REMARK    4  A    between atoms: P1_8  and  C7_9 
REMARK    5  A    between atoms: C10_12  and  N2_13 
REMARK    6  A    between atoms: N2_13  and  C11_14 
ROOT
HETATM    1  C7  UNL     1      22.491   2.459  52.327  1.00  0.00     0.190 A 
HETATM    2  C8  UNL     1      23.845   2.829  52.786  1.00  0.00     0.013 A 
HETATM    3  C9  UNL     1      25.014   2.977  52.188  1.00  0.00     0.031 A 
HETATM    4  C10 UNL     1      24.935   2.710  50.761  1.00  0.00     0.071 A 
HETATM    5  C19 UNL     1      23.750   2.375  50.288  1.00  0.00     0.166 A 
HETATM    6  O1  UNL     1      22.542   2.228  50.940  1.00  0.00    -0.346 OA
ENDROOT
BRANCH   4   7
HETATM    7  N2  UNL     1      26.099   2.822  49.961  1.00  0.00    -0.186 N 
HETATM    8  H13 UNL     1      26.541   1.866  49.964  1.00  0.00     0.184 HD
BRANCH   7   9
HETATM    9  C11 UNL     1      26.317   4.121  49.420  1.00  0.00     0.727 A 
HETATM   10  N3  UNL     1      25.358   5.086  49.304  1.00  0.00    -0.074 NA
HETATM   11  C12 UNL     1      25.669   6.290  48.775  1.00  0.00     0.151 A 
HETATM   12  C13 UNL     1      26.974   6.493  48.365  1.00  0.00     0.025 A 
HETATM   13  C14 UNL     1      27.970   5.517  48.476  1.00  0.00     0.070 A 
HETATM   14  C18 UNL     1      27.154   7.839  47.816  1.00  0.00     0.131 C 
HETATM   15  N4  UNL     1      27.566   4.336  49.021  1.00  0.00    -0.066 NA
HETATM   16  C15 UNL     1      29.406   5.540  48.100  1.00  0.00     0.089 C 
HETATM   17  C16 UNL     1      30.043   6.844  48.337  1.00  0.00    -0.002 C 
HETATM   18  C17 UNL     1      29.587   8.074  48.200  1.00  0.00     0.112 C 
HETATM   19  N5  UNL     1      28.289   8.486  47.761  1.00  0.00    -0.272 NA
ENDBRANCH   7   9
ENDBRANCH   4   7
BRANCH   1  20
HETATM   20  P1  UNL     1      22.136   0.797  53.091  1.00  0.00    -0.022 P 
HETATM   21  H9  UNL     1      20.842   0.317  52.719  1.00  0.00     0.076 HD
BRANCH  20  22
HETATM   22  N1  UNL     1      23.439  -0.376  52.851  1.00  0.00    -0.295 NA
HETATM   23  H8  UNL     1      22.986  -1.280  52.576  1.00  0.00     0.127 HD
BRANCH  22  24
HETATM   24  C6  UNL     1      24.131  -0.553  54.099  1.00  0.00     0.129 C 
BRANCH  24  25
HETATM   25  C5  UNL     1      25.610  -0.483  53.966  1.00  0.00    -0.045 A 
HETATM   26  C4  UNL     1      26.363   0.162  54.928  1.00  0.00     0.009 A 
HETATM   27  C3  UNL     1      27.749   0.217  54.786  1.00  0.00     0.007 A 
HETATM   28  C2  UNL     1      28.371  -0.362  53.700  1.00  0.00    -0.062 A 
HETATM   29  C1  UNL     1      29.849  -0.306  53.544  1.00  0.00     0.048 C 
HETATM   30  C21 UNL     1      27.563  -0.991  52.774  1.00  0.00     0.007 A 
HETATM   31  C20 UNL     1      26.189  -1.080  52.858  1.00  0.00     0.009 A 
ENDBRANCH  24  25
ENDBRANCH  22  24
ENDBRANCH  20  22
ENDBRANCH   1  20
TORSDOF 6
ENDMDL
MODEL 2
REMARK VINA RESULT:      -8.7      2.917      6.399
REMARK  6 active torsions:
REMARK  status: ('A' for Active; 'I' for Inactive)
REMARK    1  A    between atoms: C5_5  and  C6_6 
REMARK    2  A    between atoms: C6_6  and  N1_7 
REMARK    3  A    between atoms: N1_7  and  P1_8 
REMARK    4  A    between atoms: P1_8  and  C7_9 
REMARK    5  A    between atoms: C10_12  and  N2_13 
REMARK    6  A    between atoms: N2_13  and  C11_14 
ROOT
HETATM    1  C7  UNL     1      19.574   1.701  51.654  1.00  0.00     0.190 A 
HETATM    2  C8  UNL     1      20.586   0.929  50.905  1.00  0.00     0.013 A 
HETATM    3  C9  UNL     1      21.656   0.234  51.247  1.00  0.00     0.031 A 
HETATM    4  C10 UNL     1      21.876   0.242  52.683  1.00  0.00     0.071 A 
HETATM    5  C19 UNL     1      21.005   0.916  53.410  1.00  0.00     0.166 A 
HETATM    6  O1  UNL     1      19.892   1.634  53.023  1.00  0.00    -0.346 OA
ENDROOT
BRANCH   4   7
HETATM    7  N2  UNL     1      22.983  -0.455  53.227  1.00  0.00    -0.186 N 
HETATM    8  H13 UNL     1      22.606  -1.384  53.549  1.00  0.00     0.184 HD
BRANCH   7   9
HETATM    9  C11 UNL     1      24.210   0.265  53.181  1.00  0.00     0.727 A 
HETATM   10  N3  UNL     1      24.320   1.623  53.272  1.00  0.00    -0.074 NA
HETATM   11  C12 UNL     1      25.535   2.211  53.217  1.00  0.00     0.151 A 
HETATM   12  C13 UNL     1      26.639   1.391  53.068  1.00  0.00     0.025 A 
HETATM   13  C14 UNL     1      26.548  -0.002  52.973  1.00  0.00     0.070 A 
HETATM   14  C18 UNL     1      27.878   2.171  53.025  1.00  0.00     0.131 C 
HETATM   15  N4  UNL     1      25.283  -0.506  53.038  1.00  0.00    -0.066 NA
HETATM   16  C15 UNL     1      27.596  -1.041  52.812  1.00  0.00     0.089 C 
HETATM   17  C16 UNL     1      28.831  -0.732  53.548  1.00  0.00    -0.002 C 
HETATM   18  C17 UNL     1      29.449   0.411  53.771  1.00  0.00     0.112 C 
HETATM   19  N5  UNL     1      29.065   1.719  53.333  1.00  0.00    -0.272 NA
ENDBRANCH   7   9
ENDBRANCH   4   7
BRANCH   1  20
HETATM   20  P1  UNL     1      19.840   3.481  51.172  1.00  0.00    -0.022 P 
HETATM   21  H9  UNL     1      19.661   4.356  52.288  1.00  0.00     0.076 HD
BRANCH  20  22
HETATM   22  N1  UNL     1      21.343   3.747  50.277  1.00  0.00    -0.295 NA
HETATM   23  H8  UNL     1      21.557   2.854  49.772  1.00  0.00     0.127 HD
BRANCH  22  24
HETATM   24  C6  UNL     1      22.393   4.025  51.218  1.00  0.00     0.129 C 
BRANCH  24  25
HETATM   25  C5  UNL     1      23.715   4.245  50.575  1.00  0.00    -0.045 A 
HETATM   26  C4  UNL     1      24.274   5.509  50.551  1.00  0.00     0.009 A 
HETATM   27  C3  UNL     1      25.515   5.695  49.944  1.00  0.00     0.007 A 
HETATM   28  C2  UNL     1      26.186   4.637  49.369  1.00  0.00    -0.062 A 
HETATM   29  C1  UNL     1      27.510   4.830  48.719  1.00  0.00     0.048 C 
HETATM   30  C21 UNL     1      25.575   3.399  49.425  1.00  0.00     0.007 A 
HETATM   31  C20 UNL     1      24.351   3.151  50.011  1.00  0.00     0.009 A 
ENDBRANCH  24  25
ENDBRANCH  22  24
ENDBRANCH  20  22
ENDBRANCH   1  20
TORSDOF 6
ENDMDL
MODEL 3
REMARK VINA RESULT:      -8.6      2.230      7.457
REMARK  6 active torsions:
REMARK  status: ('A' for Active; 'I' for Inactive)
REMARK    1  A    between atoms: C5_5  and  C6_6 
REMARK    2  A    between atoms: C6_6  and  N1_7 
REMARK    3  A    between atoms: N1_7  and  P1_8 
REMARK    4  A    between atoms: P1_8  and  C7_9 
REMARK    5  A    between atoms: C10_12  and  N2_13 
REMARK    6  A    between atoms: N2_13  and  C11_14 
ROOT
HETATM    1  C7  UNL     1      22.471   4.137  49.973  1.00  0.00     0.190 A 
HETATM    2  C8  UNL     1      23.841   3.586  49.985  1.00  0.00     0.013 A 
HETATM    3  C9  UNL     1      24.689   3.243  50.938  1.00  0.00     0.031 A 
HETATM    4  C10 UNL     1      24.139   3.465  52.265  1.00  0.00     0.071 A 
HETATM    5  C19 UNL     1      22.916   3.957  52.322  1.00  0.00     0.166 A 
HETATM    6  O1  UNL     1      22.051   4.306  51.305  1.00  0.00    -0.346 OA
ENDROOT
BRANCH   4   7
HETATM    7  N2  UNL     1      24.916   3.152  53.408  1.00  0.00    -0.186 N 
HETATM    8  H13 UNL     1      24.865   4.000  54.030  1.00  0.00     0.184 HD
BRANCH   7   9
HETATM    9  C11 UNL     1      25.505   1.856  53.379  1.00  0.00     0.727 A 
HETATM   10  N3  UNL     1      24.879   0.726  52.937  1.00  0.00    -0.074 NA
HETATM   11  C12 UNL     1      25.528  -0.459  52.952  1.00  0.00     0.151 A 
HETATM   12  C13 UNL     1      26.827  -0.473  53.425  1.00  0.00     0.025 A 
HETATM   13  C14 UNL     1      27.486   0.673  53.882  1.00  0.00     0.070 A 
HETATM   14  C18 UNL     1      27.393  -1.823  53.378  1.00  0.00     0.131 C 
HETATM   15  N4  UNL     1      26.755   1.822  53.830  1.00  0.00    -0.066 NA
HETATM   16  C15 UNL     1      28.857   0.864  54.420  1.00  0.00     0.089 C 
HETATM   17  C16 UNL     1      29.859   0.018  53.753  1.00  0.00    -0.002 C 
HETATM   18  C17 UNL     1      29.791  -1.216  53.293  1.00  0.00     0.112 C 
HETATM   19  N5  UNL     1      28.669  -2.104  53.323  1.00  0.00    -0.272 NA
ENDBRANCH   7   9
ENDBRANCH   4   7
BRANCH   1  20
HETATM   20  P1  UNL     1      22.626   5.859  49.282  1.00  0.00    -0.022 P 
HETATM   21  H9  UNL     1      22.531   6.846  50.313  1.00  0.00     0.076 HD
BRANCH  20  22
HETATM   22  N1  UNL     1      24.022   6.062  48.213  1.00  0.00    -0.295 NA
HETATM   23  H8  UNL     1      24.446   5.112  48.086  1.00  0.00     0.127 HD
BRANCH  22  24
HETATM   24  C6  UNL     1      24.973   6.924  48.860  1.00  0.00     0.129 C 
BRANCH  24  25
HETATM   25  C5  UNL     1      26.385   6.547  48.592  1.00  0.00    -0.045 A 
HETATM   26  C4  UNL     1      26.815   5.254  48.823  1.00  0.00     0.009 A 
HETATM   27  C3  UNL     1      28.143   4.920  48.565  1.00  0.00     0.007 A 
HETATM   28  C2  UNL     1      29.028   5.862  48.084  1.00  0.00    -0.062 A 
HETATM   29  C1  UNL     1      30.447   5.511  47.808  1.00  0.00     0.048 C 
HETATM   30  C21 UNL     1      28.538   7.136  47.874  1.00  0.00     0.007 A 
HETATM   31  C20 UNL     1      27.236   7.528  48.110  1.00  0.00     0.009 A 
ENDBRANCH  24  25
ENDBRANCH  22  24
ENDBRANCH  20  22
ENDBRANCH   1  20
TORSDOF 6
ENDMDL
MODEL 4
REMARK VINA RESULT:      -8.5      4.039      6.695
REMARK  6 active torsions:
REMARK  status: ('A' for Active; 'I' for Inactive)
REMARK    1  A    between atoms: C5_5  and  C6_6 
REMARK    2  A    between atoms: C6_6  and  N1_7 
REMARK    3  A    between atoms: N1_7  and  P1_8 
REMARK    4  A    between atoms: P1_8  and  C7_9 
REMARK    5  A    between atoms: C10_12  and  N2_13 
REMARK    6  A    between atoms: N2_13  and  C11_14 
ROOT
HETATM    1  C7  UNL     1      23.340   4.601  50.106  1.00  0.00     0.190 A 
HETATM    2  C8  UNL     1      23.109   4.835  51.546  1.00  0.00     0.013 A 
HETATM    3  C9  UNL     1      23.344   4.139  52.644  1.00  0.00     0.031 A 
HETATM    4  C10 UNL     1      23.968   2.858  52.355  1.00  0.00     0.071 A 
HETATM    5  C19 UNL     1      24.202   2.589  51.084  1.00  0.00     0.166 A 
HETATM    6  O1  UNL     1      23.944   3.340  49.955  1.00  0.00    -0.346 OA
ENDROOT
BRANCH   4   7
HETATM    7  N2  UNL     1      24.291   1.980  53.418  1.00  0.00    -0.186 N 
HETATM    8  H13 UNL     1      23.404   1.862  53.972  1.00  0.00     0.184 HD
BRANCH   7   9
HETATM    9  C11 UNL     1      25.645   1.540  53.424  1.00  0.00     0.727 A 
HETATM   10  N3  UNL     1      26.700   2.273  53.887  1.00  0.00    -0.074 NA
HETATM   11  C12 UNL     1      27.950   1.763  53.849  1.00  0.00     0.151 A 
HETATM   12  C13 UNL     1      28.108   0.490  53.330  1.00  0.00     0.025 A 
HETATM   13  C14 UNL     1      27.041  -0.277  52.852  1.00  0.00     0.070 A 
HETATM   14  C18 UNL     1      29.513   0.078  53.356  1.00  0.00     0.131 C 
HETATM   15  N4  UNL     1      25.817   0.318  52.931  1.00  0.00    -0.066 NA
HETATM   16  C15 UNL     1      27.003  -1.641  52.267  1.00  0.00     0.089 C 
HETATM   17  C16 UNL     1      27.959  -2.565  52.897  1.00  0.00    -0.002 C 
HETATM   18  C17 UNL     1      29.179  -2.374  53.358  1.00  0.00     0.112 C 
HETATM   19  N5  UNL     1      29.936  -1.160  53.367  1.00  0.00    -0.272 NA
ENDBRANCH   7   9
ENDBRANCH   4   7
BRANCH   1  20
HETATM   20  P1  UNL     1      21.648   4.432  49.345  1.00  0.00    -0.022 P 
HETATM   21  H9  UNL     1      21.711   3.784  48.073  1.00  0.00     0.076 HD
BRANCH  20  22
HETATM   22  N1  UNL     1      20.448   3.745  50.449  1.00  0.00    -0.295 NA
HETATM   23  H8  UNL     1      20.804   3.907  51.422  1.00  0.00     0.127 HD
BRANCH  22  24
HETATM   24  C6  UNL     1      20.358   2.332  50.206  1.00  0.00     0.129 C 
BRANCH  24  25
HETATM   25  C5  UNL     1      20.713   1.508  51.391  1.00  0.00    -0.045 A 
HETATM   26  C4  UNL     1      20.326   1.908  52.656  1.00  0.00     0.009 A 
HETATM   27  C3  UNL     1      20.667   1.122  53.755  1.00  0.00     0.007 A 
HETATM   28  C2  UNL     1      21.384  -0.045  53.593  1.00  0.00    -0.062 A 
HETATM   29  C1  UNL     1      21.751  -0.887  54.763  1.00  0.00     0.048 C 
HETATM   30  C21 UNL     1      21.741  -0.391  52.304  1.00  0.00     0.007 A 
HETATM   31  C20 UNL     1      21.433   0.344  51.178  1.00  0.00     0.009 A 
ENDBRANCH  24  25
ENDBRANCH  22  24
ENDBRANCH  20  22
ENDBRANCH   1  20
TORSDOF 6
ENDMDL
MODEL 5
REMARK VINA RESULT:      -8.4      2.620      7.330
REMARK  6 active torsions:
REMARK  status: ('A' for Active; 'I' for Inactive)
REMARK    1  A    between atoms: C5_5  and  C6_6 
REMARK    2  A    between atoms: C6_6  and  N1_7 
REMARK    3  A    between atoms: N1_7  and  P1_8 
REMARK    4  A    between atoms: P1_8  and  C7_9 
REMARK    5  A    between atoms: C10_12  and  N2_13 
REMARK    6  A    between atoms: N2_13  and  C11_14 
ROOT
HETATM    1  C7  UNL     1      19.932   2.787  51.209  1.00  0.00     0.190 A 
HETATM    2  C8  UNL     1      20.576   1.620  50.574  1.00  0.00     0.013 A 
HETATM    3  C9  UNL     1      21.038   0.465  51.020  1.00  0.00     0.031 A 
HETATM    4  C10 UNL     1      20.869   0.327  52.457  1.00  0.00     0.071 A 
HETATM    5  C19 UNL     1      20.298   1.338  53.084  1.00  0.00     0.166 A 
HETATM    6  O1  UNL     1      19.824   2.536  52.589  1.00  0.00    -0.346 OA
ENDROOT
BRANCH   4   7
HETATM    7  N2  UNL     1      21.309  -0.854  53.105  1.00  0.00    -0.186 N 
HETATM    8  H13 UNL     1      20.534  -1.556  52.977  1.00  0.00     0.184 HD
BRANCH   7   9
HETATM    9  C11 UNL     1      22.596  -0.749  53.704  1.00  0.00     0.727 A 
HETATM   10  N3  UNL     1      22.900  -1.158  54.971  1.00  0.00    -0.074 NA
HETATM   11  C12 UNL     1      24.157  -1.014  55.447  1.00  0.00     0.151 A 
HETATM   12  C13 UNL     1      25.099  -0.445  54.609  1.00  0.00     0.025 A 
HETATM   13  C14 UNL     1      24.807  -0.020  53.309  1.00  0.00     0.070 A 
HETATM   14  C18 UNL     1      26.406  -0.357  55.265  1.00  0.00     0.131 C 
HETATM   15  N4  UNL     1      23.516  -0.205  52.914  1.00  0.00    -0.066 NA
HETATM   16  C15 UNL     1      25.664   0.605  52.270  1.00  0.00     0.089 C 
HETATM   17  C16 UNL     1      27.036   0.075  52.260  1.00  0.00    -0.002 C 
HETATM   18  C17 UNL     1      27.831  -0.304  53.242  1.00  0.00     0.112 C 
HETATM   19  N5  UNL     1      27.557  -0.297  54.647  1.00  0.00    -0.272 NA
ENDBRANCH   7   9
ENDBRANCH   4   7
BRANCH   1  20
HETATM   20  P1  UNL     1      21.156   4.183  51.056  1.00  0.00    -0.022 P 
HETATM   21  H9  UNL     1      21.672   4.568  52.332  1.00  0.00     0.076 HD
BRANCH  20  22
HETATM   22  N1  UNL     1      22.399   3.894  49.830  1.00  0.00    -0.295 NA
HETATM   23  H8  UNL     1      22.067   3.090  49.246  1.00  0.00     0.127 HD
BRANCH  22  24
HETATM   24  C6  UNL     1      23.619   3.526  50.494  1.00  0.00     0.129 C 
BRANCH  24  25
HETATM   25  C5  UNL     1      24.827   4.153  49.894  1.00  0.00    -0.045 A 
HETATM   26  C4  UNL     1      24.801   5.480  49.508  1.00  0.00     0.009 A 
HETATM   27  C3  UNL     1      25.943   6.050  48.948  1.00  0.00     0.007 A 
HETATM   28  C2  UNL     1      27.092   5.306  48.776  1.00  0.00    -0.062 A 
HETATM   29  C1  UNL     1      28.313   5.909  48.179  1.00  0.00     0.048 C 
HETATM   30  C21 UNL     1      27.054   3.986  49.181  1.00  0.00     0.007 A 
HETATM   31  C20 UNL     1      25.956   3.366  49.742  1.00  0.00     0.009 A 
ENDBRANCH  24  25
ENDBRANCH  22  24
ENDBRANCH  20  22
ENDBRANCH   1  20
TORSDOF 6
ENDMDL
MODEL 6
REMARK VINA RESULT:      -8.4      3.529      6.006
REMARK  6 active torsions:
REMARK  status: ('A' for Active; 'I' for Inactive)
REMARK    1  A    between atoms: C5_5  and  C6_6 
REMARK    2  A    between atoms: C6_6  and  N1_7 
REMARK    3  A    between atoms: N1_7  and  P1_8 
REMARK    4  A    between atoms: P1_8  and  C7_9 
REMARK    5  A    between atoms: C10_12  and  N2_13 
REMARK    6  A    between atoms: N2_13  and  C11_14 
ROOT
HETATM    1  C7  UNL     1      21.454   4.119  50.346  1.00  0.00     0.190 A 
HETATM    2  C8  UNL     1      22.057   4.116  51.695  1.00  0.00     0.013 A 
HETATM    3  C9  UNL     1      23.290   3.995  52.154  1.00  0.00     0.031 A 
HETATM    4  C10 UNL     1      24.257   3.824  51.082  1.00  0.00     0.071 A 
HETATM    5  C19 UNL     1      23.781   3.818  49.852  1.00  0.00     0.166 A 
HETATM    6  O1  UNL     1      22.482   3.949  49.402  1.00  0.00    -0.346 OA
ENDROOT
BRANCH   4   7
HETATM    7  N2  UNL     1      25.631   3.678  51.395  1.00  0.00    -0.186 N 
HETATM    8  H13 UNL     1      26.067   4.619  51.216  1.00  0.00     0.184 HD
BRANCH   7   9
HETATM    9  C11 UNL     1      25.997   2.374  51.834  1.00  0.00     0.727 A 
HETATM   10  N3  UNL     1      25.276   1.240  51.593  1.00  0.00    -0.074 NA
HETATM   11  C12 UNL     1      25.712   0.047  52.054  1.00  0.00     0.151 A 
HETATM   12  C13 UNL     1      26.897   0.029  52.767  1.00  0.00     0.025 A 
HETATM   13  C14 UNL     1      27.651   1.179  53.024  1.00  0.00     0.070 A 
HETATM   14  C18 UNL     1      27.236  -1.329  53.198  1.00  0.00     0.131 C 
HETATM   15  N4  UNL     1      27.135   2.335  52.520  1.00  0.00    -0.066 NA
HETATM   16  C15 UNL     1      28.928   1.367  53.757  1.00  0.00     0.089 C 
HETATM   17  C16 UNL     1      29.874   0.258  53.558  1.00  0.00    -0.002 C 
HETATM   18  C17 UNL     1      29.682  -1.041  53.440  1.00  0.00     0.112 C 
HETATM   19  N5  UNL     1      28.441  -1.753  53.479  1.00  0.00    -0.272 NA
ENDBRANCH   7   9
ENDBRANCH   4   7
BRANCH   1  20
HETATM   20  P1  UNL     1      20.431   2.566  50.248  1.00  0.00    -0.022 P 
HETATM   21  H9  UNL     1      21.127   1.525  49.558  1.00  0.00     0.076 HD
BRANCH  20  22
HETATM   22  N1  UNL     1      19.755   2.073  51.808  1.00  0.00    -0.295 NA
HETATM   23  H8  UNL     1      20.407   2.428  52.547  1.00  0.00     0.127 HD
BRANCH  22  24
HETATM   24  C6  UNL     1      19.718   0.637  51.857  1.00  0.00     0.129 C 
BRANCH  24  25
HETATM   25  C5  UNL     1      20.667   0.058  52.844  1.00  0.00    -0.045 A 
HETATM   26  C4  UNL     1      20.268  -0.980  53.664  1.00  0.00     0.009 A 
HETATM   27  C3  UNL     1      21.173  -1.510  54.583  1.00  0.00     0.007 A 
HETATM   28  C2  UNL     1      22.454  -1.010  54.681  1.00  0.00    -0.062 A 
HETATM   29  C1  UNL     1      23.423  -1.571  55.660  1.00  0.00     0.048 C 
HETATM   30  C21 UNL     1      22.791   0.028  53.835  1.00  0.00     0.007 A 
HETATM   31  C20 UNL     1      21.943   0.594  52.906  1.00  0.00     0.009 A 
ENDBRANCH  24  25
ENDBRANCH  22  24
ENDBRANCH  20  22
ENDBRANCH   1  20
TORSDOF 6
ENDMDL
MODEL 7
REMARK VINA RESULT:      -8.3      2.545      7.380
REMARK  6 active torsions:
REMARK  status: ('A' for Active; 'I' for Inactive)
REMARK    1  A    between atoms: C5_5  and  C6_6 
REMARK    2  A    between atoms: C6_6  and  N1_7 
REMARK    3  A    between atoms: N1_7  and  P1_8 
REMARK    4  A    between atoms: P1_8  and  C7_9 
REMARK    5  A    between atoms: C10_12  and  N2_13 
REMARK    6  A    between atoms: N2_13  and  C11_14 
ROOT
HETATM    1  C7  UNL     1      22.469   6.264  50.555  1.00  0.00     0.190 A 
HETATM    2  C8  UNL     1      22.524   5.325  49.416  1.00  0.00     0.013 A 
HETATM    3  C9  UNL     1      23.263   4.270  49.126  1.00  0.00     0.031 A 
HETATM    4  C10 UNL     1      24.237   3.982  50.166  1.00  0.00     0.071 A 
HETATM    5  C19 UNL     1      24.239   4.787  51.212  1.00  0.00     0.166 A 
HETATM    6  O1  UNL     1      23.450   5.885  51.488  1.00  0.00    -0.346 OA
ENDROOT
BRANCH   4   7
HETATM    7  N2  UNL     1      25.116   2.881  50.019  1.00  0.00    -0.186 N 
HETATM    8  H13 UNL     1      25.388   2.866  49.001  1.00  0.00     0.184 HD
BRANCH   7   9
HETATM    9  C11 UNL     1      25.360   2.159  51.221  1.00  0.00     0.727 A 
HETATM   10  N3  UNL     1      24.466   1.317  51.818  1.00  0.00    -0.074 NA
HETATM   11  C12 UNL     1      24.795   0.677  52.961  1.00  0.00     0.151 A 
HETATM   12  C13 UNL     1      26.053   0.910  53.487  1.00  0.00     0.025 A 
HETATM   13  C14 UNL     1      26.983   1.769  52.891  1.00  0.00     0.070 A 
HETATM   14  C18 UNL     1      26.261   0.149  54.722  1.00  0.00     0.131 C 
HETATM   15  N4  UNL     1      26.564   2.369  51.742  1.00  0.00    -0.066 NA
HETATM   16  C15 UNL     1      28.362   2.146  53.293  1.00  0.00     0.089 C 
HETATM   17  C16 UNL     1      29.113   1.032  53.889  1.00  0.00    -0.002 C 
HETATM   18  C17 UNL     1      28.733   0.051  54.684  1.00  0.00     0.112 C 
HETATM   19  N5  UNL     1      27.424  -0.201  55.205  1.00  0.00    -0.272 NA
ENDBRANCH   7   9
ENDBRANCH   4   7
BRANCH   1  20
HETATM   20  P1  UNL     1      23.037   7.906  49.881  1.00  0.00    -0.022 P 
HETATM   21  H9  UNL     1      22.504   8.994  50.640  1.00  0.00     0.076 HD
BRANCH  20  22
HETATM   22  N1  UNL     1      24.786   7.991  49.624  1.00  0.00    -0.295 NA
HETATM   23  H8  UNL     1      25.047   9.005  49.655  1.00  0.00     0.127 HD
BRANCH  22  24
HETATM   24  C6  UNL     1      25.083   7.463  48.321  1.00  0.00     0.129 C 
BRANCH  24  25
HETATM   25  C5  UNL     1      26.482   6.978  48.189  1.00  0.00    -0.045 A 
HETATM   26  C4  UNL     1      27.443   7.782  47.605  1.00  0.00     0.009 A 
HETATM   27  C3  UNL     1      28.750   7.309  47.490  1.00  0.00     0.007 A 
HETATM   28  C2  UNL     1      29.090   6.054  47.950  1.00  0.00    -0.062 A 
HETATM   29  C1  UNL     1      30.482   5.545  47.830  1.00  0.00     0.048 C 
HETATM   30  C21 UNL     1      28.084   5.300  48.523  1.00  0.00     0.007 A 
HETATM   31  C20 UNL     1      26.775   5.711  48.665  1.00  0.00     0.009 A 
ENDBRANCH  24  25
ENDBRANCH  22  24
ENDBRANCH  20  22
ENDBRANCH   1  20
TORSDOF 6
ENDMDL
MODEL 8
REMARK VINA RESULT:      -8.2      3.721      6.802
REMARK  6 active torsions:
REMARK  status: ('A' for Active; 'I' for Inactive)
REMARK    1  A    between atoms: C5_5  and  C6_6 
REMARK    2  A    between atoms: C6_6  and  N1_7 
REMARK    3  A    between atoms: N1_7  and  P1_8 
REMARK    4  A    between atoms: P1_8  and  C7_9 
REMARK    5  A    between atoms: C10_12  and  N2_13 
REMARK    6  A    between atoms: N2_13  and  C11_14 
ROOT
HETATM    1  C7  UNL     1      23.652   5.035  49.584  1.00  0.00     0.190 A 
HETATM    2  C8  UNL     1      23.013   5.281  50.892  1.00  0.00     0.013 A 
HETATM    3  C9  UNL     1      23.221   4.839  52.119  1.00  0.00     0.031 A 
HETATM    4  C10 UNL     1      24.328   3.899  52.181  1.00  0.00     0.071 A 
HETATM    5  C19 UNL     1      24.943   3.637  51.043  1.00  0.00     0.166 A 
HETATM    6  O1  UNL     1      24.702   4.117  49.772  1.00  0.00    -0.346 OA
ENDROOT
BRANCH   4   7
HETATM    7  N2  UNL     1      24.692   3.324  53.423  1.00  0.00    -0.186 N 
HETATM    8  H13 UNL     1      24.449   4.043  54.153  1.00  0.00     0.184 HD
BRANCH   7   9
HETATM    9  C11 UNL     1      25.247   2.017  53.324  1.00  0.00     0.727 A 
HETATM   10  N3  UNL     1      24.635   0.954  52.724  1.00  0.00    -0.074 NA
HETATM   11  C12 UNL     1      25.250  -0.249  52.683  1.00  0.00     0.151 A 
HETATM   12  C13 UNL     1      26.501  -0.350  53.265  1.00  0.00     0.025 A 
HETATM   13  C14 UNL     1      27.145   0.727  53.884  1.00  0.00     0.070 A 
HETATM   14  C18 UNL     1      27.035  -1.708  53.141  1.00  0.00     0.131 C 
HETATM   15  N4  UNL     1      26.451   1.900  53.877  1.00  0.00    -0.066 NA
HETATM   16  C15 UNL     1      28.466   0.821  54.555  1.00  0.00     0.089 C 
HETATM   17  C16 UNL     1      29.502   0.007  53.902  1.00  0.00    -0.002 C 
HETATM   18  C17 UNL     1      29.445  -1.176  53.323  1.00  0.00     0.112 C 
HETATM   19  N5  UNL     1      28.303  -2.026  53.171  1.00  0.00    -0.272 NA
ENDBRANCH   7   9
ENDBRANCH   4   7
BRANCH   1  20
HETATM   20  P1  UNL     1      22.382   4.131  48.564  1.00  0.00    -0.022 P 
HETATM   21  H9  UNL     1      22.439   4.525  47.191  1.00  0.00     0.076 HD
BRANCH  20  22
HETATM   22  N1  UNL     1      22.399   2.379  48.816  1.00  0.00    -0.295 NA
HETATM   23  H8  UNL     1      22.611   1.942  47.887  1.00  0.00     0.127 HD
BRANCH  22  24
HETATM   24  C6  UNL     1      21.092   1.966  49.247  1.00  0.00     0.129 C 
BRANCH  24  25
HETATM   25  C5  UNL     1      21.060   1.492  50.656  1.00  0.00    -0.045 A 
HETATM   26  C4  UNL     1      21.466   0.208  50.965  1.00  0.00     0.009 A 
HETATM   27  C3  UNL     1      21.430  -0.218  52.292  1.00  0.00     0.007 A 
HETATM   28  C2  UNL     1      20.994   0.626  53.293  1.00  0.00    -0.062 A 
HETATM   29  C1  UNL     1      20.952   0.177  54.710  1.00  0.00     0.048 C 
HETATM   30  C21 UNL     1      20.601   1.896  52.918  1.00  0.00     0.007 A 
HETATM   31  C20 UNL     1      20.615   2.375  51.625  1.00  0.00     0.009 A 
ENDBRANCH  24  25
ENDBRANCH  22  24
ENDBRANCH  20  22
ENDBRANCH   1  20
TORSDOF 6
ENDMDL
MODEL 9
REMARK VINA RESULT:      -8.1      3.070      4.605
REMARK  6 active torsions:
REMARK  status: ('A' for Active; 'I' for Inactive)
REMARK    1  A    between atoms: C5_5  and  C6_6 
REMARK    2  A    between atoms: C6_6  and  N1_7 
REMARK    3  A    between atoms: N1_7  and  P1_8 
REMARK    4  A    between atoms: P1_8  and  C7_9 
REMARK    5  A    between atoms: C10_12  and  N2_13 
REMARK    6  A    between atoms: N2_13  and  C11_14 
ROOT
HETATM    1  C7  UNL     1      19.264   4.721  50.328  1.00  0.00     0.190 A 
HETATM    2  C8  UNL     1      19.942   4.035  51.446  1.00  0.00     0.013 A 
HETATM    3  C9  UNL     1      21.076   4.228  52.095  1.00  0.00     0.031 A 
HETATM    4  C10 UNL     1      21.811   5.373  51.583  1.00  0.00     0.071 A 
HETATM    5  C19 UNL     1      21.257   6.030  50.582  1.00  0.00     0.166 A 
HETATM    6  O1  UNL     1      20.065   5.804  49.922  1.00  0.00    -0.346 OA
ENDROOT
BRANCH   4   7
HETATM    7  N2  UNL     1      23.054   5.726  52.164  1.00  0.00    -0.186 N 
HETATM    8  H13 UNL     1      22.969   5.487  53.186  1.00  0.00     0.184 HD
BRANCH   7   9
HETATM    9  C11 UNL     1      23.997   6.270  51.248  1.00  0.00     0.727 A 
HETATM   10  N3  UNL     1      24.210   7.604  51.051  1.00  0.00    -0.074 NA
HETATM   11  C12 UNL     1      25.132   8.019  50.154  1.00  0.00     0.151 A 
HETATM   12  C13 UNL     1      25.834   7.050  49.460  1.00  0.00     0.025 A 
HETATM   13  C14 UNL     1      25.630   5.679  49.648  1.00  0.00     0.070 A 
HETATM   14  C18 UNL     1      26.791   7.652  48.530  1.00  0.00     0.131 C 
HETATM   15  N4  UNL     1      24.682   5.354  50.571  1.00  0.00    -0.066 NA
HETATM   16  C15 UNL     1      26.270   4.500  49.012  1.00  0.00     0.089 C 
HETATM   17  C16 UNL     1      27.703   4.697  48.744  1.00  0.00    -0.002 C 
HETATM   18  C17 UNL     1      28.378   5.761  48.356  1.00  0.00     0.112 C 
HETATM   19  N5  UNL     1      27.871   7.071  48.077  1.00  0.00    -0.272 NA
ENDBRANCH   7   9
ENDBRANCH   4   7
BRANCH   1  20
HETATM   20  P1  UNL     1      19.299   3.520  48.904  1.00  0.00    -0.022 P 
HETATM   21  H9  UNL     1      18.262   3.800  47.960  1.00  0.00     0.076 HD
BRANCH  20  22
HETATM   22  N1  UNL     1      20.904   3.335  48.183  1.00  0.00    -0.295 NA
HETATM   23  H8  UNL     1      20.816   3.606  47.174  1.00  0.00     0.127 HD
BRANCH  22  24
HETATM   24  C6  UNL     1      21.289   1.953  48.271  1.00  0.00     0.129 C 
BRANCH  24  25
HETATM   25  C5  UNL     1      21.918   1.601  49.571  1.00  0.00    -0.045 A 
HETATM   26  C4  UNL     1      21.325   0.667  50.399  1.00  0.00     0.009 A 
HETATM   27  C3  UNL     1      21.930   0.349  51.614  1.00  0.00     0.007 A 
HETATM   28  C2  UNL     1      23.108   0.955  51.995  1.00  0.00    -0.062 A 
HETATM   29  C1  UNL     1      23.758   0.620  53.291  1.00  0.00     0.048 C 
HETATM   30  C21 UNL     1      23.651   1.879  51.125  1.00  0.00     0.007 A 
HETATM   31  C20 UNL     1      23.101   2.235  49.911  1.00  0.00     0.009 A 
ENDBRANCH  24  25
ENDBRANCH  22  24
ENDBRANCH  20  22
ENDBRANCH   1  20
TORSDOF 6
ENDMDL
