MODEL 1
REMARK VINA RESULT:      -8.4      0.000      0.000
REMARK  4 active torsions:
REMARK  status: ('A' for Active; 'I' for Inactive)
REMARK    1  A    between atoms: C3_3  and  C4_4 
REMARK    2  A    between atoms: C6_6  and  C7_7 
REMARK    3  A    between atoms: N2_15  and  C13_16 
REMARK    4  A    between atoms: C14_18  and  O1_19 
ROOT
HETATM    1  C1  UNL     1      24.206   4.119  50.319  1.00  0.00     0.012 C 
HETATM    2  C2  UNL     1      24.812   3.129  50.663  1.00  0.00    -0.115 C 
HETATM    3  C3  UNL     1      25.543   1.924  51.056  1.00  0.00     0.120 C 
ENDROOT
BRANCH   3   4
HETATM    4  C4  UNL     1      25.596   1.753  52.548  1.00  0.00     0.129 C 
HETATM    5  C5  UNL     1      24.232   1.849  53.187  1.00  0.00     0.090 C 
HETATM    6  C6  UNL     1      23.752   0.425  53.125  1.00  0.00     0.067 C 
HETATM    7  N1  UNL     1      24.774  -0.338  52.974  1.00  0.00    -0.174 NA
HETATM    8  N2  UNL     1      25.970   0.385  52.916  1.00  0.00    -0.249 N 
BRANCH   6   9
HETATM    9  C7  UNL     1      22.361  -0.004  53.223  1.00  0.00    -0.010 A 
HETATM   10  C8  UNL     1      22.033  -0.999  54.112  1.00  0.00     0.015 A 
HETATM   11  C9  UNL     1      20.708  -1.378  54.175  1.00  0.00     0.024 A 
HETATM   12  C10 UNL     1      19.721  -0.799  53.389  1.00  0.00     0.034 A 
HETATM   13 CL1  UNL     1      18.033  -1.279  53.468  1.00  0.00    -0.084 Cl
HETATM   14  C11 UNL     1      20.045   0.201  52.494  1.00  0.00     0.024 A 
HETATM   15  C12 UNL     1      21.389   0.573  52.443  1.00  0.00     0.015 A 
ENDBRANCH   6   9
BRANCH   8  16
HETATM   16  C13 UNL     1      27.294  -0.136  53.174  1.00  0.00     0.135 A 
HETATM   17  N3  UNL     1      27.354  -1.424  53.095  1.00  0.00    -0.209 NA
HETATM   18  C14 UNL     1      28.539  -2.165  53.305  1.00  0.00     0.170 A 
HETATM   19  C15 UNL     1      29.634  -1.479  53.598  1.00  0.00     0.103 A 
HETATM   20  S1  UNL     1      29.846   0.289  53.772  1.00  0.00    -0.130 SA
HETATM   21  C16 UNL     1      28.209   1.003  53.459  1.00  0.00     0.159 A 
BRANCH  18  22
HETATM   22  O1  UNL     1      28.631  -3.550  53.225  1.00  0.00    -0.344 OA
HETATM   23  H11 UNL     1      29.495  -4.054  53.087  1.00  0.00     0.219 HD
ENDBRANCH  18  22
ENDBRANCH   8  16
ENDBRANCH   3   4
TORSDOF 4
ENDMDL
MODEL 2
REMARK VINA RESULT:      -8.3      1.766      1.992
REMARK  4 active torsions:
REMARK  status: ('A' for Active; 'I' for Inactive)
REMARK    1  A    between atoms: C3_3  and  C4_4 
REMARK    2  A    between atoms: C6_6  and  C7_7 
REMARK    3  A    between atoms: N2_15  and  C13_16 
REMARK    4  A    between atoms: C14_18  and  O1_19 
ROOT
HETATM    1  C1  UNL     1      26.785   4.020  49.595  1.00  0.00     0.012 C 
HETATM    2  C2  UNL     1      26.123   3.155  50.122  1.00  0.00    -0.115 C 
HETATM    3  C3  UNL     1      25.312   2.103  50.738  1.00  0.00     0.120 C 
ENDROOT
BRANCH   3   4
HETATM    4  C4  UNL     1      25.315   2.188  52.237  1.00  0.00     0.129 C 
HETATM    5  C5  UNL     1      23.921   2.271  52.812  1.00  0.00     0.090 C 
HETATM    6  C6  UNL     1      23.561   0.821  52.978  1.00  0.00     0.067 C 
HETATM    7  N1  UNL     1      24.646   0.135  52.988  1.00  0.00    -0.174 NA
HETATM    8  N2  UNL     1      25.781   0.939  52.843  1.00  0.00    -0.249 N 
BRANCH   6   9
HETATM    9  C7  UNL     1      22.205   0.296  53.108  1.00  0.00    -0.010 A 
HETATM   10  C8  UNL     1      21.922  -0.567  54.140  1.00  0.00     0.015 A 
HETATM   11  C9  UNL     1      20.631  -1.043  54.228  1.00  0.00     0.024 A 
HETATM   12  C10 UNL     1      19.633  -0.686  53.331  1.00  0.00     0.034 A 
HETATM   13 CL1  UNL     1      17.988  -1.291  53.442  1.00  0.00    -0.084 Cl
HETATM   14  C11 UNL     1      19.912   0.179  52.293  1.00  0.00     0.024 A 
HETATM   15  C12 UNL     1      21.223   0.652  52.217  1.00  0.00     0.015 A 
ENDBRANCH   6   9
BRANCH   8  16
HETATM   16  C13 UNL     1      27.131   0.584  53.223  1.00  0.00     0.135 A 
HETATM   17  N3  UNL     1      27.772   1.559  53.778  1.00  0.00    -0.209 NA
HETATM   18  C14 UNL     1      29.105   1.456  54.236  1.00  0.00     0.170 A 
HETATM   19  C15 UNL     1      29.709   0.288  54.075  1.00  0.00     0.103 A 
HETATM   20  S1  UNL     1      29.076  -1.220  53.349  1.00  0.00    -0.130 SA
HETATM   21  C16 UNL     1      27.375  -0.835  52.848  1.00  0.00     0.159 A 
BRANCH  18  22
HETATM   22  O1  UNL     1      29.817   2.489  54.836  1.00  0.00    -0.344 OA
HETATM   23  H11 UNL     1      30.140   3.313  54.350  1.00  0.00     0.219 HD
ENDBRANCH  18  22
ENDBRANCH   8  16
ENDBRANCH   3   4
TORSDOF 4
ENDMDL
MODEL 3
REMARK VINA RESULT:      -8.1      4.029      6.787
REMARK  4 active torsions:
REMARK  status: ('A' for Active; 'I' for Inactive)
REMARK    1  A    between atoms: C3_3  and  C4_4 
REMARK    2  A    between atoms: C6_6  and  C7_7 
REMARK    3  A    between atoms: N2_15  and  C13_16 
REMARK    4  A    between atoms: C14_18  and  O1_19 
ROOT
HETATM    1  C1  UNL     1      28.638  -0.963  53.436  1.00  0.00     0.012 C 
HETATM    2  C2  UNL     1      27.633  -0.573  52.887  1.00  0.00    -0.115 C 
HETATM    3  C3  UNL     1      26.425  -0.111  52.202  1.00  0.00     0.120 C 
ENDROOT
BRANCH   3   4
HETATM    4  C4  UNL     1      25.687   0.933  52.992  1.00  0.00     0.129 C 
HETATM    5  C5  UNL     1      26.176   2.330  52.696  1.00  0.00     0.090 C 
HETATM    6  C6  UNL     1      25.316   2.726  51.529  1.00  0.00     0.067 C 
HETATM    7  N1  UNL     1      24.281   1.967  51.515  1.00  0.00    -0.174 NA
HETATM    8  N2  UNL     1      24.291   1.041  52.563  1.00  0.00    -0.249 N 
BRANCH   6   9
HETATM    9  C7  UNL     1      25.616   3.795  50.581  1.00  0.00    -0.010 A 
HETATM   10  C8  UNL     1      26.735   3.688  49.790  1.00  0.00     0.015 A 
HETATM   11  C9  UNL     1      26.985   4.719  48.908  1.00  0.00     0.024 A 
HETATM   12  C10 UNL     1      26.162   5.832  48.796  1.00  0.00     0.034 A 
HETATM   13 CL1  UNL     1      26.479   7.144  47.674  1.00  0.00    -0.084 Cl
HETATM   14  C11 UNL     1      25.037   5.944  49.589  1.00  0.00     0.024 A 
HETATM   15  C12 UNL     1      24.798   4.893  50.476  1.00  0.00     0.015 A 
ENDBRANCH   6   9
BRANCH   8  16
HETATM   16  C13 UNL     1      23.141   0.345  53.097  1.00  0.00     0.135 A 
HETATM   17  N3  UNL     1      23.438  -0.450  54.071  1.00  0.00    -0.209 NA
HETATM   18  C14 UNL     1      22.484  -1.237  54.755  1.00  0.00     0.170 A 
HETATM   19  C15 UNL     1      21.225  -1.137  54.358  1.00  0.00     0.103 A 
HETATM   20  S1  UNL     1      20.528  -0.130  53.053  1.00  0.00    -0.130 SA
HETATM   21  C16 UNL     1      21.932   0.771  52.340  1.00  0.00     0.159 A 
BRANCH  18  22
HETATM   22  O1  UNL     1      22.778  -2.099  55.806  1.00  0.00    -0.344 OA
HETATM   23  H11 UNL     1      22.086  -2.637  56.308  1.00  0.00     0.219 HD
ENDBRANCH  18  22
ENDBRANCH   8  16
ENDBRANCH   3   4
TORSDOF 4
ENDMDL
MODEL 4
REMARK VINA RESULT:      -8.0      1.770      2.278
REMARK  4 active torsions:
REMARK  status: ('A' for Active; 'I' for Inactive)
REMARK    1  A    between atoms: C3_3  and  C4_4 
REMARK    2  A    between atoms: C6_6  and  C7_7 
REMARK    3  A    between atoms: N2_15  and  C13_16 
REMARK    4  A    between atoms: C14_18  and  O1_19 
ROOT
HETATM    1  C1  UNL     1      27.168   4.969  48.864  1.00  0.00     0.012 C 
HETATM    2  C2  UNL     1      26.781   3.933  49.354  1.00  0.00    -0.115 C 
HETATM    3  C3  UNL     1      26.309   2.669  49.923  1.00  0.00     0.120 C 
ENDROOT
BRANCH   3   4
HETATM    4  C4  UNL     1      25.931   2.804  51.370  1.00  0.00     0.129 C 
HETATM    5  C5  UNL     1      24.454   3.054  51.559  1.00  0.00     0.090 C 
HETATM    6  C6  UNL     1      23.904   1.657  51.632  1.00  0.00     0.067 C 
HETATM    7  N1  UNL     1      24.865   0.860  51.930  1.00  0.00    -0.174 NA
HETATM    8  N2  UNL     1      26.082   1.533  52.083  1.00  0.00    -0.249 N 
BRANCH   6   9
HETATM    9  C7  UNL     1      22.511   1.283  51.404  1.00  0.00    -0.010 A 
HETATM   10  C8  UNL     1      22.007   1.344  50.127  1.00  0.00     0.015 A 
HETATM   11  C9  UNL     1      20.687   0.984  49.952  1.00  0.00     0.024 A 
HETATM   12  C10 UNL     1      19.873   0.573  50.999  1.00  0.00     0.034 A 
HETATM   13 CL1  UNL     1      18.192   0.114  50.778  1.00  0.00    -0.084 Cl
HETATM   14  C11 UNL     1      20.374   0.511  52.283  1.00  0.00     0.024 A 
HETATM   15  C12 UNL     1      21.711   0.877  52.443  1.00  0.00     0.015 A 
ENDBRANCH   6   9
BRANCH   8  16
HETATM   16  C13 UNL     1      27.238   1.050  52.806  1.00  0.00     0.135 A 
HETATM   17  N3  UNL     1      27.399  -0.228  52.705  1.00  0.00    -0.209 NA
HETATM   18  C14 UNL     1      28.457  -0.933  53.322  1.00  0.00     0.170 A 
HETATM   19  C15 UNL     1      29.317  -0.223  54.037  1.00  0.00     0.103 A 
HETATM   20  S1  UNL     1      29.343   1.539  54.348  1.00  0.00    -0.130 SA
HETATM   21  C16 UNL     1      27.907   2.206  53.463  1.00  0.00     0.159 A 
BRANCH  18  22
HETATM   22  O1  UNL     1      28.653  -2.306  53.230  1.00  0.00    -0.344 OA
HETATM   23  H11 UNL     1      28.129  -2.913  52.616  1.00  0.00     0.219 HD
ENDBRANCH  18  22
ENDBRANCH   8  16
ENDBRANCH   3   4
TORSDOF 4
ENDMDL
MODEL 5
REMARK VINA RESULT:      -7.9      2.388      4.311
REMARK  4 active torsions:
REMARK  status: ('A' for Active; 'I' for Inactive)
REMARK    1  A    between atoms: C3_3  and  C4_4 
REMARK    2  A    between atoms: C6_6  and  C7_7 
REMARK    3  A    between atoms: N2_15  and  C13_16 
REMARK    4  A    between atoms: C14_18  and  O1_19 
ROOT
HETATM    1  C1  UNL     1      21.497  -1.617  54.536  1.00  0.00     0.012 C 
HETATM    2  C2  UNL     1      22.582  -1.083  54.500  1.00  0.00    -0.115 C 
HETATM    3  C3  UNL     1      23.891  -0.428  54.479  1.00  0.00     0.120 C 
ENDROOT
BRANCH   3   4
HETATM    4  C4  UNL     1      24.476  -0.371  53.096  1.00  0.00     0.129 C 
HETATM    5  C5  UNL     1      23.646   0.469  52.155  1.00  0.00     0.090 C 
HETATM    6  C6  UNL     1      24.222   1.841  52.364  1.00  0.00     0.067 C 
HETATM    7  N1  UNL     1      25.390   1.713  52.882  1.00  0.00    -0.174 NA
HETATM    8  N2  UNL     1      25.737   0.373  53.079  1.00  0.00    -0.249 N 
BRANCH   6   9
HETATM    9  C7  UNL     1      23.558   3.097  52.029  1.00  0.00    -0.010 A 
HETATM   10  C8  UNL     1      24.302   4.120  51.492  1.00  0.00     0.015 A 
HETATM   11  C9  UNL     1      23.639   5.292  51.191  1.00  0.00     0.024 A 
HETATM   12  C10 UNL     1      22.279   5.465  51.407  1.00  0.00     0.034 A 
HETATM   13 CL1  UNL     1      21.434   6.956  51.023  1.00  0.00    -0.084 Cl
HETATM   14  C11 UNL     1      21.527   4.441  51.946  1.00  0.00     0.024 A 
HETATM   15  C12 UNL     1      22.212   3.262  52.246  1.00  0.00     0.015 A 
ENDBRANCH   6   9
BRANCH   8  16
HETATM   16  C13 UNL     1      27.078  -0.147  53.231  1.00  0.00     0.135 A 
HETATM   17  N3  UNL     1      27.151  -1.421  53.036  1.00  0.00    -0.209 NA
HETATM   18  C14 UNL     1      28.354  -2.158  53.127  1.00  0.00     0.170 A 
HETATM   19  C15 UNL     1      29.452  -1.482  53.432  1.00  0.00     0.103 A 
HETATM   20  S1  UNL     1      29.649   0.267  53.752  1.00  0.00    -0.130 SA
HETATM   21  C16 UNL     1      27.990   0.978  53.576  1.00  0.00     0.159 A 
BRANCH  18  22
HETATM   22  O1  UNL     1      28.460  -3.529  52.921  1.00  0.00    -0.344 OA
HETATM   23  H11 UNL     1      29.302  -4.063  53.084  1.00  0.00     0.219 HD
ENDBRANCH  18  22
ENDBRANCH   8  16
ENDBRANCH   3   4
TORSDOF 4
ENDMDL
MODEL 6
REMARK VINA RESULT:      -7.6      4.071      6.344
REMARK  4 active torsions:
REMARK  status: ('A' for Active; 'I' for Inactive)
REMARK    1  A    between atoms: C3_3  and  C4_4 
REMARK    2  A    between atoms: C6_6  and  C7_7 
REMARK    3  A    between atoms: N2_15  and  C13_16 
REMARK    4  A    between atoms: C14_18  and  O1_19 
ROOT
HETATM    1  C1  UNL     1      21.911   3.636  51.981  1.00  0.00     0.012 C 
HETATM    2  C2  UNL     1      23.011   3.212  52.256  1.00  0.00    -0.115 C 
HETATM    3  C3  UNL     1      24.341   2.715  52.609  1.00  0.00     0.120 C 
ENDROOT
BRANCH   3   4
HETATM    4  C4  UNL     1      24.980   1.952  51.483  1.00  0.00     0.129 C 
HETATM    5  C5  UNL     1      24.905   2.694  50.170  1.00  0.00     0.090 C 
HETATM    6  C6  UNL     1      26.156   3.526  50.204  1.00  0.00     0.067 C 
HETATM    7  N1  UNL     1      26.965   3.002  51.053  1.00  0.00    -0.174 NA
HETATM    8  N2  UNL     1      26.431   1.858  51.655  1.00  0.00    -0.249 N 
BRANCH   6   9
HETATM    9  C7  UNL     1      26.400   4.722  49.403  1.00  0.00    -0.010 A 
HETATM   10  C8  UNL     1      27.651   4.921  48.870  1.00  0.00     0.015 A 
HETATM   11  C9  UNL     1      27.842   6.063  48.120  1.00  0.00     0.024 A 
HETATM   12  C10 UNL     1      26.836   6.993  47.892  1.00  0.00     0.034 A 
HETATM   13 CL1  UNL     1      27.078   8.447  46.938  1.00  0.00    -0.084 Cl
HETATM   14  C11 UNL     1      25.578   6.797  48.427  1.00  0.00     0.024 A 
HETATM   15  C12 UNL     1      25.401   5.637  49.182  1.00  0.00     0.015 A 
ENDBRANCH   6   9
BRANCH   8  16
HETATM   16  C13 UNL     1      27.183   0.810  52.308  1.00  0.00     0.135 A 
HETATM   17  N3  UNL     1      26.772  -0.375  51.999  1.00  0.00    -0.209 NA
HETATM   18  C14 UNL     1      27.348  -1.560  52.509  1.00  0.00     0.170 A 
HETATM   19  C15 UNL     1      28.364  -1.423  53.348  1.00  0.00     0.103 A 
HETATM   20  S1  UNL     1      29.136   0.074  53.950  1.00  0.00    -0.130 SA
HETATM   21  C16 UNL     1      28.231   1.434  53.162  1.00  0.00     0.159 A 
BRANCH  18  22
HETATM   22  O1  UNL     1      26.925  -2.846  52.191  1.00  0.00    -0.344 OA
HETATM   23  H11 UNL     1      27.549  -3.612  51.979  1.00  0.00     0.219 HD
ENDBRANCH  18  22
ENDBRANCH   8  16
ENDBRANCH   3   4
TORSDOF 4
ENDMDL
MODEL 7
REMARK VINA RESULT:      -7.6      4.797      7.420
REMARK  4 active torsions:
REMARK  status: ('A' for Active; 'I' for Inactive)
REMARK    1  A    between atoms: C3_3  and  C4_4 
REMARK    2  A    between atoms: C6_6  and  C7_7 
REMARK    3  A    between atoms: N2_15  and  C13_16 
REMARK    4  A    between atoms: C14_18  and  O1_19 
ROOT
HETATM    1  C1  UNL     1      21.976  -0.538  52.950  1.00  0.00     0.012 C 
HETATM    2  C2  UNL     1      22.277   0.401  52.248  1.00  0.00    -0.115 C 
HETATM    3  C3  UNL     1      22.638   1.523  51.380  1.00  0.00     0.120 C 
ENDROOT
BRANCH   3   4
HETATM    4  C4  UNL     1      23.328   2.625  52.132  1.00  0.00     0.129 C 
HETATM    5  C5  UNL     1      24.295   2.099  53.165  1.00  0.00     0.090 C 
HETATM    6  C6  UNL     1      25.563   1.961  52.371  1.00  0.00     0.067 C 
HETATM    7  N1  UNL     1      25.466   2.699  51.325  1.00  0.00    -0.174 NA
HETATM    8  N2  UNL     1      24.242   3.373  51.265  1.00  0.00    -0.249 N 
BRANCH   6   9
HETATM    9  C7  UNL     1      26.705   1.129  52.738  1.00  0.00    -0.010 A 
HETATM   10  C8  UNL     1      26.601  -0.236  52.612  1.00  0.00     0.015 A 
HETATM   11  C9  UNL     1      27.701  -0.988  52.970  1.00  0.00     0.024 A 
HETATM   12  C10 UNL     1      28.879  -0.424  53.441  1.00  0.00     0.034 A 
HETATM   13 CL1  UNL     1      30.279  -1.381  53.897  1.00  0.00    -0.084 Cl
HETATM   14  C11 UNL     1      28.988   0.946  53.570  1.00  0.00     0.024 A 
HETATM   15  C12 UNL     1      27.867   1.693  53.204  1.00  0.00     0.015 A 
ENDBRANCH   6   9
BRANCH   8  16
HETATM   16  C13 UNL     1      23.963   4.565  50.496  1.00  0.00     0.135 A 
HETATM   17  N3  UNL     1      24.082   5.651  51.187  1.00  0.00    -0.209 NA
HETATM   18  C14 UNL     1      23.861   6.942  50.656  1.00  0.00     0.170 A 
HETATM   19  C15 UNL     1      23.514   7.017  49.380  1.00  0.00     0.103 A 
HETATM   20  S1  UNL     1      23.276   5.698  48.195  1.00  0.00    -0.130 SA
HETATM   21  C16 UNL     1      23.613   4.166  49.106  1.00  0.00     0.159 A 
BRANCH  18  22
HETATM   22  O1  UNL     1      23.983   8.125  51.376  1.00  0.00    -0.344 OA
HETATM   23  H11 UNL     1      23.672   8.243  52.330  1.00  0.00     0.219 HD
ENDBRANCH  18  22
ENDBRANCH   8  16
ENDBRANCH   3   4
TORSDOF 4
ENDMDL
MODEL 8
REMARK VINA RESULT:      -7.4      4.468      6.940
REMARK  4 active torsions:
REMARK  status: ('A' for Active; 'I' for Inactive)
REMARK    1  A    between atoms: C3_3  and  C4_4 
REMARK    2  A    between atoms: C6_6  and  C7_7 
REMARK    3  A    between atoms: N2_15  and  C13_16 
REMARK    4  A    between atoms: C14_18  and  O1_19 
ROOT
HETATM    1  C1  UNL     1      23.475   6.012  51.431  1.00  0.00     0.012 C 
HETATM    2  C2  UNL     1      23.228   4.924  51.900  1.00  0.00    -0.115 C 
HETATM    3  C3  UNL     1      22.935   3.616  52.489  1.00  0.00     0.120 C 
ENDROOT
BRANCH   3   4
HETATM    4  C4  UNL     1      22.955   2.515  51.468  1.00  0.00     0.129 C 
HETATM    5  C5  UNL     1      24.358   2.070  51.130  1.00  0.00     0.090 C 
HETATM    6  C6  UNL     1      24.610   1.005  52.160  1.00  0.00     0.067 C 
HETATM    7  N1  UNL     1      23.476   0.603  52.610  1.00  0.00    -0.174 NA
HETATM    8  N2  UNL     1      22.403   1.271  52.011  1.00  0.00    -0.249 N 
BRANCH   6   9
HETATM    9  C7  UNL     1      25.923   0.518  52.570  1.00  0.00    -0.010 A 
HETATM   10  C8  UNL     1      26.894   1.429  52.911  1.00  0.00     0.015 A 
HETATM   11  C9  UNL     1      28.123   0.930  53.291  1.00  0.00     0.024 A 
HETATM   12  C10 UNL     1      28.401  -0.430  53.340  1.00  0.00     0.034 A 
HETATM   13 CL1  UNL     1      29.964  -1.067  53.824  1.00  0.00    -0.084 Cl
HETATM   14  C11 UNL     1      27.430  -1.349  52.997  1.00  0.00     0.024 A 
HETATM   15  C12 UNL     1      26.193  -0.828  52.615  1.00  0.00     0.015 A 
ENDBRANCH   6   9
BRANCH   8  16
HETATM   16  C13 UNL     1      21.035   0.806  51.952  1.00  0.00     0.135 A 
HETATM   17  N3  UNL     1      20.740  -0.016  52.904  1.00  0.00    -0.209 NA
HETATM   18  C14 UNL     1      19.465  -0.606  53.060  1.00  0.00     0.170 A 
HETATM   19  C15 UNL     1      18.540  -0.283  52.168  1.00  0.00     0.103 A 
HETATM   20  S1  UNL     1      18.662   0.815  50.761  1.00  0.00    -0.130 SA
HETATM   21  C16 UNL     1      20.367   1.434  50.780  1.00  0.00     0.159 A 
BRANCH  18  22
HETATM   22  O1  UNL     1      19.122  -1.492  54.074  1.00  0.00    -0.344 OA
HETATM   23  H11 UNL     1      19.657  -1.619  54.921  1.00  0.00     0.219 HD
ENDBRANCH  18  22
ENDBRANCH   8  16
ENDBRANCH   3   4
TORSDOF 4
ENDMDL
MODEL 9
REMARK VINA RESULT:      -7.4      4.607      6.898
REMARK  4 active torsions:
REMARK  status: ('A' for Active; 'I' for Inactive)
REMARK    1  A    between atoms: C3_3  and  C4_4 
REMARK    2  A    between atoms: C6_6  and  C7_7 
REMARK    3  A    between atoms: N2_15  and  C13_16 
REMARK    4  A    between atoms: C14_18  and  O1_19 
ROOT
HETATM    1  C1  UNL     1      21.668   3.978  51.565  1.00  0.00     0.012 C 
HETATM    2  C2  UNL     1      22.798   3.680  51.879  1.00  0.00    -0.115 C 
HETATM    3  C3  UNL     1      24.165   3.338  52.275  1.00  0.00     0.120 C 
ENDROOT
BRANCH   3   4
HETATM    4  C4  UNL     1      24.854   2.478  51.255  1.00  0.00     0.129 C 
HETATM    5  C5  UNL     1      24.923   3.137  49.899  1.00  0.00     0.090 C 
HETATM    6  C6  UNL     1      26.207   3.913  49.989  1.00  0.00     0.067 C 
HETATM    7  N1  UNL     1      26.917   3.409  50.932  1.00  0.00    -0.174 NA
HETATM    8  N2  UNL     1      26.280   2.331  51.555  1.00  0.00    -0.249 N 
BRANCH   6   9
HETATM    9  C7  UNL     1      26.574   5.044  49.141  1.00  0.00    -0.010 A 
HETATM   10  C8  UNL     1      25.609   5.963  48.804  1.00  0.00     0.015 A 
HETATM   11  C9  UNL     1      25.995   7.016  48.001  1.00  0.00     0.024 A 
HETATM   12  C10 UNL     1      27.293   7.172  47.534  1.00  0.00     0.034 A 
HETATM   13 CL1  UNL     1      27.785   8.512  46.511  1.00  0.00    -0.084 Cl
HETATM   14  C11 UNL     1      28.265   6.251  47.868  1.00  0.00     0.024 A 
HETATM   15  C12 UNL     1      27.859   5.192  48.682  1.00  0.00     0.015 A 
ENDBRANCH   6   9
BRANCH   8  16
HETATM   16  C13 UNL     1      26.924   1.294  52.331  1.00  0.00     0.135 A 
HETATM   17  N3  UNL     1      27.709   1.760  53.244  1.00  0.00    -0.209 NA
HETATM   18  C14 UNL     1      28.448   0.943  54.130  1.00  0.00     0.170 A 
HETATM   19  C15 UNL     1      28.312  -0.367  53.996  1.00  0.00     0.103 A 
HETATM   20  S1  UNL     1      27.308  -1.285  52.833  1.00  0.00    -0.130 SA
HETATM   21  C16 UNL     1      26.471  -0.031  51.825  1.00  0.00     0.159 A 
BRANCH  18  22
HETATM   22  O1  UNL     1      29.299   1.419  55.121  1.00  0.00    -0.344 OA
HETATM   23  H11 UNL     1      30.185   1.870  54.940  1.00  0.00     0.219 HD
ENDBRANCH  18  22
ENDBRANCH   8  16
ENDBRANCH   3   4
TORSDOF 4
ENDMDL
