MODEL 1
REMARK VINA RESULT:      -8.6      0.000      0.000
REMARK  8 active torsions:
REMARK  status: ('A' for Active; 'I' for Inactive)
REMARK    1  A    between atoms: C6_8  and  N3_9 
REMARK    2  A    between atoms: N3_9  and  C7_10 
REMARK    3  A    between atoms: N4_18  and  C15_19 
REMARK    4  A    between atoms: C15_19  and  C16_20 
REMARK    5  A    between atoms: C23_27  and  N5_28 
REMARK       I    between atoms: N5_28  and  C24_29 
REMARK    6  A    between atoms: C24_29  and  C25_31 
REMARK    7  A    between atoms: C25_31  and  C26_32 
REMARK    8  A    between atoms: C26_32  and  O2_33 
ROOT
HETATM    1  C1  UNL     1      23.627  -1.273  55.520  1.00  0.00     0.046 C 
HETATM    2  C2  UNL     1      22.511  -0.842  54.629  1.00  0.00    -0.054 A 
HETATM    3  C3  UNL     1      21.222  -0.651  54.849  1.00  0.00     0.037 A 
HETATM    4  C4  UNL     1      20.681  -0.228  53.559  1.00  0.00     0.070 A 
HETATM    5  N1  UNL     1      19.380   0.090  53.318  1.00  0.00    -0.241 NA
HETATM    6  C5  UNL     1      19.022   0.486  52.058  1.00  0.00     0.235 A 
HETATM    7  N2  UNL     1      19.964   0.547  51.100  1.00  0.00    -0.224 NA
HETATM    8  C6  UNL     1      21.238   0.223  51.372  1.00  0.00     0.140 A 
HETATM    9  C22 UNL     1      21.681  -0.182  52.606  1.00  0.00     0.043 A 
HETATM   10  C23 UNL     1      22.968  -0.589  53.209  1.00  0.00     0.153 A 
ENDROOT
BRANCH   8  11
HETATM   11  N3  UNL     1      22.131   0.347  50.279  1.00  0.00    -0.340 N 
HETATM   12  H6  UNL     1      22.536  -0.412  49.685  1.00  0.00     0.167 HD
BRANCH  11  13
HETATM   13  C7  UNL     1      22.470   1.700  50.011  1.00  0.00     0.034 A 
HETATM   14  C8  UNL     1      23.067   2.550  50.887  1.00  0.00     0.032 A 
HETATM   15  C9  UNL     1      23.436   3.855  50.667  1.00  0.00     0.032 A 
HETATM   16  C10 UNL     1      23.156   4.332  49.402  1.00  0.00     0.037 A 
HETATM   17  C11 UNL     1      22.550   3.545  48.447  1.00  0.00    -0.028 A 
HETATM   18  N4  UNL     1      23.365   5.573  48.741  1.00  0.00    -0.376 N 
HETATM   19  C12 UNL     1      22.205   2.230  48.745  1.00  0.00     0.039 A 
HETATM   20  C13 UNL     1      22.343   4.236  47.159  1.00  0.00     0.060 C 
HETATM   21  C14 UNL     1      22.630   5.680  47.500  1.00  0.00     0.128 C 
BRANCH  18  22
HETATM   22  C15 UNL     1      24.253   6.591  49.295  1.00  0.00     0.161 C 
BRANCH  22  23
HETATM   23  C16 UNL     1      25.660   6.321  48.904  1.00  0.00    -0.040 A 
HETATM   24  C17 UNL     1      26.302   7.410  48.296  1.00  0.00     0.009 A 
HETATM   25  C18 UNL     1      27.611   7.376  47.857  1.00  0.00     0.001 A 
HETATM   26  C19 UNL     1      28.314   6.205  48.028  1.00  0.00     0.000 A 
HETATM   27  C20 UNL     1      27.708   5.117  48.623  1.00  0.00     0.001 A 
HETATM   28  C21 UNL     1      26.400   5.172  49.056  1.00  0.00     0.009 A 
ENDBRANCH  22  23
ENDBRANCH  18  22
ENDBRANCH  11  13
ENDBRANCH   8  11
BRANCH  10  29
HETATM   29  N5  UNL     1      23.909   0.525  53.329  1.00  0.00    -0.348 N 
HETATM   30  C24 UNL     1      25.284   0.381  52.917  1.00  0.00     0.220 C 
HETATM   31  O1  UNL     1      25.536  -0.767  52.471  1.00  0.00    -0.274 OA
HETATM   32  H22 UNL     1      23.431   1.376  53.739  1.00  0.00     0.163 HD
BRANCH  30  33
HETATM   33  C25 UNL     1      26.000   1.655  53.148  1.00  0.00     0.128 C 
BRANCH  33  34
HETATM   34  C26 UNL     1      27.341   1.731  52.460  1.00  0.00     0.173 C 
BRANCH  34  35
HETATM   35  O2  UNL     1      27.475   2.891  51.685  1.00  0.00    -0.400 OA
HETATM   36  H27 UNL     1      27.370   3.670  52.297  1.00  0.00     0.209 HD
ENDBRANCH  34  35
ENDBRANCH  33  34
ENDBRANCH  30  33
ENDBRANCH  10  29
TORSDOF 8
ENDMDL
MODEL 2
REMARK VINA RESULT:      -8.3      3.512      8.399
REMARK  8 active torsions:
REMARK  status: ('A' for Active; 'I' for Inactive)
REMARK    1  A    between atoms: C6_8  and  N3_9 
REMARK    2  A    between atoms: N3_9  and  C7_10 
REMARK    3  A    between atoms: N4_18  and  C15_19 
REMARK    4  A    between atoms: C15_19  and  C16_20 
REMARK    5  A    between atoms: C23_27  and  N5_28 
REMARK       I    between atoms: N5_28  and  C24_29 
REMARK    6  A    between atoms: C24_29  and  C25_31 
REMARK    7  A    between atoms: C25_31  and  C26_32 
REMARK    8  A    between atoms: C26_32  and  O2_33 
ROOT
HETATM    1  C1  UNL     1      27.324   9.360  45.122  1.00  0.00     0.046 C 
HETATM    2  C2  UNL     1      26.100   8.677  45.633  1.00  0.00    -0.054 A 
HETATM    3  C3  UNL     1      24.975   8.311  45.043  1.00  0.00     0.037 A 
HETATM    4  C4  UNL     1      24.184   7.686  46.100  1.00  0.00     0.070 A 
HETATM    5  N1  UNL     1      22.944   7.148  45.941  1.00  0.00    -0.241 NA
HETATM    6  C5  UNL     1      22.329   6.581  47.024  1.00  0.00     0.235 A 
HETATM    7  N2  UNL     1      22.966   6.574  48.208  1.00  0.00    -0.224 NA
HETATM    8  C6  UNL     1      24.188   7.116  48.330  1.00  0.00     0.140 A 
HETATM    9  C22 UNL     1      24.875   7.703  47.297  1.00  0.00     0.043 A 
HETATM   10  C23 UNL     1      26.185   8.362  47.110  1.00  0.00     0.153 A 
ENDROOT
BRANCH   8  11
HETATM   11  N3  UNL     1      24.754   7.027  49.627  1.00  0.00    -0.340 N 
HETATM   12  H6  UNL     1      25.028   7.805  50.268  1.00  0.00     0.167 HD
BRANCH  11  13
HETATM   13  C7  UNL     1      24.937   5.682  50.042  1.00  0.00     0.034 A 
HETATM   14  C8  UNL     1      25.842   4.813  49.519  1.00  0.00     0.032 A 
HETATM   15  C9  UNL     1      26.074   3.514  49.903  1.00  0.00     0.032 A 
HETATM   16  C10 UNL     1      25.281   3.066  50.942  1.00  0.00     0.037 A 
HETATM   17  C11 UNL     1      24.335   3.873  51.534  1.00  0.00    -0.028 A 
HETATM   18  N4  UNL     1      25.182   1.841  51.656  1.00  0.00    -0.376 N 
HETATM   19  C12 UNL     1      24.158   5.180  51.089  1.00  0.00     0.039 A 
HETATM   20  C13 UNL     1      23.598   3.212  52.628  1.00  0.00     0.060 C 
HETATM   21  C14 UNL     1      23.991   1.761  52.473  1.00  0.00     0.128 C 
BRANCH  18  22
HETATM   22  C15 UNL     1      26.213   0.813  51.552  1.00  0.00     0.161 C 
BRANCH  22  23
HETATM   23  C16 UNL     1      27.270   1.031  52.573  1.00  0.00    -0.040 A 
HETATM   24  C17 UNL     1      27.667  -0.135  53.242  1.00  0.00     0.009 A 
HETATM   25  C18 UNL     1      28.635  -0.158  54.226  1.00  0.00     0.001 A 
HETATM   26  C19 UNL     1      29.236   1.034  54.562  1.00  0.00     0.000 A 
HETATM   27  C20 UNL     1      28.866   2.198  53.920  1.00  0.00     0.001 A 
HETATM   28  C21 UNL     1      27.897   2.199  52.939  1.00  0.00     0.009 A 
ENDBRANCH  22  23
ENDBRANCH  18  22
ENDBRANCH  11  13
ENDBRANCH   8  11
BRANCH  10  29
HETATM   29  N5  UNL     1      27.305   7.423  47.211  1.00  0.00    -0.348 N 
HETATM   30  C24 UNL     1      28.098   7.344  48.413  1.00  0.00     0.220 C 
HETATM   31  O1  UNL     1      27.712   8.147  49.299  1.00  0.00    -0.274 OA
HETATM   32  H22 UNL     1      27.409   6.869  46.316  1.00  0.00     0.163 HD
BRANCH  30  33
HETATM   33  C25 UNL     1      29.151   6.319  48.237  1.00  0.00     0.128 C 
BRANCH  33  34
HETATM   34  C26 UNL     1      30.531   6.795  48.620  1.00  0.00     0.173 C 
BRANCH  34  35
HETATM   35  O2  UNL     1      30.493   7.822  49.572  1.00  0.00    -0.400 OA
HETATM   36  H27 UNL     1      30.587   7.398  50.469  1.00  0.00     0.209 HD
ENDBRANCH  34  35
ENDBRANCH  33  34
ENDBRANCH  30  33
ENDBRANCH  10  29
TORSDOF 8
ENDMDL
MODEL 3
REMARK VINA RESULT:      -8.2      4.392     10.521
REMARK  8 active torsions:
REMARK  status: ('A' for Active; 'I' for Inactive)
REMARK    1  A    between atoms: C6_8  and  N3_9 
REMARK    2  A    between atoms: N3_9  and  C7_10 
REMARK    3  A    between atoms: N4_18  and  C15_19 
REMARK    4  A    between atoms: C15_19  and  C16_20 
REMARK    5  A    between atoms: C23_27  and  N5_28 
REMARK       I    between atoms: N5_28  and  C24_29 
REMARK    6  A    between atoms: C24_29  and  C25_31 
REMARK    7  A    between atoms: C25_31  and  C26_32 
REMARK    8  A    between atoms: C26_32  and  O2_33 
ROOT
HETATM    1  C1  UNL     1      33.380  10.682  46.829  1.00  0.00     0.046 C 
HETATM    2  C2  UNL     1      31.945  11.056  46.989  1.00  0.00    -0.054 A 
HETATM    3  C3  UNL     1      31.154  11.858  46.298  1.00  0.00     0.037 A 
HETATM    4  C4  UNL     1      29.861  11.783  46.975  1.00  0.00     0.070 A 
HETATM    5  N1  UNL     1      28.735  12.446  46.596  1.00  0.00    -0.241 NA
HETATM    6  C5  UNL     1      27.589  12.265  47.321  1.00  0.00     0.235 A 
HETATM    7  N2  UNL     1      27.612  11.441  48.383  1.00  0.00    -0.224 NA
HETATM    8  C6  UNL     1      28.741  10.803  48.731  1.00  0.00     0.140 A 
HETATM    9  C22 UNL     1      29.931  10.928  48.059  1.00  0.00     0.043 A 
HETATM   10  C23 UNL     1      31.299  10.381  48.179  1.00  0.00     0.153 A 
ENDROOT
BRANCH   8  11
HETATM   11  N3  UNL     1      28.623   9.952  49.858  1.00  0.00    -0.340 N 
HETATM   12  H6  UNL     1      29.135  10.008  50.767  1.00  0.00     0.167 HD
BRANCH  11  13
HETATM   13  C7  UNL     1      27.667   8.921  49.655  1.00  0.00     0.034 A 
HETATM   14  C8  UNL     1      27.862   7.804  48.907  1.00  0.00     0.032 A 
HETATM   15  C9  UNL     1      26.980   6.770  48.703  1.00  0.00     0.032 A 
HETATM   16  C10 UNL     1      25.764   6.908  49.343  1.00  0.00     0.037 A 
HETATM   17  C11 UNL     1      25.475   8.008  50.122  1.00  0.00    -0.028 A 
HETATM   18  N4  UNL     1      24.592   6.110  49.429  1.00  0.00    -0.376 N 
HETATM   19  C12 UNL     1      26.421   9.016  50.281  1.00  0.00     0.039 A 
HETATM   20  C13 UNL     1      24.129   7.965  50.724  1.00  0.00     0.060 C 
HETATM   21  C14 UNL     1      23.465   6.823  49.990  1.00  0.00     0.128 C 
BRANCH  18  22
HETATM   22  C15 UNL     1      24.587   4.714  48.998  1.00  0.00     0.161 C 
BRANCH  22  23
HETATM   23  C16 UNL     1      24.897   3.816  50.140  1.00  0.00    -0.040 A 
HETATM   24  C17 UNL     1      26.169   3.231  50.076  1.00  0.00     0.009 A 
HETATM   25  C18 UNL     1      26.660   2.366  51.034  1.00  0.00     0.001 A 
HETATM   26  C19 UNL     1      25.847   2.067  52.104  1.00  0.00     0.000 A 
HETATM   27  C20 UNL     1      24.590   2.628  52.193  1.00  0.00     0.001 A 
HETATM   28  C21 UNL     1      24.119   3.491  51.226  1.00  0.00     0.009 A 
ENDBRANCH  22  23
ENDBRANCH  18  22
ENDBRANCH  11  13
ENDBRANCH   8  11
BRANCH  10  29
HETATM   29  N5  UNL     1      31.364   8.954  47.860  1.00  0.00    -0.348 N 
HETATM   30  C24 UNL     1      31.533   7.970  48.901  1.00  0.00     0.220 C 
HETATM   31  O1  UNL     1      31.613   8.485  50.044  1.00  0.00    -0.274 OA
HETATM   32  H22 UNL     1      31.272   8.800  46.817  1.00  0.00     0.163 HD
BRANCH  30  33
HETATM   33  C25 UNL     1      31.563   6.620  48.296  1.00  0.00     0.128 C 
BRANCH  33  34
HETATM   34  C26 UNL     1      32.084   5.550  49.225  1.00  0.00     0.173 C 
BRANCH  34  35
HETATM   35  O2  UNL     1      31.407   5.536  50.451  1.00  0.00    -0.400 OA
HETATM   36  H27 UNL     1      31.639   6.380  50.927  1.00  0.00     0.209 HD
ENDBRANCH  34  35
ENDBRANCH  33  34
ENDBRANCH  30  33
ENDBRANCH  10  29
TORSDOF 8
ENDMDL
MODEL 4
REMARK VINA RESULT:      -8.0      3.418      7.525
REMARK  8 active torsions:
REMARK  status: ('A' for Active; 'I' for Inactive)
REMARK    1  A    between atoms: C6_8  and  N3_9 
REMARK    2  A    between atoms: N3_9  and  C7_10 
REMARK    3  A    between atoms: N4_18  and  C15_19 
REMARK    4  A    between atoms: C15_19  and  C16_20 
REMARK    5  A    between atoms: C23_27  and  N5_28 
REMARK       I    between atoms: N5_28  and  C24_29 
REMARK    6  A    between atoms: C24_29  and  C25_31 
REMARK    7  A    between atoms: C25_31  and  C26_32 
REMARK    8  A    between atoms: C26_32  and  O2_33 
ROOT
HETATM    1  C1  UNL     1      23.422   7.993  45.843  1.00  0.00     0.046 C 
HETATM    2  C2  UNL     1      22.856   6.710  46.352  1.00  0.00    -0.054 A 
HETATM    3  C3  UNL     1      22.412   5.628  45.736  1.00  0.00     0.037 A 
HETATM    4  C4  UNL     1      21.996   4.730  46.810  1.00  0.00     0.070 A 
HETATM    5  N1  UNL     1      21.480   3.482  46.638  1.00  0.00    -0.241 NA
HETATM    6  C5  UNL     1      21.149   2.748  47.743  1.00  0.00     0.235 A 
HETATM    7  N2  UNL     1      21.342   3.280  48.963  1.00  0.00    -0.224 NA
HETATM    8  C6  UNL     1      21.852   4.515  49.098  1.00  0.00     0.140 A 
HETATM    9  C22 UNL     1      22.210   5.317  48.043  1.00  0.00     0.043 A 
HETATM   10  C23 UNL     1      22.780   6.669  47.863  1.00  0.00     0.153 A 
ENDROOT
BRANCH   8  11
HETATM   11  N3  UNL     1      22.020   4.948  50.436  1.00  0.00    -0.340 N 
HETATM   12  H6  UNL     1      21.529   5.727  50.931  1.00  0.00     0.167 HD
BRANCH  11  13
HETATM   13  C7  UNL     1      22.988   4.178  51.133  1.00  0.00     0.034 A 
HETATM   14  C8  UNL     1      22.821   3.631  52.365  1.00  0.00     0.032 A 
HETATM   15  C9  UNL     1      23.715   2.859  53.067  1.00  0.00     0.032 A 
HETATM   16  C10 UNL     1      24.915   2.630  52.422  1.00  0.00     0.037 A 
HETATM   17  C11 UNL     1      25.176   3.144  51.172  1.00  0.00    -0.028 A 
HETATM   18  N4  UNL     1      26.091   1.901  52.746  1.00  0.00    -0.376 N 
HETATM   19  C12 UNL     1      24.219   3.919  50.523  1.00  0.00     0.039 A 
HETATM   20  C13 UNL     1      26.509   2.781  50.652  1.00  0.00     0.060 C 
HETATM   21  C14 UNL     1      27.199   2.201  51.865  1.00  0.00     0.128 C 
BRANCH  18  22
HETATM   22  C15 UNL     1      26.117   0.949  53.854  1.00  0.00     0.161 C 
BRANCH  22  23
HETATM   23  C16 UNL     1      27.089  -0.140  53.580  1.00  0.00    -0.040 A 
HETATM   24  C17 UNL     1      26.548  -1.222  52.872  1.00  0.00     0.009 A 
HETATM   25  C18 UNL     1      27.276  -2.339  52.512  1.00  0.00     0.001 A 
HETATM   26  C19 UNL     1      28.603  -2.383  52.874  1.00  0.00     0.000 A 
HETATM   27  C20 UNL     1      29.163  -1.332  53.571  1.00  0.00     0.001 A 
HETATM   28  C21 UNL     1      28.419  -0.225  53.920  1.00  0.00     0.009 A 
ENDBRANCH  22  23
ENDBRANCH  18  22
ENDBRANCH  11  13
ENDBRANCH   8  11
BRANCH  10  29
HETATM   29  N5  UNL     1      24.177   6.752  48.293  1.00  0.00    -0.348 N 
HETATM   30  C24 UNL     1      24.530   7.382  49.542  1.00  0.00     0.220 C 
HETATM   31  O1  UNL     1      23.529   7.821  50.161  1.00  0.00    -0.274 OA
HETATM   32  H22 UNL     1      24.815   6.304  47.579  1.00  0.00     0.163 HD
BRANCH  30  33
HETATM   33  C25 UNL     1      25.997   7.322  49.722  1.00  0.00     0.128 C 
BRANCH  33  34
HETATM   34  C26 UNL     1      26.665   8.675  49.725  1.00  0.00     0.173 C 
BRANCH  34  35
HETATM   35  O2  UNL     1      26.299   9.444  50.839  1.00  0.00    -0.400 OA
HETATM   36  H27 UNL     1      25.700   8.881  51.403  1.00  0.00     0.209 HD
ENDBRANCH  34  35
ENDBRANCH  33  34
ENDBRANCH  30  33
ENDBRANCH  10  29
TORSDOF 8
ENDMDL
MODEL 5
REMARK VINA RESULT:      -8.0      2.469      7.347
REMARK  8 active torsions:
REMARK  status: ('A' for Active; 'I' for Inactive)
REMARK    1  A    between atoms: C6_8  and  N3_9 
REMARK    2  A    between atoms: N3_9  and  C7_10 
REMARK    3  A    between atoms: N4_18  and  C15_19 
REMARK    4  A    between atoms: C15_19  and  C16_20 
REMARK    5  A    between atoms: C23_27  and  N5_28 
REMARK       I    between atoms: N5_28  and  C24_29 
REMARK    6  A    between atoms: C24_29  and  C25_31 
REMARK    7  A    between atoms: C25_31  and  C26_32 
REMARK    8  A    between atoms: C26_32  and  O2_33 
ROOT
HETATM    1  C1  UNL     1      22.865   7.734  46.635  1.00  0.00     0.046 C 
HETATM    2  C2  UNL     1      22.541   6.317  46.968  1.00  0.00    -0.054 A 
HETATM    3  C3  UNL     1      22.362   5.245  46.215  1.00  0.00     0.037 A 
HETATM    4  C4  UNL     1      22.074   4.168  47.159  1.00  0.00     0.070 A 
HETATM    5  N1  UNL     1      21.832   2.872  46.824  1.00  0.00    -0.241 NA
HETATM    6  C5  UNL     1      21.591   1.967  47.822  1.00  0.00     0.235 A 
HETATM    7  N2  UNL     1      21.600   2.387  49.099  1.00  0.00    -0.224 NA
HETATM    8  C6  UNL     1      21.840   3.674  49.395  1.00  0.00     0.140 A 
HETATM    9  C22 UNL     1      22.091   4.644  48.457  1.00  0.00     0.043 A 
HETATM   10  C23 UNL     1      22.386   6.093  48.456  1.00  0.00     0.153 A 
ENDROOT
BRANCH   8  11
HETATM   11  N3  UNL     1      21.838   3.979  50.779  1.00  0.00    -0.340 N 
HETATM   12  H6  UNL     1      21.258   4.686  51.285  1.00  0.00     0.167 HD
BRANCH  11  13
HETATM   13  C7  UNL     1      22.758   3.179  51.507  1.00  0.00     0.034 A 
HETATM   14  C8  UNL     1      24.083   3.441  51.653  1.00  0.00     0.032 A 
HETATM   15  C9  UNL     1      25.006   2.714  52.367  1.00  0.00     0.032 A 
HETATM   16  C10 UNL     1      24.501   1.594  52.998  1.00  0.00     0.037 A 
HETATM   17  C11 UNL     1      23.170   1.247  52.906  1.00  0.00    -0.028 A 
HETATM   18  N4  UNL     1      25.060   0.587  53.830  1.00  0.00    -0.376 N 
HETATM   19  C12 UNL     1      22.296   2.035  52.163  1.00  0.00     0.039 A 
HETATM   20  C13 UNL     1      22.828   0.023  53.655  1.00  0.00     0.060 C 
HETATM   21  C14 UNL     1      24.182  -0.548  54.008  1.00  0.00     0.128 C 
BRANCH  18  22
HETATM   22  C15 UNL     1      26.383   0.742  54.429  1.00  0.00     0.161 C 
BRANCH  22  23
HETATM   23  C16 UNL     1      27.317  -0.284  53.900  1.00  0.00    -0.040 A 
HETATM   24  C17 UNL     1      28.650  -0.097  54.290  1.00  0.00     0.009 A 
HETATM   25  C18 UNL     1      29.681  -0.935  53.912  1.00  0.00     0.001 A 
HETATM   26  C19 UNL     1      29.371  -2.008  53.107  1.00  0.00     0.000 A 
HETATM   27  C20 UNL     1      28.067  -2.218  52.707  1.00  0.00     0.001 A 
HETATM   28  C21 UNL     1      27.053  -1.369  53.097  1.00  0.00     0.009 A 
ENDBRANCH  22  23
ENDBRANCH  18  22
ENDBRANCH  11  13
ENDBRANCH   8  11
BRANCH  10  29
HETATM   29  N5  UNL     1      23.709   6.397  49.004  1.00  0.00    -0.348 N 
HETATM   30  C24 UNL     1      23.853   6.937  50.334  1.00  0.00     0.220 C 
HETATM   31  O1  UNL     1      22.749   7.098  50.911  1.00  0.00    -0.274 OA
HETATM   32  H22 UNL     1      24.466   6.166  48.302  1.00  0.00     0.163 HD
BRANCH  30  33
HETATM   33  C25 UNL     1      25.289   7.144  50.624  1.00  0.00     0.128 C 
BRANCH  33  34
HETATM   34  C26 UNL     1      26.173   7.060  49.404  1.00  0.00     0.173 C 
BRANCH  34  35
HETATM   35  O2  UNL     1      27.045   5.964  49.456  1.00  0.00    -0.400 OA
HETATM   36  H27 UNL     1      26.966   5.482  48.587  1.00  0.00     0.209 HD
ENDBRANCH  34  35
ENDBRANCH  33  34
ENDBRANCH  30  33
ENDBRANCH  10  29
TORSDOF 8
ENDMDL
MODEL 6
REMARK VINA RESULT:      -7.9      2.585      4.885
REMARK  8 active torsions:
REMARK  status: ('A' for Active; 'I' for Inactive)
REMARK    1  A    between atoms: C6_8  and  N3_9 
REMARK    2  A    between atoms: N3_9  and  C7_10 
REMARK    3  A    between atoms: N4_18  and  C15_19 
REMARK    4  A    between atoms: C15_19  and  C16_20 
REMARK    5  A    between atoms: C23_27  and  N5_28 
REMARK       I    between atoms: N5_28  and  C24_29 
REMARK    6  A    between atoms: C24_29  and  C25_31 
REMARK    7  A    between atoms: C25_31  and  C26_32 
REMARK    8  A    between atoms: C26_32  and  O2_33 
ROOT
HETATM    1  C1  UNL     1      21.547  -0.543  54.583  1.00  0.00     0.046 C 
HETATM    2  C2  UNL     1      22.813  -0.141  53.905  1.00  0.00    -0.054 A 
HETATM    3  C3  UNL     1      24.041  -0.627  53.955  1.00  0.00     0.037 A 
HETATM    4  C4  UNL     1      24.817   0.219  53.051  1.00  0.00     0.070 A 
HETATM    5  N1  UNL     1      26.143   0.075  52.782  1.00  0.00    -0.241 NA
HETATM    6  C5  UNL     1      26.733   0.937  51.898  1.00  0.00     0.235 A 
HETATM    7  N2  UNL     1      25.986   1.897  51.325  1.00  0.00    -0.224 NA
HETATM    8  C6  UNL     1      24.680   2.013  51.615  1.00  0.00     0.140 A 
HETATM    9  C22 UNL     1      24.012   1.191  52.488  1.00  0.00     0.043 A 
HETATM   10  C23 UNL     1      22.631   1.058  53.000  1.00  0.00     0.153 A 
ENDROOT
BRANCH   8  11
HETATM   11  N3  UNL     1      24.007   3.055  50.930  1.00  0.00    -0.340 N 
HETATM   12  H6  UNL     1      22.978   3.196  50.816  1.00  0.00     0.167 HD
BRANCH  11  13
HETATM   13  C7  UNL     1      24.908   3.992  50.358  1.00  0.00     0.034 A 
HETATM   14  C8  UNL     1      25.949   3.684  49.541  1.00  0.00     0.032 A 
HETATM   15  C9  UNL     1      26.829   4.554  48.943  1.00  0.00     0.032 A 
HETATM   16  C10 UNL     1      26.608   5.888  49.225  1.00  0.00     0.037 A 
HETATM   17  C11 UNL     1      25.579   6.296  50.044  1.00  0.00    -0.028 A 
HETATM   18  N4  UNL     1      27.235   7.101  48.831  1.00  0.00    -0.376 N 
HETATM   19  C12 UNL     1      24.727   5.354  50.613  1.00  0.00     0.039 A 
HETATM   20  C13 UNL     1      25.507   7.760  50.214  1.00  0.00     0.060 C 
HETATM   21  C14 UNL     1      26.816   8.234  49.627  1.00  0.00     0.128 C 
BRANCH  18  22
HETATM   22  C15 UNL     1      28.183   7.145  47.722  1.00  0.00     0.161 C 
BRANCH  22  23
HETATM   23  C16 UNL     1      29.575   7.006  48.221  1.00  0.00    -0.040 A 
HETATM   24  C17 UNL     1      30.153   5.757  47.958  1.00  0.00     0.009 A 
HETATM   25  C18 UNL     1      31.438   5.416  48.334  1.00  0.00     0.001 A 
HETATM   26  C19 UNL     1      32.181   6.361  49.004  1.00  0.00     0.000 A 
HETATM   27  C20 UNL     1      31.638   7.600  49.277  1.00  0.00     0.001 A 
HETATM   28  C21 UNL     1      30.353   7.920  48.892  1.00  0.00     0.009 A 
ENDBRANCH  22  23
ENDBRANCH  18  22
ENDBRANCH  11  13
ENDBRANCH   8  11
BRANCH  10  29
HETATM   29  N5  UNL     1      21.695   0.593  51.975  1.00  0.00    -0.348 N 
HETATM   30  C24 UNL     1      20.806   1.515  51.311  1.00  0.00     0.220 C 
HETATM   31  O1  UNL     1      20.945   2.696  51.718  1.00  0.00    -0.274 OA
HETATM   32  H22 UNL     1      21.788  -0.451  51.830  1.00  0.00     0.163 HD
BRANCH  30  33
HETATM   33  C25 UNL     1      19.980   0.777  50.330  1.00  0.00     0.128 C 
BRANCH  33  34
HETATM   34  C26 UNL     1      18.690   0.242  50.903  1.00  0.00     0.173 C 
BRANCH  34  35
HETATM   35  O2  UNL     1      18.689   0.250  52.305  1.00  0.00    -0.400 OA
HETATM   36  H27 UNL     1      18.065  -0.467  52.604  1.00  0.00     0.209 HD
ENDBRANCH  34  35
ENDBRANCH  33  34
ENDBRANCH  30  33
ENDBRANCH  10  29
TORSDOF 8
ENDMDL
MODEL 7
REMARK VINA RESULT:      -7.9      6.733     12.266
REMARK  8 active torsions:
REMARK  status: ('A' for Active; 'I' for Inactive)
REMARK    1  A    between atoms: C6_8  and  N3_9 
REMARK    2  A    between atoms: N3_9  and  C7_10 
REMARK    3  A    between atoms: N4_18  and  C15_19 
REMARK    4  A    between atoms: C15_19  and  C16_20 
REMARK    5  A    between atoms: C23_27  and  N5_28 
REMARK       I    between atoms: N5_28  and  C24_29 
REMARK    6  A    between atoms: C24_29  and  C25_31 
REMARK    7  A    between atoms: C25_31  and  C26_32 
REMARK    8  A    between atoms: C26_32  and  O2_33 
ROOT
HETATM    1  C1  UNL     1      34.288   4.901  42.588  1.00  0.00     0.046 C 
HETATM    2  C2  UNL     1      34.289   5.070  44.069  1.00  0.00    -0.054 A 
HETATM    3  C3  UNL     1      34.679   4.279  45.054  1.00  0.00     0.037 A 
HETATM    4  C4  UNL     1      34.416   5.040  46.273  1.00  0.00     0.070 A 
HETATM    5  N1  UNL     1      34.676   4.614  47.539  1.00  0.00    -0.241 NA
HETATM    6  C5  UNL     1      34.389   5.446  48.586  1.00  0.00     0.235 A 
HETATM    7  N2  UNL     1      33.860   6.656  48.333  1.00  0.00    -0.224 NA
HETATM    8  C6  UNL     1      33.614   7.045  47.071  1.00  0.00     0.140 A 
HETATM    9  C22 UNL     1      33.872   6.273  45.966  1.00  0.00     0.043 A 
HETATM   10  C23 UNL     1      33.726   6.406  44.501  1.00  0.00     0.153 A 
ENDROOT
BRANCH   8  11
HETATM   11  N3  UNL     1      33.072   8.348  46.943  1.00  0.00    -0.340 N 
HETATM   12  H6  UNL     1      33.576   9.243  46.750  1.00  0.00     0.167 HD
BRANCH  11  13
HETATM   13  C7  UNL     1      31.662   8.362  47.106  1.00  0.00     0.034 A 
HETATM   14  C8  UNL     1      30.762   7.882  46.208  1.00  0.00     0.032 A 
HETATM   15  C9  UNL     1      29.393   7.849  46.331  1.00  0.00     0.032 A 
HETATM   16  C10 UNL     1      28.904   8.372  47.512  1.00  0.00     0.037 A 
HETATM   17  C11 UNL     1      29.739   8.883  48.481  1.00  0.00    -0.028 A 
HETATM   18  N4  UNL     1      27.603   8.529  48.063  1.00  0.00    -0.376 N 
HETATM   19  C12 UNL     1      31.117   8.881  48.283  1.00  0.00     0.039 A 
HETATM   20  C13 UNL     1      29.024   9.386  49.669  1.00  0.00     0.060 C 
HETATM   21  C14 UNL     1      27.583   9.403  49.216  1.00  0.00     0.128 C 
BRANCH  18  22
HETATM   22  C15 UNL     1      26.447   7.842  47.495  1.00  0.00     0.161 C 
BRANCH  22  23
HETATM   23  C16 UNL     1      26.188   6.573  48.221  1.00  0.00    -0.040 A 
HETATM   24  C17 UNL     1      27.323   5.767  48.384  1.00  0.00     0.009 A 
HETATM   25  C18 UNL     1      27.306   4.546  49.030  1.00  0.00     0.001 A 
HETATM   26  C19 UNL     1      26.104   4.106  49.537  1.00  0.00     0.000 A 
HETATM   27  C20 UNL     1      24.970   4.878  49.392  1.00  0.00     0.001 A 
HETATM   28  C21 UNL     1      25.009   6.095  48.744  1.00  0.00     0.009 A 
ENDBRANCH  22  23
ENDBRANCH  18  22
ENDBRANCH  11  13
ENDBRANCH   8  11
BRANCH  10  29
HETATM   29  N5  UNL     1      34.653   7.386  43.931  1.00  0.00    -0.348 N 
HETATM   30  C24 UNL     1      34.203   8.709  43.572  1.00  0.00     0.220 C 
HETATM   31  O1  UNL     1      32.981   8.883  43.805  1.00  0.00    -0.274 OA
HETATM   32  H22 UNL     1      35.623   6.973  43.840  1.00  0.00     0.163 HD
BRANCH  30  33
HETATM   33  C25 UNL     1      35.341   9.481  43.026  1.00  0.00     0.128 C 
BRANCH  33  34
HETATM   34  C26 UNL     1      36.496   9.621  43.988  1.00  0.00     0.173 C 
BRANCH  34  35
HETATM   35  O2  UNL     1      36.110   9.399  45.316  1.00  0.00    -0.400 OA
HETATM   36  H27 UNL     1      35.575   8.559  45.332  1.00  0.00     0.209 HD
ENDBRANCH  34  35
ENDBRANCH  33  34
ENDBRANCH  30  33
ENDBRANCH  10  29
TORSDOF 8
ENDMDL
MODEL 8
REMARK VINA RESULT:      -7.9      2.284      4.187
REMARK  8 active torsions:
REMARK  status: ('A' for Active; 'I' for Inactive)
REMARK    1  A    between atoms: C6_8  and  N3_9 
REMARK    2  A    between atoms: N3_9  and  C7_10 
REMARK    3  A    between atoms: N4_18  and  C15_19 
REMARK    4  A    between atoms: C15_19  and  C16_20 
REMARK    5  A    between atoms: C23_27  and  N5_28 
REMARK       I    between atoms: N5_28  and  C24_29 
REMARK    6  A    between atoms: C24_29  and  C25_31 
REMARK    7  A    between atoms: C25_31  and  C26_32 
REMARK    8  A    between atoms: C26_32  and  O2_33 
ROOT
HETATM    1  C1  UNL     1      22.074  -1.395  54.658  1.00  0.00     0.046 C 
HETATM    2  C2  UNL     1      22.993  -0.530  53.862  1.00  0.00    -0.054 A 
HETATM    3  C3  UNL     1      24.247  -0.686  53.475  1.00  0.00     0.037 A 
HETATM    4  C4  UNL     1      24.559   0.525  52.720  1.00  0.00     0.070 A 
HETATM    5  N1  UNL     1      25.751   0.793  52.120  1.00  0.00    -0.241 NA
HETATM    6  C5  UNL     1      25.892   1.967  51.432  1.00  0.00     0.235 A 
HETATM    7  N2  UNL     1      24.853   2.818  51.371  1.00  0.00    -0.224 NA
HETATM    8  C6  UNL     1      23.691   2.523  51.977  1.00  0.00     0.140 A 
HETATM    9  C22 UNL     1      23.466   1.370  52.685  1.00  0.00     0.043 A 
HETATM   10  C23 UNL     1      22.343   0.768  53.436  1.00  0.00     0.153 A 
ENDROOT
BRANCH   8  11
HETATM   11  N3  UNL     1      22.673   3.496  51.820  1.00  0.00    -0.340 N 
HETATM   12  H6  UNL     1      21.713   3.501  52.234  1.00  0.00     0.167 HD
BRANCH  11  13
HETATM   13  C7  UNL     1      23.082   4.573  50.989  1.00  0.00     0.034 A 
HETATM   14  C8  UNL     1      23.789   5.658  51.398  1.00  0.00     0.032 A 
HETATM   15  C9  UNL     1      24.229   6.709  50.630  1.00  0.00     0.032 A 
HETATM   16  C10 UNL     1      23.899   6.627  49.291  1.00  0.00     0.037 A 
HETATM   17  C11 UNL     1      23.182   5.565  48.784  1.00  0.00    -0.028 A 
HETATM   18  N4  UNL     1      24.145   7.447  48.157  1.00  0.00    -0.376 N 
HETATM   19  C12 UNL     1      22.771   4.537  49.627  1.00  0.00     0.039 A 
HETATM   20  C13 UNL     1      22.937   5.660  47.332  1.00  0.00     0.060 C 
HETATM   21  C14 UNL     1      23.340   7.081  47.012  1.00  0.00     0.128 C 
BRANCH  18  22
HETATM   22  C15 UNL     1      25.133   8.522  48.194  1.00  0.00     0.161 C 
BRANCH  22  23
HETATM   23  C16 UNL     1      26.480   8.002  47.844  1.00  0.00    -0.040 A 
HETATM   24  C17 UNL     1      27.125   8.725  46.831  1.00  0.00     0.009 A 
HETATM   25  C18 UNL     1      28.384   8.414  46.355  1.00  0.00     0.001 A 
HETATM   26  C19 UNL     1      29.030   7.333  46.910  1.00  0.00     0.000 A 
HETATM   27  C20 UNL     1      28.420   6.603  47.909  1.00  0.00     0.001 A 
HETATM   28  C21 UNL     1      27.163   6.931  48.371  1.00  0.00     0.009 A 
ENDBRANCH  22  23
ENDBRANCH  18  22
ENDBRANCH  11  13
ENDBRANCH   8  11
BRANCH  10  29
HETATM   29  N5  UNL     1      21.245   0.349  52.564  1.00  0.00    -0.348 N 
HETATM   30  C24 UNL     1      20.062   1.164  52.420  1.00  0.00     0.220 C 
HETATM   31  O1  UNL     1      20.113   2.213  53.108  1.00  0.00    -0.274 OA
HETATM   32  H22 UNL     1      21.465  -0.579  52.106  1.00  0.00     0.163 HD
BRANCH  30  33
HETATM   33  C25 UNL     1      19.126   0.503  51.484  1.00  0.00     0.128 C 
BRANCH  33  34
HETATM   34  C26 UNL     1      18.265  -0.553  52.132  1.00  0.00     0.173 C 
BRANCH  34  35
HETATM   35  O2  UNL     1      18.581  -0.740  53.484  1.00  0.00    -0.400 OA
HETATM   36  H27 UNL     1      18.668   0.164  53.895  1.00  0.00     0.209 HD
ENDBRANCH  34  35
ENDBRANCH  33  34
ENDBRANCH  30  33
ENDBRANCH  10  29
TORSDOF 8
ENDMDL
MODEL 9
REMARK VINA RESULT:      -7.7      8.365     11.553
REMARK  8 active torsions:
REMARK  status: ('A' for Active; 'I' for Inactive)
REMARK    1  A    between atoms: C6_8  and  N3_9 
REMARK    2  A    between atoms: N3_9  and  C7_10 
REMARK    3  A    between atoms: N4_18  and  C15_19 
REMARK    4  A    between atoms: C15_19  and  C16_20 
REMARK    5  A    between atoms: C23_27  and  N5_28 
REMARK       I    between atoms: N5_28  and  C24_29 
REMARK    6  A    between atoms: C24_29  and  C25_31 
REMARK    7  A    between atoms: C25_31  and  C26_32 
REMARK    8  A    between atoms: C26_32  and  O2_33 
ROOT
HETATM    1  C1  UNL     1      27.598  14.123  47.645  1.00  0.00     0.046 C 
HETATM    2  C2  UNL     1      27.236  12.734  48.051  1.00  0.00    -0.054 A 
HETATM    3  C3  UNL     1      26.122  12.034  47.925  1.00  0.00     0.037 A 
HETATM    4  C4  UNL     1      26.424  10.737  48.528  1.00  0.00     0.070 A 
HETATM    5  N1  UNL     1      25.561   9.688  48.612  1.00  0.00    -0.241 NA
HETATM    6  C5  UNL     1      25.992   8.527  49.192  1.00  0.00     0.235 A 
HETATM    7  N2  UNL     1      27.250   8.458  49.661  1.00  0.00    -0.224 NA
HETATM    8  C6  UNL     1      28.075   9.513  49.563  1.00  0.00     0.140 A 
HETATM    9  C22 UNL     1      27.724  10.712  48.997  1.00  0.00     0.043 A 
HETATM   10  C23 UNL     1      28.374  12.016  48.742  1.00  0.00     0.153 A 
ENDROOT
BRANCH   8  11
HETATM   11  N3  UNL     1      29.378   9.302  50.081  1.00  0.00    -0.340 N 
HETATM   12  H6  UNL     1      29.727   9.483  51.048  1.00  0.00     0.167 HD
BRANCH  11  13
HETATM   13  C7  UNL     1      30.264   8.771  49.106  1.00  0.00     0.034 A 
HETATM   14  C8  UNL     1      31.544   8.381  49.336  1.00  0.00     0.032 A 
HETATM   15  C9  UNL     1      32.429   7.839  48.435  1.00  0.00     0.032 A 
HETATM   16  C10 UNL     1      31.933   7.686  47.155  1.00  0.00     0.037 A 
HETATM   17  C11 UNL     1      30.647   8.055  46.826  1.00  0.00    -0.028 A 
HETATM   18  N4  UNL     1      32.464   7.173  45.941  1.00  0.00    -0.376 N 
HETATM   19  C12 UNL     1      29.809   8.598  47.796  1.00  0.00     0.039 A 
HETATM   20  C13 UNL     1      30.307   7.805  45.412  1.00  0.00     0.060 C 
HETATM   21  C14 UNL     1      31.649   7.495  44.790  1.00  0.00     0.128 C 
BRANCH  18  22
HETATM   22  C15 UNL     1      33.699   6.394  45.918  1.00  0.00     0.161 C 
BRANCH  22  23
HETATM   23  C16 UNL     1      33.452   5.014  46.407  1.00  0.00    -0.040 A 
HETATM   24  C17 UNL     1      34.457   4.519  47.250  1.00  0.00     0.009 A 
HETATM   25  C18 UNL     1      34.426   3.260  47.817  1.00  0.00     0.001 A 
HETATM   26  C19 UNL     1      33.347   2.455  47.531  1.00  0.00     0.000 A 
HETATM   27  C20 UNL     1      32.343   2.915  46.705  1.00  0.00     0.001 A 
HETATM   28  C21 UNL     1      32.392   4.176  46.150  1.00  0.00     0.009 A 
ENDBRANCH  22  23
ENDBRANCH  18  22
ENDBRANCH  11  13
ENDBRANCH   8  11
BRANCH  10  29
HETATM   29  N5  UNL     1      29.418  11.932  47.718  1.00  0.00    -0.348 N 
HETATM   30  C24 UNL     1      30.814  11.998  48.077  1.00  0.00     0.220 C 
HETATM   31  O1  UNL     1      30.988  12.130  49.314  1.00  0.00    -0.274 OA
HETATM   32  H22 UNL     1      28.990  11.825  46.756  1.00  0.00     0.163 HD
BRANCH  30  33
HETATM   33  C25 UNL     1      31.638  11.887  46.853  1.00  0.00     0.128 C 
BRANCH  33  34
HETATM   34  C26 UNL     1      30.958  12.414  45.613  1.00  0.00     0.173 C 
BRANCH  34  35
HETATM   35  O2  UNL     1      30.599  13.763  45.738  1.00  0.00    -0.400 OA
HETATM   36  H27 UNL     1      30.726  14.016  46.693  1.00  0.00     0.209 HD
ENDBRANCH  34  35
ENDBRANCH  33  34
ENDBRANCH  30  33
ENDBRANCH  10  29
TORSDOF 8
ENDMDL
