MODEL 1
REMARK VINA RESULT:      -8.6      0.000      0.000
REMARK  4 active torsions:
REMARK  status: ('A' for Active; 'I' for Inactive)
REMARK    1  A    between atoms: O1_2  and  C2_3 
REMARK    2  A    between atoms: C5_6  and  O2_7 
REMARK    3  A    between atoms: O2_7  and  C6_8 
REMARK    4  A    between atoms: C14_18  and  C15_19 
ROOT
HETATM    1  C6  UNL     1      24.825   1.666  51.808  1.00  0.00     0.176 C 
HETATM    2  N1  UNL     1      23.717   1.583  51.145  1.00  0.00    -0.153 NA
HETATM    3  N2  UNL     1      22.489   1.166  51.671  1.00  0.00    -0.280 N 
HETATM    4  C7  UNL     1      22.230   0.418  52.879  1.00  0.00     0.034 C 
HETATM    5  C8  UNL     1      23.088  -0.084  53.775  1.00  0.00    -0.051 C 
HETATM    6  C9  UNL     1      22.537  -0.833  54.962  1.00  0.00     0.063 C 
HETATM    7  C10 UNL     1      21.421  -1.720  54.563  1.00  0.00    -0.026 C 
HETATM    8  C11 UNL     1      20.585  -1.189  53.679  1.00  0.00    -0.024 C 
HETATM    9  C12 UNL     1      20.768   0.187  53.139  1.00  0.00     0.085 C 
HETATM   10  C13 UNL     1      24.533   0.048  53.679  1.00  0.00     0.056 C 
HETATM   11  C14 UNL     1      25.074   1.354  53.240  1.00  0.00     0.128 C 
HETATM   12  H6  UNL     1      21.554   1.369  51.206  1.00  0.00     0.189 HD
ENDROOT
BRANCH   1  13
HETATM   13  O2  UNL     1      25.723   2.118  50.850  1.00  0.00    -0.293 OA
BRANCH  13  14
HETATM   14  C5  UNL     1      25.716   3.440  50.424  1.00  0.00     0.077 A 
HETATM   15  C4  UNL     1      24.908   4.498  50.783  1.00  0.00     0.040 A 
HETATM   16  C3  UNL     1      25.117   5.730  50.198  1.00  0.00     0.039 A 
HETATM   17  C2  UNL     1      26.105   5.942  49.267  1.00  0.00     0.068 A 
HETATM   18  C19 UNL     1      26.918   4.895  48.901  1.00  0.00     0.039 A 
HETATM   19  C18 UNL     1      26.725   3.635  49.481  1.00  0.00     0.040 A 
BRANCH  17  20
HETATM   20  O1  UNL     1      26.140   7.243  48.812  1.00  0.00    -0.356 OA
HETATM   21  C1  UNL     1      26.483   8.314  49.658  1.00  0.00     0.210 C 
ENDBRANCH  17  20
ENDBRANCH  13  14
ENDBRANCH   1  13
BRANCH  11  22
HETATM   22  C15 UNL     1      26.550   1.357  53.426  1.00  0.00     0.086 A 
HETATM   23  N3  UNL     1      27.303   2.243  53.766  1.00  0.00    -0.257 NA
HETATM   24  C16 UNL     1      28.619   2.046  53.878  1.00  0.00     0.124 A 
HETATM   25  C17 UNL     1      29.178   0.706  53.578  1.00  0.00     0.070 A 
HETATM   26  S1  UNL     1      27.579  -0.181  53.131  1.00  0.00    -0.084 SA
ENDBRANCH  11  22
TORSDOF 4
ENDMDL
MODEL 2
REMARK VINA RESULT:      -8.5      2.153      6.820
REMARK  4 active torsions:
REMARK  status: ('A' for Active; 'I' for Inactive)
REMARK    1  A    between atoms: O1_2  and  C2_3 
REMARK    2  A    between atoms: C5_6  and  O2_7 
REMARK    3  A    between atoms: O2_7  and  C6_8 
REMARK    4  A    between atoms: C14_18  and  C15_19 
ROOT
HETATM    1  C6  UNL     1      24.700   2.195  52.113  1.00  0.00     0.176 C 
HETATM    2  N1  UNL     1      23.867   3.166  51.926  1.00  0.00    -0.153 NA
HETATM    3  N2  UNL     1      23.899   4.064  50.853  1.00  0.00    -0.280 N 
HETATM    4  C7  UNL     1      24.993   4.364  49.958  1.00  0.00     0.034 C 
HETATM    5  C8  UNL     1      26.243   3.888  49.945  1.00  0.00    -0.051 C 
HETATM    6  C9  UNL     1      27.192   4.379  48.881  1.00  0.00     0.063 C 
HETATM    7  C10 UNL     1      27.050   5.838  48.670  1.00  0.00    -0.026 C 
HETATM    8  C11 UNL     1      25.796   6.276  48.683  1.00  0.00    -0.024 C 
HETATM    9  C12 UNL     1      24.638   5.364  48.894  1.00  0.00     0.085 C 
HETATM   10  C13 UNL     1      26.752   2.916  50.898  1.00  0.00     0.056 C 
HETATM   11  C14 UNL     1      25.861   1.795  51.275  1.00  0.00     0.128 C 
HETATM   12  H6  UNL     1      23.067   4.661  50.563  1.00  0.00     0.189 HD
ENDROOT
BRANCH   1  13
HETATM   13  O2  UNL     1      24.242   1.620  53.291  1.00  0.00    -0.293 OA
BRANCH  13  14
HETATM   14  C5  UNL     1      23.041   0.924  53.333  1.00  0.00     0.077 A 
HETATM   15  C4  UNL     1      21.779   1.278  52.903  1.00  0.00     0.040 A 
HETATM   16  C3  UNL     1      20.741   0.385  53.066  1.00  0.00     0.039 A 
HETATM   17  C2  UNL     1      20.918  -0.850  53.642  1.00  0.00     0.068 A 
HETATM   18  C19 UNL     1      22.171  -1.215  54.074  1.00  0.00     0.039 A 
HETATM   19  C18 UNL     1      23.242  -0.326  53.920  1.00  0.00     0.040 A 
BRANCH  17  20
HETATM   20  O1  UNL     1      19.750  -1.581  53.706  1.00  0.00    -0.356 OA
HETATM   21  C1  UNL     1      18.530  -1.069  53.230  1.00  0.00     0.210 C 
ENDBRANCH  17  20
ENDBRANCH  13  14
ENDBRANCH   1  13
BRANCH  11  22
HETATM   22  C15 UNL     1      26.637   0.801  52.066  1.00  0.00     0.086 A 
HETATM   23  N3  UNL     1      26.587  -0.409  52.085  1.00  0.00    -0.257 NA
HETATM   24  C16 UNL     1      27.379  -1.135  52.877  1.00  0.00     0.124 A 
HETATM   25  C17 UNL     1      28.348  -0.444  53.762  1.00  0.00     0.070 A 
HETATM   26  S1  UNL     1      27.953   1.335  53.289  1.00  0.00    -0.084 SA
ENDBRANCH  11  22
TORSDOF 4
ENDMDL
MODEL 3
REMARK VINA RESULT:      -8.0      3.536      7.985
REMARK  4 active torsions:
REMARK  status: ('A' for Active; 'I' for Inactive)
REMARK    1  A    between atoms: O1_2  and  C2_3 
REMARK    2  A    between atoms: C5_6  and  O2_7 
REMARK    3  A    between atoms: O2_7  and  C6_8 
REMARK    4  A    between atoms: C14_18  and  C15_19 
ROOT
HETATM    1  C6  UNL     1      25.553   4.099  50.012  1.00  0.00     0.176 C 
HETATM    2  N1  UNL     1      26.726   3.830  49.539  1.00  0.00    -0.153 NA
HETATM    3  N2  UNL     1      27.611   4.766  48.990  1.00  0.00    -0.280 N 
HETATM    4  C7  UNL     1      27.329   6.093  48.493  1.00  0.00     0.034 C 
HETATM    5  C8  UNL     1      26.165   6.744  48.408  1.00  0.00    -0.051 C 
HETATM    6  C9  UNL     1      26.159   8.142  47.841  1.00  0.00     0.063 C 
HETATM    7  C10 UNL     1      27.050   8.245  46.664  1.00  0.00    -0.026 C 
HETATM    8  C11 UNL     1      28.199   7.592  46.784  1.00  0.00    -0.024 C 
HETATM    9  C12 UNL     1      28.551   6.822  48.009  1.00  0.00     0.085 C 
HETATM   10  C13 UNL     1      24.889   6.189  48.831  1.00  0.00     0.056 C 
HETATM   11  C14 UNL     1      24.865   5.414  50.092  1.00  0.00     0.128 C 
HETATM   12  H6  UNL     1      28.653   4.586  48.871  1.00  0.00     0.189 HD
ENDROOT
BRANCH   1  13
HETATM   13  O2  UNL     1      25.096   2.854  50.425  1.00  0.00    -0.293 OA
BRANCH  13  14
HETATM   14  C5  UNL     1      25.698   2.179  51.478  1.00  0.00     0.077 A 
HETATM   15  C4  UNL     1      26.609   1.144  51.482  1.00  0.00     0.040 A 
HETATM   16  C3  UNL     1      27.055   0.648  52.690  1.00  0.00     0.039 A 
HETATM   17  C2  UNL     1      26.625   1.151  53.894  1.00  0.00     0.068 A 
HETATM   18  C19 UNL     1      25.718   2.184  53.903  1.00  0.00     0.039 A 
HETATM   19  C18 UNL     1      25.249   2.705  52.691  1.00  0.00     0.040 A 
BRANCH  17  20
HETATM   20  O1  UNL     1      27.196   0.512  54.974  1.00  0.00    -0.356 OA
HETATM   21  C1  UNL     1      28.535   0.080  54.954  1.00  0.00     0.210 C 
ENDBRANCH  17  20
ENDBRANCH  13  14
ENDBRANCH   1  13
BRANCH  11  22
HETATM   22  C15 UNL     1      23.452   5.134  50.464  1.00  0.00     0.086 A 
HETATM   23  N3  UNL     1      22.891   5.177  51.536  1.00  0.00    -0.257 NA
HETATM   24  C16 UNL     1      21.595   4.885  51.669  1.00  0.00     0.124 A 
HETATM   25  C17 UNL     1      20.816   4.496  50.468  1.00  0.00     0.070 A 
HETATM   26  S1  UNL     1      22.186   4.614  49.183  1.00  0.00    -0.084 SA
ENDBRANCH  11  22
TORSDOF 4
ENDMDL
MODEL 4
REMARK VINA RESULT:      -8.0      3.108      5.698
REMARK  4 active torsions:
REMARK  status: ('A' for Active; 'I' for Inactive)
REMARK    1  A    between atoms: O1_2  and  C2_3 
REMARK    2  A    between atoms: C5_6  and  O2_7 
REMARK    3  A    between atoms: O2_7  and  C6_8 
REMARK    4  A    between atoms: C14_18  and  C15_19 
ROOT
HETATM    1  C6  UNL     1      22.744   0.737  52.999  1.00  0.00     0.176 C 
HETATM    2  N1  UNL     1      22.370  -0.007  53.988  1.00  0.00    -0.153 NA
HETATM    3  N2  UNL     1      21.220  -0.804  54.012  1.00  0.00    -0.280 N 
HETATM    4  C7  UNL     1      20.047  -0.724  53.172  1.00  0.00     0.034 C 
HETATM    5  C8  UNL     1      19.754   0.138  52.193  1.00  0.00    -0.051 C 
HETATM    6  C9  UNL     1      18.439  -0.010  51.469  1.00  0.00     0.063 C 
HETATM    7  C10 UNL     1      17.342  -0.319  52.413  1.00  0.00    -0.026 C 
HETATM    8  C11 UNL     1      17.664  -1.183  53.369  1.00  0.00    -0.024 C 
HETATM    9  C12 UNL     1      19.023  -1.783  53.472  1.00  0.00     0.085 C 
HETATM   10  C13 UNL     1      20.630   1.221  51.773  1.00  0.00     0.056 C 
HETATM   11  C14 UNL     1      22.079   0.933  51.683  1.00  0.00     0.128 C 
HETATM   12  H6  UNL     1      21.078  -1.607  54.696  1.00  0.00     0.189 HD
ENDROOT
BRANCH   1  13
HETATM   13  O2  UNL     1      23.919   1.307  53.469  1.00  0.00    -0.293 OA
BRANCH  13  14
HETATM   14  C5  UNL     1      25.123   0.615  53.426  1.00  0.00     0.077 A 
HETATM   15  C4  UNL     1      25.658  -0.202  52.453  1.00  0.00     0.040 A 
HETATM   16  C3  UNL     1      26.894  -0.775  52.664  1.00  0.00     0.039 A 
HETATM   17  C2  UNL     1      27.616  -0.560  53.813  1.00  0.00     0.068 A 
HETATM   18  C19 UNL     1      27.094   0.254  54.790  1.00  0.00     0.039 A 
HETATM   19  C18 UNL     1      25.840   0.847  54.600  1.00  0.00     0.040 A 
BRANCH  17  20
HETATM   20  O1  UNL     1      28.823  -1.227  53.817  1.00  0.00    -0.356 OA
HETATM   21  C1  UNL     1      30.032  -0.571  53.521  1.00  0.00     0.210 C 
ENDBRANCH  17  20
ENDBRANCH  13  14
ENDBRANCH   1  13
BRANCH  11  22
HETATM   22  C15 UNL     1      22.763   2.079  51.026  1.00  0.00     0.086 A 
HETATM   23  N3  UNL     1      23.652   2.105  50.204  1.00  0.00    -0.257 NA
HETATM   24  C16 UNL     1      24.140   3.253  49.728  1.00  0.00     0.124 A 
HETATM   25  C17 UNL     1      23.580   4.536  50.218  1.00  0.00     0.070 A 
HETATM   26  S1  UNL     1      22.299   3.852  51.418  1.00  0.00    -0.084 SA
ENDBRANCH  11  22
TORSDOF 4
ENDMDL
MODEL 5
REMARK VINA RESULT:      -7.8      2.985      7.031
REMARK  4 active torsions:
REMARK  status: ('A' for Active; 'I' for Inactive)
REMARK    1  A    between atoms: O1_2  and  C2_3 
REMARK    2  A    between atoms: C5_6  and  O2_7 
REMARK    3  A    between atoms: O2_7  and  C6_8 
REMARK    4  A    between atoms: C14_18  and  C15_19 
ROOT
HETATM    1  C6  UNL     1      23.563   2.737  51.525  1.00  0.00     0.176 C 
HETATM    2  N1  UNL     1      24.650   3.386  51.264  1.00  0.00    -0.153 NA
HETATM    3  N2  UNL     1      24.775   4.780  51.240  1.00  0.00    -0.280 N 
HETATM    4  C7  UNL     1      23.736   5.778  51.129  1.00  0.00     0.034 C 
HETATM    5  C8  UNL     1      22.415   5.626  50.995  1.00  0.00    -0.051 C 
HETATM    6  C9  UNL     1      21.551   6.859  50.902  1.00  0.00     0.063 C 
HETATM    7  C10 UNL     1      22.178   7.887  50.041  1.00  0.00    -0.026 C 
HETATM    8  C11 UNL     1      23.489   8.017  50.204  1.00  0.00    -0.024 C 
HETATM    9  C12 UNL     1      24.255   7.188  51.177  1.00  0.00     0.085 C 
HETATM   10  C13 UNL     1      21.747   4.336  50.933  1.00  0.00     0.056 C 
HETATM   11  C14 UNL     1      22.217   3.277  51.854  1.00  0.00     0.128 C 
HETATM   12  H6  UNL     1      25.709   5.286  51.305  1.00  0.00     0.189 HD
ENDROOT
BRANCH   1  13
HETATM   13  O2  UNL     1      23.964   1.412  51.421  1.00  0.00    -0.293 OA
BRANCH  13  14
HETATM   14  C5  UNL     1      25.075   0.940  52.107  1.00  0.00     0.077 A 
HETATM   15  C4  UNL     1      26.404   0.887  51.741  1.00  0.00     0.040 A 
HETATM   16  C3  UNL     1      27.322   0.361  52.626  1.00  0.00     0.039 A 
HETATM   17  C2  UNL     1      26.960  -0.115  53.863  1.00  0.00     0.068 A 
HETATM   18  C19 UNL     1      25.639  -0.066  54.240  1.00  0.00     0.039 A 
HETATM   19  C18 UNL     1      24.688   0.463  53.359  1.00  0.00     0.040 A 
BRANCH  17  20
HETATM   20  O1  UNL     1      28.033  -0.595  54.585  1.00  0.00    -0.356 OA
HETATM   21  C1  UNL     1      29.321  -0.682  54.026  1.00  0.00     0.210 C 
ENDBRANCH  17  20
ENDBRANCH  13  14
ENDBRANCH   1  13
BRANCH  11  22
HETATM   22  C15 UNL     1      21.272   2.129  51.800  1.00  0.00     0.086 A 
HETATM   23  N3  UNL     1      20.637   1.669  50.877  1.00  0.00    -0.257 NA
HETATM   24  C16 UNL     1      19.829   0.617  51.030  1.00  0.00     0.124 A 
HETATM   25  C17 UNL     1      19.703  -0.008  52.369  1.00  0.00     0.070 A 
HETATM   26  S1  UNL     1      20.880   1.110  53.323  1.00  0.00    -0.084 SA
ENDBRANCH  11  22
TORSDOF 4
ENDMDL
MODEL 6
REMARK VINA RESULT:      -7.4      2.989      6.372
REMARK  4 active torsions:
REMARK  status: ('A' for Active; 'I' for Inactive)
REMARK    1  A    between atoms: O1_2  and  C2_3 
REMARK    2  A    between atoms: C5_6  and  O2_7 
REMARK    3  A    between atoms: O2_7  and  C6_8 
REMARK    4  A    between atoms: C14_18  and  C15_19 
ROOT
HETATM    1  C6  UNL     1      24.332   1.709  51.690  1.00  0.00     0.176 C 
HETATM    2  N1  UNL     1      24.367   0.542  52.245  1.00  0.00    -0.153 NA
HETATM    3  N2  UNL     1      25.252   0.153  53.257  1.00  0.00    -0.280 N 
HETATM    4  C7  UNL     1      26.501   0.764  53.650  1.00  0.00     0.034 C 
HETATM    5  C8  UNL     1      27.133   1.823  53.134  1.00  0.00    -0.051 C 
HETATM    6  C9  UNL     1      28.443   2.252  53.748  1.00  0.00     0.063 C 
HETATM    7  C10 UNL     1      29.290   1.082  54.071  1.00  0.00    -0.026 C 
HETATM    8  C11 UNL     1      28.632   0.050  54.586  1.00  0.00    -0.024 C 
HETATM    9  C12 UNL     1      27.160   0.081  54.815  1.00  0.00     0.085 C 
HETATM   10  C13 UNL     1      26.637   2.599  52.010  1.00  0.00     0.056 C 
HETATM   11  C14 UNL     1      25.186   2.894  51.968  1.00  0.00     0.128 C 
HETATM   12  H6  UNL     1      25.088  -0.690  53.887  1.00  0.00     0.189 HD
ENDROOT
BRANCH   1  13
HETATM   13  O2  UNL     1      23.300   1.581  50.770  1.00  0.00    -0.293 OA
BRANCH  13  14
HETATM   14  C5  UNL     1      21.971   1.652  51.164  1.00  0.00     0.077 A 
HETATM   15  C4  UNL     1      21.370   2.360  52.184  1.00  0.00     0.040 A 
HETATM   16  C3  UNL     1      20.007   2.252  52.362  1.00  0.00     0.039 A 
HETATM   17  C2  UNL     1      19.221   1.462  51.558  1.00  0.00     0.068 A 
HETATM   18  C19 UNL     1      19.808   0.752  50.537  1.00  0.00     0.039 A 
HETATM   19  C18 UNL     1      21.191   0.845  50.336  1.00  0.00     0.040 A 
BRANCH  17  20
HETATM   20  O1  UNL     1      17.889   1.500  51.910  1.00  0.00    -0.356 OA
HETATM   21  C1  UNL     1      16.904   1.983  51.029  1.00  0.00     0.210 C 
ENDBRANCH  17  20
ENDBRANCH  13  14
ENDBRANCH   1  13
BRANCH  11  22
HETATM   22  C15 UNL     1      24.920   3.876  50.883  1.00  0.00     0.086 A 
HETATM   23  N3  UNL     1      25.424   4.005  49.790  1.00  0.00    -0.257 NA
HETATM   24  C16 UNL     1      25.042   4.965  48.944  1.00  0.00     0.124 A 
HETATM   25  C17 UNL     1      23.968   5.903  49.353  1.00  0.00     0.070 A 
HETATM   26  S1  UNL     1      23.616   5.210  51.068  1.00  0.00    -0.084 SA
ENDBRANCH  11  22
TORSDOF 4
ENDMDL
MODEL 7
REMARK VINA RESULT:      -7.2      3.711      5.296
REMARK  4 active torsions:
REMARK  status: ('A' for Active; 'I' for Inactive)
REMARK    1  A    between atoms: O1_2  and  C2_3 
REMARK    2  A    between atoms: C5_6  and  O2_7 
REMARK    3  A    between atoms: O2_7  and  C6_8 
REMARK    4  A    between atoms: C14_18  and  C15_19 
ROOT
HETATM    1  C6  UNL     1      23.208   2.989  51.122  1.00  0.00     0.176 C 
HETATM    2  N1  UNL     1      22.664   1.873  51.486  1.00  0.00    -0.153 NA
HETATM    3  N2  UNL     1      23.279   0.891  52.270  1.00  0.00    -0.280 N 
HETATM    4  C7  UNL     1      24.685   0.697  52.538  1.00  0.00     0.034 C 
HETATM    5  C8  UNL     1      25.743   1.380  52.088  1.00  0.00    -0.051 C 
HETATM    6  C9  UNL     1      27.120   0.957  52.535  1.00  0.00     0.063 C 
HETATM    7  C10 UNL     1      27.251  -0.518  52.537  1.00  0.00    -0.026 C 
HETATM    8  C11 UNL     1      26.186  -1.165  52.996  1.00  0.00    -0.024 C 
HETATM    9  C12 UNL     1      24.965  -0.452  53.465  1.00  0.00     0.085 C 
HETATM   10  C13 UNL     1      25.653   2.518  51.187  1.00  0.00     0.056 C 
HETATM   11  C14 UNL     1      24.571   3.499  51.428  1.00  0.00     0.128 C 
HETATM   12  H6  UNL     1      22.740   0.132  52.787  1.00  0.00     0.189 HD
ENDROOT
BRANCH   1  13
HETATM   13  O2  UNL     1      22.205   3.591  50.376  1.00  0.00    -0.293 OA
BRANCH  13  14
HETATM   14  C5  UNL     1      22.169   3.476  48.992  1.00  0.00     0.077 A 
HETATM   15  C4  UNL     1      22.496   2.421  48.167  1.00  0.00     0.040 A 
HETATM   16  C3  UNL     1      22.366   2.571  46.802  1.00  0.00     0.039 A 
HETATM   17  C2  UNL     1      21.921   3.739  46.232  1.00  0.00     0.068 A 
HETATM   18  C19 UNL     1      21.591   4.799  47.044  1.00  0.00     0.039 A 
HETATM   19  C18 UNL     1      21.714   4.670  48.433  1.00  0.00     0.040 A 
BRANCH  17  20
HETATM   20  O1  UNL     1      21.867   3.674  44.855  1.00  0.00    -0.356 OA
HETATM   21  C1  UNL     1      20.679   3.936  44.149  1.00  0.00     0.210 C 
ENDBRANCH  17  20
ENDBRANCH  13  14
ENDBRANCH   1  13
BRANCH  11  22
HETATM   22  C15 UNL     1      24.787   4.687  50.559  1.00  0.00     0.086 A 
HETATM   23  N3  UNL     1      25.355   4.796  49.495  1.00  0.00    -0.257 NA
HETATM   24  C16 UNL     1      25.444   5.968  48.860  1.00  0.00     0.124 A 
HETATM   25  C17 UNL     1      24.832   7.171  49.473  1.00  0.00     0.070 A 
HETATM   26  S1  UNL     1      24.140   6.380  51.035  1.00  0.00    -0.084 SA
ENDBRANCH  11  22
TORSDOF 4
ENDMDL
MODEL 8
REMARK VINA RESULT:      -7.1      5.417     10.029
REMARK  4 active torsions:
REMARK  status: ('A' for Active; 'I' for Inactive)
REMARK    1  A    between atoms: O1_2  and  C2_3 
REMARK    2  A    between atoms: C5_6  and  O2_7 
REMARK    3  A    between atoms: O2_7  and  C6_8 
REMARK    4  A    between atoms: C14_18  and  C15_19 
ROOT
HETATM    1  C6  UNL     1      29.611   6.523  48.211  1.00  0.00     0.176 C 
HETATM    2  N1  UNL     1      30.180   5.391  47.953  1.00  0.00    -0.153 NA
HETATM    3  N2  UNL     1      31.522   5.085  48.202  1.00  0.00    -0.280 N 
HETATM    4  C7  UNL     1      32.627   5.986  48.433  1.00  0.00     0.034 C 
HETATM    5  C8  UNL     1      32.653   7.323  48.440  1.00  0.00    -0.051 C 
HETATM    6  C9  UNL     1      33.963   8.019  48.714  1.00  0.00     0.063 C 
HETATM    7  C10 UNL     1      35.081   7.350  48.011  1.00  0.00    -0.026 C 
HETATM    8  C11 UNL     1      35.028   6.023  48.029  1.00  0.00    -0.024 C 
HETATM    9  C12 UNL     1      33.927   5.281  48.704  1.00  0.00     0.085 C 
HETATM   10  C13 UNL     1      31.489   8.160  48.198  1.00  0.00     0.056 C 
HETATM   11  C14 UNL     1      30.208   7.745  48.813  1.00  0.00     0.128 C 
HETATM   12  H6  UNL     1      31.896   4.089  48.250  1.00  0.00     0.189 HD
ENDROOT
BRANCH   1  13
HETATM   13  O2  UNL     1      28.306   6.316  47.785  1.00  0.00    -0.293 OA
BRANCH  13  14
HETATM   14  C5  UNL     1      27.392   5.630  48.574  1.00  0.00     0.077 A 
HETATM   15  C4  UNL     1      27.329   4.300  48.931  1.00  0.00     0.040 A 
HETATM   16  C3  UNL     1      26.298   3.870  49.741  1.00  0.00     0.039 A 
HETATM   17  C2  UNL     1      25.327   4.723  50.206  1.00  0.00     0.068 A 
HETATM   18  C19 UNL     1      25.378   6.052  49.858  1.00  0.00     0.039 A 
HETATM   19  C18 UNL     1      26.415   6.512  49.037  1.00  0.00     0.040 A 
BRANCH  17  20
HETATM   20  O1  UNL     1      24.393   4.087  50.997  1.00  0.00    -0.356 OA
HETATM   21  C1  UNL     1      23.525   4.806  51.840  1.00  0.00     0.210 C 
ENDBRANCH  17  20
ENDBRANCH  13  14
ENDBRANCH   1  13
BRANCH  11  22
HETATM   22  C15 UNL     1      29.210   8.835  48.643  1.00  0.00     0.086 A 
HETATM   23  N3  UNL     1      28.435   9.330  49.432  1.00  0.00    -0.257 NA
HETATM   24  C16 UNL     1      27.606  10.316  49.083  1.00  0.00     0.124 A 
HETATM   25  C17 UNL     1      27.632  10.824  47.690  1.00  0.00     0.070 A 
HETATM   26  S1  UNL     1      28.979   9.704  46.999  1.00  0.00    -0.084 SA
ENDBRANCH  11  22
TORSDOF 4
ENDMDL
MODEL 9
REMARK VINA RESULT:      -7.1      2.941      5.509
REMARK  4 active torsions:
REMARK  status: ('A' for Active; 'I' for Inactive)
REMARK    1  A    between atoms: O1_2  and  C2_3 
REMARK    2  A    between atoms: C5_6  and  O2_7 
REMARK    3  A    between atoms: O2_7  and  C6_8 
REMARK    4  A    between atoms: C14_18  and  C15_19 
ROOT
HETATM    1  C6  UNL     1      22.631   1.801  52.424  1.00  0.00     0.176 C 
HETATM    2  N1  UNL     1      21.987   0.922  53.119  1.00  0.00    -0.153 NA
HETATM    3  N2  UNL     1      20.779   0.322  52.746  1.00  0.00    -0.280 N 
HETATM    4  C7  UNL     1      19.817   0.763  51.762  1.00  0.00     0.034 C 
HETATM    5  C8  UNL     1      19.823   1.855  50.990  1.00  0.00    -0.051 C 
HETATM    6  C9  UNL     1      18.675   2.071  50.036  1.00  0.00     0.063 C 
HETATM    7  C10 UNL     1      17.382   1.730  50.669  1.00  0.00    -0.026 C 
HETATM    8  C11 UNL     1      17.409   0.638  51.424  1.00  0.00    -0.024 C 
HETATM    9  C12 UNL     1      18.648  -0.169  51.610  1.00  0.00     0.085 C 
HETATM   10  C13 UNL     1      20.875   2.858  51.009  1.00  0.00     0.056 C 
HETATM   11  C14 UNL     1      22.274   2.382  51.103  1.00  0.00     0.128 C 
HETATM   12  H6  UNL     1      20.416  -0.581  53.176  1.00  0.00     0.189 HD
ENDROOT
BRANCH   1  13
HETATM   13  O2  UNL     1      23.739   2.069  53.217  1.00  0.00    -0.293 OA
BRANCH  13  14
HETATM   14  C5  UNL     1      24.900   1.313  53.112  1.00  0.00     0.077 A 
HETATM   15  C4  UNL     1      25.118   0.069  52.559  1.00  0.00     0.040 A 
HETATM   16  C3  UNL     1      26.390  -0.463  52.585  1.00  0.00     0.039 A 
HETATM   17  C2  UNL     1      27.453   0.204  53.144  1.00  0.00     0.068 A 
HETATM   18  C19 UNL     1      27.249   1.446  53.697  1.00  0.00     0.039 A 
HETATM   19  C18 UNL     1      25.966   2.008  53.683  1.00  0.00     0.040 A 
BRANCH  17  20
HETATM   20  O1  UNL     1      28.632  -0.507  53.063  1.00  0.00    -0.356 OA
HETATM   21  C1  UNL     1      29.732  -0.211  53.889  1.00  0.00     0.210 C 
ENDBRANCH  17  20
ENDBRANCH  13  14
ENDBRANCH   1  13
BRANCH  11  22
HETATM   22  C15 UNL     1      23.195   3.529  50.878  1.00  0.00     0.086 A 
HETATM   23  N3  UNL     1      23.137   4.677  51.257  1.00  0.00    -0.257 NA
HETATM   24  C16 UNL     1      24.077   5.572  50.945  1.00  0.00     0.124 A 
HETATM   25  C17 UNL     1      25.227   5.151  50.109  1.00  0.00     0.070 A 
HETATM   26  S1  UNL     1      24.757   3.345  49.858  1.00  0.00    -0.084 SA
ENDBRANCH  11  22
TORSDOF 4
ENDMDL
