MODEL 1
REMARK VINA RESULT:      -8.5      0.000      0.000
REMARK  6 active torsions:
REMARK  status: ('A' for Active; 'I' for Inactive)
REMARK    1  A    between atoms: O1_2  and  C2_3 
REMARK    2  A    between atoms: C7_10  and  N1_11 
REMARK    3  A    between atoms: N1_11  and  C8_12 
REMARK    4  A    between atoms: C12_18  and  O2_19 
REMARK    5  A    between atoms: O2_19  and  C13_20 
REMARK    6  A    between atoms: C13_20  and  C14_21 
ROOT
HETATM    1  C8  UNL     1      23.249   2.803  49.767  1.00  0.00     0.145 A 
HETATM    2  N2  UNL     1      23.119   3.017  48.445  1.00  0.00    -0.223 NA
HETATM    3  C9  UNL     1      22.228   2.187  47.828  1.00  0.00     0.236 A 
HETATM    4  N3  UNL     1      21.524   1.225  48.460  1.00  0.00    -0.241 NA
HETATM    5  C10 UNL     1      21.664   1.016  49.800  1.00  0.00     0.077 A 
HETATM    6  C11 UNL     1      22.555   1.834  50.465  1.00  0.00     0.072 A 
HETATM    7  C12 UNL     1      22.254   1.155  51.715  1.00  0.00     0.087 A 
HETATM    8  C20 UNL     1      21.396   0.368  51.073  1.00  0.00     0.070 A 
ENDROOT
BRANCH   1   9
HETATM    9  N1  UNL     1      24.148   3.614  50.490  1.00  0.00    -0.335 N 
HETATM   10  H6  UNL     1      24.162   3.676  51.533  1.00  0.00     0.168 HD
BRANCH   9  11
HETATM   11  C7  UNL     1      25.129   4.432  49.862  1.00  0.00     0.106 A 
HETATM   12  C2  UNL     1      24.995   5.766  49.544  1.00  0.00     0.099 A 
HETATM   13  C3  UNL     1      26.025   6.452  48.934  1.00  0.00     0.058 A 
HETATM   14  C4  UNL     1      27.192   5.772  48.649  1.00  0.00     0.016 A 
HETATM   15 BR1  UNL     1      28.600   6.748  47.803  1.00  0.00    -0.051 Br
HETATM   16  C5  UNL     1      27.360   4.420  48.958  1.00  0.00     0.064 A 
HETATM   17  C6  UNL     1      26.312   3.750  49.571  1.00  0.00     0.147 A 
HETATM   18  F1  UNL     1      26.573   2.448  49.829  1.00  0.00    -0.204 F 
BRANCH  12  19
HETATM   19  O1  UNL     1      23.762   6.299  49.897  1.00  0.00    -0.353 OA
HETATM   20  C1  UNL     1      23.660   7.431  50.765  1.00  0.00     0.210 C 
ENDBRANCH  12  19
ENDBRANCH   9  11
ENDBRANCH   1   9
BRANCH   7  21
HETATM   21  O2  UNL     1      22.654   1.239  53.056  1.00  0.00    -0.350 OA
BRANCH  21  22
HETATM   22  C13 UNL     1      23.623   0.311  53.509  1.00  0.00     0.180 C 
BRANCH  22  23
HETATM   23  C14 UNL     1      24.989   0.549  52.856  1.00  0.00     0.013 C 
HETATM   24  C15 UNL     1      25.572   1.800  53.434  1.00  0.00     0.037 C 
HETATM   25  C16 UNL     1      27.047   1.945  53.155  1.00  0.00     0.272 C 
HETATM   26  N4  UNL     1      27.787   0.736  53.331  1.00  0.00     0.084 N 
HETATM   27  C17 UNL     1      27.895   0.259  54.674  1.00  0.00     0.309 C 
HETATM   28  C18 UNL     1      27.231  -0.284  52.461  1.00  0.00     0.272 C 
HETATM   29  C19 UNL     1      25.865  -0.649  52.999  1.00  0.00     0.037 C 
ENDBRANCH  22  23
ENDBRANCH  21  22
ENDBRANCH   7  21
TORSDOF 6
ENDMDL
MODEL 2
REMARK VINA RESULT:      -8.5      2.507      5.436
REMARK  6 active torsions:
REMARK  status: ('A' for Active; 'I' for Inactive)
REMARK    1  A    between atoms: O1_2  and  C2_3 
REMARK    2  A    between atoms: C7_10  and  N1_11 
REMARK    3  A    between atoms: N1_11  and  C8_12 
REMARK    4  A    between atoms: C12_18  and  O2_19 
REMARK    5  A    between atoms: O2_19  and  C13_20 
REMARK    6  A    between atoms: C13_20  and  C14_21 
ROOT
HETATM    1  C8  UNL     1      27.069   1.797  52.437  1.00  0.00     0.145 A 
HETATM    2  N2  UNL     1      28.187   2.524  52.616  1.00  0.00    -0.223 NA
HETATM    3  C9  UNL     1      28.867   2.233  53.764  1.00  0.00     0.236 A 
HETATM    4  N3  UNL     1      28.477   1.304  54.662  1.00  0.00    -0.241 NA
HETATM    5  C10 UNL     1      27.342   0.574  54.470  1.00  0.00     0.077 A 
HETATM    6  C11 UNL     1      26.623   0.835  53.321  1.00  0.00     0.072 A 
HETATM    7  C12 UNL     1      25.645  -0.175  53.697  1.00  0.00     0.087 A 
HETATM    8  C20 UNL     1      26.339  -0.425  54.803  1.00  0.00     0.070 A 
ENDROOT
BRANCH   1   9
HETATM    9  N1  UNL     1      26.301   2.029  51.278  1.00  0.00    -0.335 N 
HETATM   10  H6  UNL     1      26.173   1.324  50.517  1.00  0.00     0.168 HD
BRANCH   9  11
HETATM   11  C7  UNL     1      25.621   3.254  51.030  1.00  0.00     0.106 A 
HETATM   12  C2  UNL     1      25.976   4.211  50.104  1.00  0.00     0.099 A 
HETATM   13  C3  UNL     1      25.232   5.362  49.960  1.00  0.00     0.058 A 
HETATM   14  C4  UNL     1      24.123   5.536  50.764  1.00  0.00     0.016 A 
HETATM   15 BR1  UNL     1      23.112   7.142  50.542  1.00  0.00    -0.051 Br
HETATM   16  C5  UNL     1      23.736   4.587  51.713  1.00  0.00     0.064 A 
HETATM   17  C6  UNL     1      24.499   3.437  51.842  1.00  0.00     0.147 A 
HETATM   18  F1  UNL     1      24.043   2.582  52.786  1.00  0.00    -0.204 F 
BRANCH  12  19
HETATM   19  O1  UNL     1      27.113   3.883  49.377  1.00  0.00    -0.353 OA
HETATM   20  C1  UNL     1      27.805   4.859  48.594  1.00  0.00     0.210 C 
ENDBRANCH  12  19
ENDBRANCH   9  11
ENDBRANCH   1   9
BRANCH   7  21
HETATM   21  O2  UNL     1      24.461  -0.707  53.172  1.00  0.00    -0.350 OA
BRANCH  21  22
HETATM   22  C13 UNL     1      23.287  -0.594  53.957  1.00  0.00     0.180 C 
BRANCH  22  23
HETATM   23  C14 UNL     1      22.019  -0.656  53.098  1.00  0.00     0.013 C 
HETATM   24  C15 UNL     1      20.839  -0.425  53.988  1.00  0.00     0.037 C 
HETATM   25  C16 UNL     1      19.581  -0.097  53.223  1.00  0.00     0.272 C 
HETATM   26  N4  UNL     1      19.783   0.825  52.151  1.00  0.00     0.084 N 
HETATM   27  C17 UNL     1      20.126   2.160  52.532  1.00  0.00     0.309 C 
HETATM   28  C18 UNL     1      20.770   0.276  51.240  1.00  0.00     0.272 C 
HETATM   29  C19 UNL     1      22.107   0.292  51.949  1.00  0.00     0.037 C 
ENDBRANCH  22  23
ENDBRANCH  21  22
ENDBRANCH   7  21
TORSDOF 6
ENDMDL
MODEL 3
REMARK VINA RESULT:      -7.9      1.851      4.949
REMARK  6 active torsions:
REMARK  status: ('A' for Active; 'I' for Inactive)
REMARK    1  A    between atoms: O1_2  and  C2_3 
REMARK    2  A    between atoms: C7_10  and  N1_11 
REMARK    3  A    between atoms: N1_11  and  C8_12 
REMARK    4  A    between atoms: C12_18  and  O2_19 
REMARK    5  A    between atoms: O2_19  and  C13_20 
REMARK    6  A    between atoms: C13_20  and  C14_21 
ROOT
HETATM    1  C8  UNL     1      26.295   1.770  52.321  1.00  0.00     0.145 A 
HETATM    2  N2  UNL     1      27.464   2.426  52.431  1.00  0.00    -0.223 NA
HETATM    3  C9  UNL     1      28.214   2.057  53.510  1.00  0.00     0.236 A 
HETATM    4  N3  UNL     1      27.843   1.120  54.408  1.00  0.00    -0.241 NA
HETATM    5  C10 UNL     1      26.655   0.462  54.286  1.00  0.00     0.077 A 
HETATM    6  C11 UNL     1      25.864   0.804  53.208  1.00  0.00     0.072 A 
HETATM    7  C12 UNL     1      24.862  -0.162  53.630  1.00  0.00     0.087 A 
HETATM    8  C20 UNL     1      25.625  -0.490  54.669  1.00  0.00     0.070 A 
ENDROOT
BRANCH   1   9
HETATM    9  N1  UNL     1      25.452   2.085  51.235  1.00  0.00    -0.335 N 
HETATM   10  H6  UNL     1      24.831   1.390  50.763  1.00  0.00     0.168 HD
BRANCH   9  11
HETATM   11  C7  UNL     1      25.367   3.390  50.674  1.00  0.00     0.106 A 
HETATM   12  C2  UNL     1      24.512   4.395  51.072  1.00  0.00     0.099 A 
HETATM   13  C3  UNL     1      24.527   5.622  50.444  1.00  0.00     0.058 A 
HETATM   14  C4  UNL     1      25.417   5.823  49.407  1.00  0.00     0.016 A 
HETATM   15 BR1  UNL     1      25.414   7.534  48.557  1.00  0.00    -0.051 Br
HETATM   16  C5  UNL     1      26.297   4.826  48.979  1.00  0.00     0.064 A 
HETATM   17  C6  UNL     1      26.265   3.599  49.625  1.00  0.00     0.147 A 
HETATM   18  F1  UNL     1      27.154   2.703  49.137  1.00  0.00    -0.204 F 
BRANCH  12  19
HETATM   19  O1  UNL     1      23.683   4.032  52.125  1.00  0.00    -0.353 OA
HETATM   20  C1  UNL     1      22.535   4.809  52.473  1.00  0.00     0.210 C 
ENDBRANCH  12  19
ENDBRANCH   9  11
ENDBRANCH   1   9
BRANCH   7  21
HETATM   21  O2  UNL     1      23.610  -0.608  53.187  1.00  0.00    -0.350 OA
BRANCH  21  22
HETATM   22  C13 UNL     1      22.461  -0.034  53.783  1.00  0.00     0.180 C 
BRANCH  22  23
HETATM   23  C14 UNL     1      21.869   1.084  52.918  1.00  0.00     0.013 C 
HETATM   24  C15 UNL     1      22.111   0.743  51.482  1.00  0.00     0.037 C 
HETATM   25  C16 UNL     1      21.269   1.559  50.533  1.00  0.00     0.272 C 
HETATM   26  N4  UNL     1      19.912   1.707  50.951  1.00  0.00     0.084 N 
HETATM   27  C17 UNL     1      19.118   0.517  50.931  1.00  0.00     0.309 C 
HETATM   28  C18 UNL     1      19.890   2.323  52.265  1.00  0.00     0.272 C 
HETATM   29  C19 UNL     1      20.434   1.314  53.253  1.00  0.00     0.037 C 
ENDBRANCH  22  23
ENDBRANCH  21  22
ENDBRANCH   7  21
TORSDOF 6
ENDMDL
MODEL 4
REMARK VINA RESULT:      -7.8      2.831      3.922
REMARK  6 active torsions:
REMARK  status: ('A' for Active; 'I' for Inactive)
REMARK    1  A    between atoms: O1_2  and  C2_3 
REMARK    2  A    between atoms: C7_10  and  N1_11 
REMARK    3  A    between atoms: N1_11  and  C8_12 
REMARK    4  A    between atoms: C12_18  and  O2_19 
REMARK    5  A    between atoms: O2_19  and  C13_20 
REMARK    6  A    between atoms: C13_20  and  C14_21 
ROOT
HETATM    1  C8  UNL     1      21.456   0.498  51.966  1.00  0.00     0.145 A 
HETATM    2  N2  UNL     1      20.259   0.775  51.418  1.00  0.00    -0.223 NA
HETATM    3  C9  UNL     1      19.201   0.207  52.068  1.00  0.00     0.236 A 
HETATM    4  N3  UNL     1      19.313  -0.569  53.166  1.00  0.00    -0.241 NA
HETATM    5  C10 UNL     1      20.531  -0.843  53.712  1.00  0.00     0.077 A 
HETATM    6  C11 UNL     1      21.630  -0.289  53.087  1.00  0.00     0.072 A 
HETATM    7  C12 UNL     1      22.507  -0.908  54.068  1.00  0.00     0.087 A 
HETATM    8  C20 UNL     1      21.448  -1.441  54.669  1.00  0.00     0.070 A 
ENDROOT
BRANCH   1   9
HETATM    9  N1  UNL     1      22.608   1.042  51.362  1.00  0.00    -0.335 N 
HETATM   10  H6  UNL     1      23.425   0.468  51.050  1.00  0.00     0.168 HD
BRANCH   9  11
HETATM   11  C7  UNL     1      22.771   2.434  51.116  1.00  0.00     0.106 A 
HETATM   12  C2  UNL     1      22.445   3.101  49.955  1.00  0.00     0.099 A 
HETATM   13  C3  UNL     1      22.652   4.459  49.842  1.00  0.00     0.058 A 
HETATM   14  C4  UNL     1      23.194   5.136  50.916  1.00  0.00     0.016 A 
HETATM   15 BR1  UNL     1      23.470   7.018  50.728  1.00  0.00    -0.051 Br
HETATM   16  C5  UNL     1      23.536   4.491  52.106  1.00  0.00     0.064 A 
HETATM   17  C6  UNL     1      23.319   3.124  52.199  1.00  0.00     0.147 A 
HETATM   18  F1  UNL     1      23.682   2.595  53.390  1.00  0.00    -0.204 F 
BRANCH  12  19
HETATM   19  O1  UNL     1      21.912   2.276  48.974  1.00  0.00    -0.353 OA
HETATM   20  C1  UNL     1      22.520   2.161  47.685  1.00  0.00     0.210 C 
ENDBRANCH  12  19
ENDBRANCH   9  11
ENDBRANCH   1   9
BRANCH   7  21
HETATM   21  O2  UNL     1      23.882  -0.964  54.331  1.00  0.00    -0.350 OA
BRANCH  21  22
HETATM   22  C13 UNL     1      24.753  -0.347  53.399  1.00  0.00     0.180 C 
BRANCH  22  23
HETATM   23  C14 UNL     1      26.225  -0.548  53.776  1.00  0.00     0.013 C 
HETATM   24  C15 UNL     1      27.045  -0.443  52.529  1.00  0.00     0.037 C 
HETATM   25  C16 UNL     1      28.516  -0.256  52.807  1.00  0.00     0.272 C 
HETATM   26  N4  UNL     1      28.789   0.679  53.851  1.00  0.00     0.084 N 
HETATM   27  C17 UNL     1      28.476   2.045  53.566  1.00  0.00     0.309 C 
HETATM   28  C18 UNL     1      28.124   0.236  55.063  1.00  0.00     0.272 C 
HETATM   29  C19 UNL     1      26.634   0.399  54.852  1.00  0.00     0.037 C 
ENDBRANCH  22  23
ENDBRANCH  21  22
ENDBRANCH   7  21
TORSDOF 6
ENDMDL
MODEL 5
REMARK VINA RESULT:      -7.7      4.478      6.449
REMARK  6 active torsions:
REMARK  status: ('A' for Active; 'I' for Inactive)
REMARK    1  A    between atoms: O1_2  and  C2_3 
REMARK    2  A    between atoms: C7_10  and  N1_11 
REMARK    3  A    between atoms: N1_11  and  C8_12 
REMARK    4  A    between atoms: C12_18  and  O2_19 
REMARK    5  A    between atoms: O2_19  and  C13_20 
REMARK    6  A    between atoms: C13_20  and  C14_21 
ROOT
HETATM    1  C8  UNL     1      21.745   2.416  51.386  1.00  0.00     0.145 A 
HETATM    2  N2  UNL     1      20.988   3.517  51.227  1.00  0.00    -0.223 NA
HETATM    3  C9  UNL     1      21.521   4.648  51.775  1.00  0.00     0.236 A 
HETATM    4  N3  UNL     1      22.703   4.691  52.427  1.00  0.00    -0.241 NA
HETATM    5  C10 UNL     1      23.461   3.569  52.582  1.00  0.00     0.077 A 
HETATM    6  C11 UNL     1      22.960   2.402  52.042  1.00  0.00     0.072 A 
HETATM    7  C12 UNL     1      24.129   1.676  52.511  1.00  0.00     0.087 A 
HETATM    8  C20 UNL     1      24.611   2.801  53.031  1.00  0.00     0.070 A 
ENDROOT
BRANCH   1   9
HETATM    9  N1  UNL     1      21.274   1.199  50.851  1.00  0.00    -0.335 N 
HETATM   10  H6  UNL     1      21.779   0.655  50.115  1.00  0.00     0.168 HD
BRANCH   9  11
HETATM   11  C7  UNL     1      20.056   0.591  51.266  1.00  0.00     0.106 A 
HETATM   12  C2  UNL     1      19.867  -0.160  52.407  1.00  0.00     0.099 A 
HETATM   13  C3  UNL     1      18.632  -0.698  52.698  1.00  0.00     0.058 A 
HETATM   14  C4  UNL     1      17.589  -0.469  51.823  1.00  0.00     0.016 A 
HETATM   15 BR1  UNL     1      15.889  -1.229  52.254  1.00  0.00    -0.051 Br
HETATM   16  C5  UNL     1      17.747   0.286  50.659  1.00  0.00     0.064 A 
HETATM   17  C6  UNL     1      18.998   0.818  50.385  1.00  0.00     0.147 A 
HETATM   18  F1  UNL     1      19.047   1.532  49.237  1.00  0.00    -0.204 F 
BRANCH  12  19
HETATM   19  O1  UNL     1      21.014  -0.294  53.178  1.00  0.00    -0.353 OA
HETATM   20  C1  UNL     1      21.067   0.183  54.525  1.00  0.00     0.210 C 
ENDBRANCH  12  19
ENDBRANCH   9  11
ENDBRANCH   1   9
BRANCH   7  21
HETATM   21  O2  UNL     1      24.610   0.360  52.472  1.00  0.00    -0.350 OA
BRANCH  21  22
HETATM   22  C13 UNL     1      24.668  -0.354  53.694  1.00  0.00     0.180 C 
BRANCH  22  23
HETATM   23  C14 UNL     1      26.111  -0.672  54.100  1.00  0.00     0.013 C 
HETATM   24  C15 UNL     1      26.895  -0.954  52.857  1.00  0.00     0.037 C 
HETATM   25  C16 UNL     1      28.386  -0.918  53.082  1.00  0.00     0.272 C 
HETATM   26  N4  UNL     1      28.818   0.174  53.895  1.00  0.00     0.084 N 
HETATM   27  C17 UNL     1      28.683   1.475  53.319  1.00  0.00     0.309 C 
HETATM   28  C18 UNL     1      28.141   0.101  55.177  1.00  0.00     0.272 C 
HETATM   29  C19 UNL     1      26.681   0.420  54.941  1.00  0.00     0.037 C 
ENDBRANCH  22  23
ENDBRANCH  21  22
ENDBRANCH   7  21
TORSDOF 6
ENDMDL
MODEL 6
REMARK VINA RESULT:      -7.6      3.427      5.063
REMARK  6 active torsions:
REMARK  status: ('A' for Active; 'I' for Inactive)
REMARK    1  A    between atoms: O1_2  and  C2_3 
REMARK    2  A    between atoms: C7_10  and  N1_11 
REMARK    3  A    between atoms: N1_11  and  C8_12 
REMARK    4  A    between atoms: C12_18  and  O2_19 
REMARK    5  A    between atoms: O2_19  and  C13_20 
REMARK    6  A    between atoms: C13_20  and  C14_21 
ROOT
HETATM    1  C8  UNL     1      24.978   6.857  50.663  1.00  0.00     0.145 A 
HETATM    2  N2  UNL     1      25.088   8.140  50.274  1.00  0.00    -0.223 NA
HETATM    3  C9  UNL     1      25.921   8.332  49.209  1.00  0.00     0.236 A 
HETATM    4  N3  UNL     1      26.590   7.343  48.581  1.00  0.00    -0.241 NA
HETATM    5  C10 UNL     1      26.471   6.046  48.985  1.00  0.00     0.077 A 
HETATM    6  C11 UNL     1      25.638   5.806  50.059  1.00  0.00     0.072 A 
HETATM    7  C12 UNL     1      25.934   4.384  49.976  1.00  0.00     0.087 A 
HETATM    8  C20 UNL     1      26.736   4.618  48.942  1.00  0.00     0.070 A 
ENDROOT
BRANCH   1   9
HETATM    9  N1  UNL     1      24.138   6.561  51.757  1.00  0.00    -0.335 N 
HETATM   10  H6  UNL     1      24.287   6.938  52.720  1.00  0.00     0.168 HD
BRANCH   9  11
HETATM   11  C7  UNL     1      22.999   5.715  51.653  1.00  0.00     0.106 A 
HETATM   12  C2  UNL     1      21.891   5.933  50.862  1.00  0.00     0.099 A 
HETATM   13  C3  UNL     1      20.847   5.033  50.849  1.00  0.00     0.058 A 
HETATM   14  C4  UNL     1      20.935   3.909  51.646  1.00  0.00     0.016 A 
HETATM   15 BR1  UNL     1      19.472   2.680  51.607  1.00  0.00    -0.051 Br
HETATM   16  C5  UNL     1      22.042   3.658  52.459  1.00  0.00     0.064 A 
HETATM   17  C6  UNL     1      23.081   4.577  52.457  1.00  0.00     0.147 A 
HETATM   18  F1  UNL     1      24.105   4.243  53.275  1.00  0.00    -0.204 F 
BRANCH  12  19
HETATM   19  O1  UNL     1      21.960   7.107  50.123  1.00  0.00    -0.353 OA
HETATM   20  C1  UNL     1      20.946   8.110  50.220  1.00  0.00     0.210 C 
ENDBRANCH  12  19
ENDBRANCH   9  11
ENDBRANCH   1   9
BRANCH   7  21
HETATM   21  O2  UNL     1      25.569   3.215  50.657  1.00  0.00    -0.350 OA
BRANCH  21  22
HETATM   22  C13 UNL     1      26.607   2.335  51.049  1.00  0.00     0.180 C 
BRANCH  22  23
HETATM   23  C14 UNL     1      26.163   1.398  52.178  1.00  0.00     0.013 C 
HETATM   24  C15 UNL     1      26.722   0.037  51.904  1.00  0.00     0.037 C 
HETATM   25  C16 UNL     1      26.671  -0.873  53.106  1.00  0.00     0.272 C 
HETATM   26  N4  UNL     1      27.061  -0.238  54.324  1.00  0.00     0.084 N 
HETATM   27  C17 UNL     1      28.440   0.129  54.424  1.00  0.00     0.309 C 
HETATM   28  C18 UNL     1      26.201   0.909  54.553  1.00  0.00     0.272 C 
HETATM   29  C19 UNL     1      26.543   1.951  53.510  1.00  0.00     0.037 C 
ENDBRANCH  22  23
ENDBRANCH  21  22
ENDBRANCH   7  21
TORSDOF 6
ENDMDL
MODEL 7
REMARK VINA RESULT:      -7.6      2.522      3.535
REMARK  6 active torsions:
REMARK  status: ('A' for Active; 'I' for Inactive)
REMARK    1  A    between atoms: O1_2  and  C2_3 
REMARK    2  A    between atoms: C7_10  and  N1_11 
REMARK    3  A    between atoms: N1_11  and  C8_12 
REMARK    4  A    between atoms: C12_18  and  O2_19 
REMARK    5  A    between atoms: O2_19  and  C13_20 
REMARK    6  A    between atoms: C13_20  and  C14_21 
ROOT
HETATM    1  C8  UNL     1      20.198   2.269  51.774  1.00  0.00     0.145 A 
HETATM    2  N2  UNL     1      18.939   2.201  51.303  1.00  0.00    -0.223 NA
HETATM    3  C9  UNL     1      18.318   1.007  51.533  1.00  0.00     0.236 A 
HETATM    4  N3  UNL     1      18.890  -0.034  52.174  1.00  0.00    -0.241 NA
HETATM    5  C10 UNL     1      20.166   0.046  52.647  1.00  0.00     0.077 A 
HETATM    6  C11 UNL     1      20.832   1.236  52.436  1.00  0.00     0.072 A 
HETATM    7  C12 UNL     1      22.005   0.706  53.112  1.00  0.00     0.087 A 
HETATM    8  C20 UNL     1      21.363  -0.441  53.314  1.00  0.00     0.070 A 
ENDROOT
BRANCH   1   9
HETATM    9  N1  UNL     1      20.918   3.465  51.582  1.00  0.00    -0.335 N 
HETATM   10  H6  UNL     1      20.555   4.409  51.844  1.00  0.00     0.168 HD
BRANCH   9  11
HETATM   11  C7  UNL     1      22.220   3.502  51.008  1.00  0.00     0.106 A 
HETATM   12  C2  UNL     1      22.569   3.057  49.751  1.00  0.00     0.099 A 
HETATM   13  C3  UNL     1      23.872   3.149  49.309  1.00  0.00     0.058 A 
HETATM   14  C4  UNL     1      24.818   3.695  50.152  1.00  0.00     0.016 A 
HETATM   15 BR1  UNL     1      26.615   3.808  49.511  1.00  0.00    -0.051 Br
HETATM   16  C5  UNL     1      24.498   4.155  51.431  1.00  0.00     0.064 A 
HETATM   17  C6  UNL     1      23.182   4.054  51.856  1.00  0.00     0.147 A 
HETATM   18  F1  UNL     1      22.975   4.526  53.107  1.00  0.00    -0.204 F 
BRANCH  12  19
HETATM   19  O1  UNL     1      21.502   2.537  49.031  1.00  0.00    -0.353 OA
HETATM   20  C1  UNL     1      21.503   1.183  48.571  1.00  0.00     0.210 C 
ENDBRANCH  12  19
ENDBRANCH   9  11
ENDBRANCH   1   9
BRANCH   7  21
HETATM   21  O2  UNL     1      23.292   1.150  53.443  1.00  0.00    -0.350 OA
BRANCH  21  22
HETATM   22  C13 UNL     1      24.376   0.648  52.681  1.00  0.00     0.180 C 
BRANCH  22  23
HETATM   23  C14 UNL     1      25.728   1.054  53.278  1.00  0.00     0.013 C 
HETATM   24  C15 UNL     1      25.986   0.195  54.477  1.00  0.00     0.037 C 
HETATM   25  C16 UNL     1      27.424   0.237  54.930  1.00  0.00     0.272 C 
HETATM   26  N4  UNL     1      28.367   0.167  53.859  1.00  0.00     0.084 N 
HETATM   27  C17 UNL     1      28.426  -1.078  53.158  1.00  0.00     0.309 C 
HETATM   28  C18 UNL     1      28.120   1.267  52.945  1.00  0.00     0.272 C 
HETATM   29  C19 UNL     1      26.804   0.995  52.248  1.00  0.00     0.037 C 
ENDBRANCH  22  23
ENDBRANCH  21  22
ENDBRANCH   7  21
TORSDOF 6
ENDMDL
MODEL 8
REMARK VINA RESULT:      -7.5      2.746      3.638
REMARK  6 active torsions:
REMARK  status: ('A' for Active; 'I' for Inactive)
REMARK    1  A    between atoms: O1_2  and  C2_3 
REMARK    2  A    between atoms: C7_10  and  N1_11 
REMARK    3  A    between atoms: N1_11  and  C8_12 
REMARK    4  A    between atoms: C12_18  and  O2_19 
REMARK    5  A    between atoms: O2_19  and  C13_20 
REMARK    6  A    between atoms: C13_20  and  C14_21 
ROOT
HETATM    1  C8  UNL     1      21.151   0.474  51.359  1.00  0.00     0.145 A 
HETATM    2  N2  UNL     1      19.998   0.569  50.673  1.00  0.00    -0.223 NA
HETATM    3  C9  UNL     1      18.900   0.137  51.361  1.00  0.00     0.236 A 
HETATM    4  N3  UNL     1      18.936  -0.349  52.620  1.00  0.00    -0.241 NA
HETATM    5  C10 UNL     1      20.111  -0.440  53.305  1.00  0.00     0.077 A 
HETATM    6  C11 UNL     1      21.247  -0.014  52.647  1.00  0.00     0.072 A 
HETATM    7  C12 UNL     1      22.053  -0.347  53.811  1.00  0.00     0.087 A 
HETATM    8  C20 UNL     1      20.957  -0.758  54.443  1.00  0.00     0.070 A 
ENDROOT
BRANCH   1   9
HETATM    9  N1  UNL     1      22.339   0.898  50.728  1.00  0.00    -0.335 N 
HETATM   10  H6  UNL     1      23.193   0.302  50.642  1.00  0.00     0.168 HD
BRANCH   9  11
HETATM   11  C7  UNL     1      22.490   2.187  50.145  1.00  0.00     0.106 A 
HETATM   12  C2  UNL     1      22.736   3.363  50.819  1.00  0.00     0.099 A 
HETATM   13  C3  UNL     1      22.862   4.554  50.135  1.00  0.00     0.058 A 
HETATM   14  C4  UNL     1      22.735   4.542  48.760  1.00  0.00     0.016 A 
HETATM   15 BR1  UNL     1      22.914   6.207  47.841  1.00  0.00    -0.051 Br
HETATM   16  C5  UNL     1      22.485   3.367  48.046  1.00  0.00     0.064 A 
HETATM   17  C6  UNL     1      22.362   2.181  48.754  1.00  0.00     0.147 A 
HETATM   18  F1  UNL     1      22.121   1.103  47.973  1.00  0.00    -0.204 F 
BRANCH  12  19
HETATM   19  O1  UNL     1      22.836   3.203  52.194  1.00  0.00    -0.353 OA
HETATM   20  C1  UNL     1      24.021   3.572  52.904  1.00  0.00     0.210 C 
ENDBRANCH  12  19
ENDBRANCH   9  11
ENDBRANCH   1   9
BRANCH   7  21
HETATM   21  O2  UNL     1      23.403  -0.289  54.181  1.00  0.00    -0.350 OA
BRANCH  21  22
HETATM   22  C13 UNL     1      24.369  -0.494  53.166  1.00  0.00     0.180 C 
BRANCH  22  23
HETATM   23  C14 UNL     1      25.646   0.314  53.423  1.00  0.00     0.013 C 
HETATM   24  C15 UNL     1      26.250  -0.163  54.706  1.00  0.00     0.037 C 
HETATM   25  C16 UNL     1      27.680   0.284  54.884  1.00  0.00     0.272 C 
HETATM   26  N4  UNL     1      28.472   0.161  53.702  1.00  0.00     0.084 N 
HETATM   27  C17 UNL     1      28.744  -1.174  53.268  1.00  0.00     0.309 C 
HETATM   28  C18 UNL     1      27.855   0.936  52.641  1.00  0.00     0.272 C 
HETATM   29  C19 UNL     1      26.569   0.239  52.254  1.00  0.00     0.037 C 
ENDBRANCH  22  23
ENDBRANCH  21  22
ENDBRANCH   7  21
TORSDOF 6
ENDMDL
MODEL 9
REMARK VINA RESULT:      -7.2      1.910      5.213
REMARK  6 active torsions:
REMARK  status: ('A' for Active; 'I' for Inactive)
REMARK    1  A    between atoms: O1_2  and  C2_3 
REMARK    2  A    between atoms: C7_10  and  N1_11 
REMARK    3  A    between atoms: N1_11  and  C8_12 
REMARK    4  A    between atoms: C12_18  and  O2_19 
REMARK    5  A    between atoms: O2_19  and  C13_20 
REMARK    6  A    between atoms: C13_20  and  C14_21 
ROOT
HETATM    1  C8  UNL     1      25.659   2.320  51.069  1.00  0.00     0.145 A 
HETATM    2  N2  UNL     1      26.963   2.292  51.395  1.00  0.00    -0.223 NA
HETATM    3  C9  UNL     1      27.258   1.486  52.458  1.00  0.00     0.236 A 
HETATM    4  N3  UNL     1      26.342   0.768  53.142  1.00  0.00    -0.241 NA
HETATM    5  C10 UNL     1      25.023   0.805  52.802  1.00  0.00     0.077 A 
HETATM    6  C11 UNL     1      24.680   1.607  51.733  1.00  0.00     0.072 A 
HETATM    7  C12 UNL     1      23.284   1.229  51.889  1.00  0.00     0.087 A 
HETATM    8  C20 UNL     1      23.616   0.457  52.919  1.00  0.00     0.070 A 
ENDROOT
BRANCH   1   9
HETATM    9  N1  UNL     1      25.260   3.126  49.983  1.00  0.00    -0.335 N 
HETATM   10  H6  UNL     1      24.867   2.745  49.092  1.00  0.00     0.168 HD
BRANCH   9  11
HETATM   11  C7  UNL     1      25.356   4.546  49.995  1.00  0.00     0.106 A 
HETATM   12  C2  UNL     1      24.532   5.412  50.680  1.00  0.00     0.099 A 
HETATM   13  C3  UNL     1      24.730   6.775  50.611  1.00  0.00     0.058 A 
HETATM   14  C4  UNL     1      25.771   7.252  49.841  1.00  0.00     0.016 A 
HETATM   15 BR1  UNL     1      26.020   9.145  49.764  1.00  0.00    -0.051 Br
HETATM   16  C5  UNL     1      26.625   6.402  49.134  1.00  0.00     0.064 A 
HETATM   17  C6  UNL     1      26.407   5.035  49.218  1.00  0.00     0.147 A 
HETATM   18  F1  UNL     1      27.286   4.298  48.499  1.00  0.00    -0.204 F 
BRANCH  12  19
HETATM   19  O1  UNL     1      23.536   4.773  51.406  1.00  0.00    -0.353 OA
HETATM   20  C1  UNL     1      22.298   5.422  51.706  1.00  0.00     0.210 C 
ENDBRANCH  12  19
ENDBRANCH   9  11
ENDBRANCH   1   9
BRANCH   7  21
HETATM   21  O2  UNL     1      22.063   1.514  51.264  1.00  0.00    -0.350 OA
BRANCH  21  22
HETATM   22  C13 UNL     1      21.980   1.311  49.865  1.00  0.00     0.180 C 
BRANCH  22  23
HETATM   23  C14 UNL     1      21.939   2.637  49.098  1.00  0.00     0.013 C 
HETATM   24  C15 UNL     1      22.295   2.363  47.670  1.00  0.00     0.037 C 
HETATM   25  C16 UNL     1      21.938   3.500  46.747  1.00  0.00     0.272 C 
HETATM   26  N4  UNL     1      20.653   4.068  47.004  1.00  0.00     0.084 N 
HETATM   27  C17 UNL     1      19.531   3.230  46.714  1.00  0.00     0.309 C 
HETATM   28  C18 UNL     1      20.612   4.534  48.378  1.00  0.00     0.272 C 
HETATM   29  C19 UNL     1      20.623   3.315  49.274  1.00  0.00     0.037 C 
ENDBRANCH  22  23
ENDBRANCH  21  22
ENDBRANCH   7  21
TORSDOF 6
ENDMDL
