MODEL 1
REMARK VINA RESULT:      -7.9      0.000      0.000
REMARK  4 active torsions:
REMARK  status: ('A' for Active; 'I' for Inactive)
REMARK    1  A    between atoms: O1_2  and  C2_3 
REMARK    2  A    between atoms: C2_3  and  C3_4 
REMARK    3  A    between atoms: C7_10  and  O2_11 
REMARK    4  A    between atoms: O2_11  and  C8_12 
ROOT
HETATM    1  C3  UNL     1      19.095  -0.116  52.130  1.00  0.00     0.078 C 
HETATM    2  C4  UNL     1      20.119   0.414  51.460  1.00  0.00     0.067 C 
HETATM    3  C5  UNL     1      21.551   0.594  51.774  1.00  0.00     0.075 A 
HETATM    4  N1  UNL     1      22.188   1.451  50.965  1.00  0.00    -0.241 NA
HETATM    5  C6  UNL     1      23.518   1.679  51.183  1.00  0.00     0.236 A 
HETATM    6  N2  UNL     1      24.161   1.054  52.186  1.00  0.00    -0.217 NA
HETATM    7  C7  UNL     1      23.542   0.192  53.006  1.00  0.00     0.183 A 
HETATM    8  C14 UNL     1      22.181  -0.077  52.828  1.00  0.00     0.048 A 
HETATM    9  C15 UNL     1      21.610  -1.042  53.792  1.00  0.00     0.042 C 
HETATM   10  C16 UNL     1      20.333  -1.282  54.034  1.00  0.00     0.143 C 
HETATM   11  O3  UNL     1      19.293  -0.634  53.386  1.00  0.00    -0.325 OA
ENDROOT
BRANCH   7  12
HETATM   12  O2  UNL     1      24.204  -0.459  54.047  1.00  0.00    -0.291 OA
BRANCH  12  13
HETATM   13  C8  UNL     1      25.595  -0.447  54.016  1.00  0.00     0.081 A 
HETATM   14  C9  UNL     1      26.140  -1.269  53.036  1.00  0.00     0.039 A 
HETATM   15  C10 UNL     1      27.497  -1.382  52.859  1.00  0.00     0.025 A 
HETATM   16  C11 UNL     1      28.357  -0.678  53.656  1.00  0.00     0.049 A 
HETATM   17 BR1  UNL     1      30.247  -0.812  53.438  1.00  0.00    -0.048 Br
HETATM   18  C12 UNL     1      27.826   0.139  54.631  1.00  0.00     0.136 A 
HETATM   19  F1  UNL     1      28.637   0.849  55.435  1.00  0.00    -0.205 F 
HETATM   20  C13 UNL     1      26.461   0.264  54.820  1.00  0.00     0.081 A 
ENDBRANCH  12  13
ENDBRANCH   7  12
BRANCH   1  21
HETATM   21  C2  UNL     1      17.818  -0.070  51.388  1.00  0.00     0.232 C 
BRANCH  21  22
HETATM   22  O1  UNL     1      16.769  -0.282  52.225  1.00  0.00    -0.390 OA
HETATM   23  C1  UNL     1      16.110  -1.473  52.141  1.00  0.00     0.201 C 
ENDBRANCH  21  22
ENDBRANCH   1  21
TORSDOF 4
ENDMDL
MODEL 2
REMARK VINA RESULT:      -7.8      1.622      2.263
REMARK  4 active torsions:
REMARK  status: ('A' for Active; 'I' for Inactive)
REMARK    1  A    between atoms: O1_2  and  C2_3 
REMARK    2  A    between atoms: C2_3  and  C3_4 
REMARK    3  A    between atoms: C7_10  and  O2_11 
REMARK    4  A    between atoms: O2_11  and  C8_12 
ROOT
HETATM    1  C3  UNL     1      18.970  -0.185  52.332  1.00  0.00     0.078 C 
HETATM    2  C4  UNL     1      19.592  -0.716  53.387  1.00  0.00     0.067 C 
HETATM    3  C5  UNL     1      21.001  -0.731  53.830  1.00  0.00     0.075 A 
HETATM    4  N1  UNL     1      21.268  -1.636  54.782  1.00  0.00    -0.241 NA
HETATM    5  C6  UNL     1      22.548  -1.720  55.252  1.00  0.00     0.236 A 
HETATM    6  N2  UNL     1      23.508  -0.912  54.767  1.00  0.00    -0.217 NA
HETATM    7  C7  UNL     1      23.261   0.001  53.815  1.00  0.00     0.183 A 
HETATM    8  C14 UNL     1      21.968   0.129  53.298  1.00  0.00     0.048 A 
HETATM    9  C15 UNL     1      21.819   1.167  52.255  1.00  0.00     0.042 C 
HETATM   10  C16 UNL     1      20.809   1.331  51.418  1.00  0.00     0.143 C 
HETATM   11  O3  UNL     1      19.688   0.515  51.396  1.00  0.00    -0.325 OA
ENDROOT
BRANCH   7  12
HETATM   12  O2  UNL     1      24.251   0.842  53.309  1.00  0.00    -0.291 OA
BRANCH  12  13
HETATM   13  C8  UNL     1      25.572   0.436  53.478  1.00  0.00     0.081 A 
HETATM   14  C9  UNL     1      25.994  -0.497  52.538  1.00  0.00     0.039 A 
HETATM   15  C10 UNL     1      27.268  -1.010  52.550  1.00  0.00     0.025 A 
HETATM   16  C11 UNL     1      28.163  -0.609  53.503  1.00  0.00     0.049 A 
HETATM   17 BR1  UNL     1      29.940  -1.301  53.550  1.00  0.00    -0.048 Br
HETATM   18  C12 UNL     1      27.752   0.315  54.440  1.00  0.00     0.136 A 
HETATM   19  F1  UNL     1      28.602   0.736  55.393  1.00  0.00    -0.205 F 
HETATM   20  C13 UNL     1      26.473   0.841  54.439  1.00  0.00     0.081 A 
ENDBRANCH  12  13
ENDBRANCH   7  12
BRANCH   1  21
HETATM   21  C2  UNL     1      17.515  -0.439  52.318  1.00  0.00     0.232 C 
BRANCH  21  22
HETATM   22  O1  UNL     1      16.879   0.462  51.523  1.00  0.00    -0.390 OA
HETATM   23  C1  UNL     1      15.654   0.914  51.916  1.00  0.00     0.201 C 
ENDBRANCH  21  22
ENDBRANCH   1  21
TORSDOF 4
ENDMDL
MODEL 3
REMARK VINA RESULT:      -7.4      4.524      8.224
REMARK  4 active torsions:
REMARK  status: ('A' for Active; 'I' for Inactive)
REMARK    1  A    between atoms: O1_2  and  C2_3 
REMARK    2  A    between atoms: C2_3  and  C3_4 
REMARK    3  A    between atoms: C7_10  and  O2_11 
REMARK    4  A    between atoms: O2_11  and  C8_12 
ROOT
HETATM    1  C3  UNL     1      27.265   0.633  54.186  1.00  0.00     0.078 C 
HETATM    2  C4  UNL     1      26.213  -0.135  54.475  1.00  0.00     0.067 C 
HETATM    3  C5  UNL     1      24.821  -0.173  53.984  1.00  0.00     0.075 A 
HETATM    4  N1  UNL     1      23.987  -0.892  54.749  1.00  0.00    -0.241 NA
HETATM    5  C6  UNL     1      22.678  -0.981  54.369  1.00  0.00     0.236 A 
HETATM    6  N2  UNL     1      22.246  -0.362  53.255  1.00  0.00    -0.217 NA
HETATM    7  C7  UNL     1      23.064   0.360  52.475  1.00  0.00     0.183 A 
HETATM    8  C14 UNL     1      24.414   0.486  52.818  1.00  0.00     0.048 A 
HETATM    9  C15 UNL     1      25.216   1.305  51.884  1.00  0.00     0.042 C 
HETATM   10  C16 UNL     1      26.423   1.809  52.082  1.00  0.00     0.143 C 
HETATM   11  O3  UNL     1      27.147   1.630  53.251  1.00  0.00    -0.325 OA
ENDROOT
BRANCH   7  12
HETATM   12  O2  UNL     1      22.623   1.003  51.319  1.00  0.00    -0.291 OA
BRANCH  12  13
HETATM   13  C8  UNL     1      21.311   1.467  51.316  1.00  0.00     0.081 A 
HETATM   14  C9  UNL     1      21.163   2.731  51.876  1.00  0.00     0.039 A 
HETATM   15  C10 UNL     1      19.939   3.347  51.957  1.00  0.00     0.025 A 
HETATM   16  C11 UNL     1      18.819   2.721  51.483  1.00  0.00     0.049 A 
HETATM   17 BR1  UNL     1      17.103   3.547  51.581  1.00  0.00    -0.048 Br
HETATM   18  C12 UNL     1      18.956   1.467  50.927  1.00  0.00     0.136 A 
HETATM   19  F1  UNL     1      17.881   0.817  50.448  1.00  0.00    -0.205 F 
HETATM   20  C13 UNL     1      20.183   0.834  50.837  1.00  0.00     0.081 A 
ENDBRANCH  12  13
ENDBRANCH   7  12
BRANCH   1  21
HETATM   21  C2  UNL     1      28.477   0.284  54.954  1.00  0.00     0.232 C 
BRANCH  21  22
HETATM   22  O1  UNL     1      28.992  -0.899  54.526  1.00  0.00    -0.390 OA
HETATM   23  C1  UNL     1      29.828  -0.885  53.449  1.00  0.00     0.201 C 
ENDBRANCH  21  22
ENDBRANCH   1  21
TORSDOF 4
ENDMDL
MODEL 4
REMARK VINA RESULT:      -7.4      4.780      6.389
REMARK  4 active torsions:
REMARK  status: ('A' for Active; 'I' for Inactive)
REMARK    1  A    between atoms: O1_2  and  C2_3 
REMARK    2  A    between atoms: C2_3  and  C3_4 
REMARK    3  A    between atoms: C7_10  and  O2_11 
REMARK    4  A    between atoms: O2_11  and  C8_12 
ROOT
HETATM    1  C3  UNL     1      22.400   0.994  52.808  1.00  0.00     0.078 C 
HETATM    2  C4  UNL     1      23.609   1.361  53.239  1.00  0.00     0.067 C 
HETATM    3  C5  UNL     1      24.830   1.827  52.552  1.00  0.00     0.075 A 
HETATM    4  N1  UNL     1      25.933   1.798  53.312  1.00  0.00    -0.241 NA
HETATM    5  C6  UNL     1      27.111   2.213  52.757  1.00  0.00     0.236 A 
HETATM    6  N2  UNL     1      27.152   2.637  51.481  1.00  0.00    -0.217 NA
HETATM    7  C7  UNL     1      26.060   2.675  50.704  1.00  0.00     0.183 A 
HETATM    8  C14 UNL     1      24.828   2.261  51.221  1.00  0.00     0.048 A 
HETATM    9  C15 UNL     1      23.698   2.348  50.272  1.00  0.00     0.042 C 
HETATM   10  C16 UNL     1      22.503   1.793  50.386  1.00  0.00     0.143 C 
HETATM   11  O3  UNL     1      22.117   1.013  51.466  1.00  0.00    -0.325 OA
ENDROOT
BRANCH   7  12
HETATM   12  O2  UNL     1      26.096   3.114  49.381  1.00  0.00    -0.291 OA
BRANCH  12  13
HETATM   13  C8  UNL     1      26.564   4.406  49.158  1.00  0.00     0.081 A 
HETATM   14  C9  UNL     1      25.710   5.398  49.625  1.00  0.00     0.039 A 
HETATM   15  C10 UNL     1      26.009   6.732  49.491  1.00  0.00     0.025 A 
HETATM   16  C11 UNL     1      27.171   7.119  48.884  1.00  0.00     0.049 A 
HETATM   17 BR1  UNL     1      27.618   8.963  48.681  1.00  0.00    -0.048 Br
HETATM   18  C12 UNL     1      28.024   6.142  48.417  1.00  0.00     0.136 A 
HETATM   19  F1  UNL     1      29.178   6.481  47.815  1.00  0.00    -0.205 F 
HETATM   20  C13 UNL     1      27.737   4.795  48.546  1.00  0.00     0.081 A 
ENDBRANCH  12  13
ENDBRANCH   7  12
BRANCH   1  21
HETATM   21  C2  UNL     1      21.484   0.596  53.896  1.00  0.00     0.232 C 
BRANCH  21  22
HETATM   22  O1  UNL     1      21.987  -0.465  54.583  1.00  0.00    -0.390 OA
HETATM   23  C1  UNL     1      21.763  -1.715  54.086  1.00  0.00     0.201 C 
ENDBRANCH  21  22
ENDBRANCH   1  21
TORSDOF 4
ENDMDL
MODEL 5
REMARK VINA RESULT:      -7.3      3.258      4.540
REMARK  4 active torsions:
REMARK  status: ('A' for Active; 'I' for Inactive)
REMARK    1  A    between atoms: O1_2  and  C2_3 
REMARK    2  A    between atoms: C2_3  and  C3_4 
REMARK    3  A    between atoms: C7_10  and  O2_11 
REMARK    4  A    between atoms: O2_11  and  C8_12 
ROOT
HETATM    1  C3  UNL     1      22.239   2.535  48.514  1.00  0.00     0.078 C 
HETATM    2  C4  UNL     1      21.609   1.802  49.434  1.00  0.00     0.067 C 
HETATM    3  C5  UNL     1      22.003   1.285  50.761  1.00  0.00     0.075 A 
HETATM    4  N1  UNL     1      21.196   0.328  51.240  1.00  0.00    -0.241 NA
HETATM    5  C6  UNL     1      21.486  -0.208  52.463  1.00  0.00     0.236 A 
HETATM    6  N2  UNL     1      22.554   0.220  53.160  1.00  0.00    -0.217 NA
HETATM    7  C7  UNL     1      23.373   1.177  52.699  1.00  0.00     0.183 A 
HETATM    8  C14 UNL     1      23.124   1.760  51.452  1.00  0.00     0.048 A 
HETATM    9  C15 UNL     1      24.093   2.802  51.052  1.00  0.00     0.042 C 
HETATM   10  C16 UNL     1      24.266   3.324  49.849  1.00  0.00     0.143 C 
HETATM   11  O3  UNL     1      23.526   2.954  48.737  1.00  0.00    -0.325 OA
ENDROOT
BRANCH   7  12
HETATM   12  O2  UNL     1      24.481   1.625  53.418  1.00  0.00    -0.291 OA
BRANCH  12  13
HETATM   13  C8  UNL     1      25.625   0.836  53.370  1.00  0.00     0.081 A 
HETATM   14  C9  UNL     1      26.748   1.446  53.918  1.00  0.00     0.039 A 
HETATM   15  C10 UNL     1      27.967   0.814  53.958  1.00  0.00     0.025 A 
HETATM   16  C11 UNL     1      28.106  -0.448  53.451  1.00  0.00     0.049 A 
HETATM   17 BR1  UNL     1      29.785  -1.353  53.490  1.00  0.00    -0.048 Br
HETATM   18  C12 UNL     1      26.999  -1.060  52.905  1.00  0.00     0.136 A 
HETATM   19  F1  UNL     1      27.093  -2.301  52.397  1.00  0.00    -0.205 F 
HETATM   20  C13 UNL     1      25.764  -0.438  52.859  1.00  0.00     0.081 A 
ENDBRANCH  12  13
ENDBRANCH   7  12
BRANCH   1  21
HETATM   21  C2  UNL     1      21.417   2.808  47.317  1.00  0.00     0.232 C 
BRANCH  21  22
HETATM   22  O1  UNL     1      22.205   3.164  46.267  1.00  0.00    -0.390 OA
HETATM   23  C1  UNL     1      21.683   4.007  45.330  1.00  0.00     0.201 C 
ENDBRANCH  21  22
ENDBRANCH   1  21
TORSDOF 4
ENDMDL
MODEL 6
REMARK VINA RESULT:      -7.3      4.606      8.212
REMARK  4 active torsions:
REMARK  status: ('A' for Active; 'I' for Inactive)
REMARK    1  A    between atoms: O1_2  and  C2_3 
REMARK    2  A    between atoms: C2_3  and  C3_4 
REMARK    3  A    between atoms: C7_10  and  O2_11 
REMARK    4  A    between atoms: O2_11  and  C8_12 
ROOT
HETATM    1  C3  UNL     1      23.991  -0.182  53.328  1.00  0.00     0.078 C 
HETATM    2  C4  UNL     1      23.193   0.310  52.379  1.00  0.00     0.067 C 
HETATM    3  C5  UNL     1      21.735   0.247  52.149  1.00  0.00     0.075 A 
HETATM    4  N1  UNL     1      21.358   0.607  50.914  1.00  0.00    -0.241 NA
HETATM    5  C6  UNL     1      20.025   0.579  50.612  1.00  0.00     0.236 A 
HETATM    6  N2  UNL     1      19.124   0.199  51.536  1.00  0.00    -0.217 NA
HETATM    7  C7  UNL     1      19.481  -0.164  52.777  1.00  0.00     0.183 A 
HETATM    8  C14 UNL     1      20.832  -0.154  53.140  1.00  0.00     0.048 A 
HETATM    9  C15 UNL     1      21.102  -0.573  54.532  1.00  0.00     0.042 C 
HETATM   10  C16 UNL     1      22.265  -0.910  55.063  1.00  0.00     0.143 C 
HETATM   11  O3  UNL     1      23.458  -0.918  54.357  1.00  0.00    -0.325 OA
ENDROOT
BRANCH   7  12
HETATM   12  O2  UNL     1      18.551  -0.558  53.739  1.00  0.00    -0.291 OA
BRANCH  12  13
HETATM   13  C8  UNL     1      17.732  -1.637  53.421  1.00  0.00     0.081 A 
HETATM   14  C9  UNL     1      16.594  -1.283  52.705  1.00  0.00     0.039 A 
HETATM   15  C10 UNL     1      15.672  -2.218  52.305  1.00  0.00     0.025 A 
HETATM   16  C11 UNL     1      15.853  -3.538  52.608  1.00  0.00     0.049 A 
HETATM   17 BR1  UNL     1      14.591  -4.863  52.068  1.00  0.00    -0.048 Br
HETATM   18  C12 UNL     1      16.978  -3.899  53.318  1.00  0.00     0.136 A 
HETATM   19  F1  UNL     1      17.195  -5.188  53.635  1.00  0.00    -0.205 F 
HETATM   20  C13 UNL     1      17.917  -2.969  53.727  1.00  0.00     0.081 A 
ENDBRANCH  12  13
ENDBRANCH   7  12
BRANCH   1  21
HETATM   21  C2  UNL     1      25.416   0.152  53.129  1.00  0.00     0.232 C 
BRANCH  21  22
HETATM   22  O1  UNL     1      25.958   0.643  54.276  1.00  0.00    -0.390 OA
HETATM   23  C1  UNL     1      27.217   0.244  54.614  1.00  0.00     0.201 C 
ENDBRANCH  21  22
ENDBRANCH   1  21
TORSDOF 4
ENDMDL
MODEL 7
REMARK VINA RESULT:      -7.2      4.438      8.128
REMARK  4 active torsions:
REMARK  status: ('A' for Active; 'I' for Inactive)
REMARK    1  A    between atoms: O1_2  and  C2_3 
REMARK    2  A    between atoms: C2_3  and  C3_4 
REMARK    3  A    between atoms: C7_10  and  O2_11 
REMARK    4  A    between atoms: O2_11  and  C8_12 
ROOT
HETATM    1  C3  UNL     1      26.162   0.069  52.810  1.00  0.00     0.078 C 
HETATM    2  C4  UNL     1      25.261  -0.625  53.508  1.00  0.00     0.067 C 
HETATM    3  C5  UNL     1      23.824  -0.427  53.786  1.00  0.00     0.075 A 
HETATM    4  N1  UNL     1      23.349  -1.182  54.787  1.00  0.00    -0.241 NA
HETATM    5  C6  UNL     1      22.027  -1.064  55.114  1.00  0.00     0.236 A 
HETATM    6  N2  UNL     1      21.232  -0.210  54.443  1.00  0.00    -0.217 NA
HETATM    7  C7  UNL     1      21.688   0.553  53.438  1.00  0.00     0.183 A 
HETATM    8  C14 UNL     1      23.033   0.472  53.063  1.00  0.00     0.048 A 
HETATM    9  C15 UNL     1      23.417   1.360  51.944  1.00  0.00     0.042 C 
HETATM   10  C16 UNL     1      24.638   1.689  51.558  1.00  0.00     0.143 C 
HETATM   11  O3  UNL     1      25.790   1.227  52.174  1.00  0.00    -0.325 OA
ENDROOT
BRANCH   7  12
HETATM   12  O2  UNL     1      20.869   1.438  52.739  1.00  0.00    -0.291 OA
BRANCH  12  13
HETATM   13  C8  UNL     1      19.775   0.895  52.073  1.00  0.00     0.081 A 
HETATM   14  C9  UNL     1      19.575   1.423  50.803  1.00  0.00     0.039 A 
HETATM   15  C10 UNL     1      18.542   1.005  50.000  1.00  0.00     0.025 A 
HETATM   16  C11 UNL     1      17.673   0.045  50.438  1.00  0.00     0.049 A 
HETATM   17 BR1  UNL     1      16.228  -0.559  49.350  1.00  0.00    -0.048 Br
HETATM   18  C12 UNL     1      17.864  -0.485  51.697  1.00  0.00     0.136 A 
HETATM   19  F1  UNL     1      17.032  -1.432  52.166  1.00  0.00    -0.205 F 
HETATM   20  C13 UNL     1      18.899  -0.074  52.517  1.00  0.00     0.081 A 
ENDBRANCH  12  13
ENDBRANCH   7  12
BRANCH   1  21
HETATM   21  C2  UNL     1      27.508  -0.539  52.819  1.00  0.00     0.232 C 
BRANCH  21  22
HETATM   22  O1  UNL     1      28.427   0.338  53.304  1.00  0.00    -0.390 OA
HETATM   23  C1  UNL     1      28.657   0.350  54.648  1.00  0.00     0.201 C 
ENDBRANCH  21  22
ENDBRANCH   1  21
TORSDOF 4
ENDMDL
MODEL 8
REMARK VINA RESULT:      -7.2      4.838      8.065
REMARK  4 active torsions:
REMARK  status: ('A' for Active; 'I' for Inactive)
REMARK    1  A    between atoms: O1_2  and  C2_3 
REMARK    2  A    between atoms: C2_3  and  C3_4 
REMARK    3  A    between atoms: C7_10  and  O2_11 
REMARK    4  A    between atoms: O2_11  and  C8_12 
ROOT
HETATM    1  C3  UNL     1      27.678   0.061  53.901  1.00  0.00     0.078 C 
HETATM    2  C4  UNL     1      27.636   1.115  53.084  1.00  0.00     0.067 C 
HETATM    3  C5  UNL     1      26.577   1.696  52.233  1.00  0.00     0.075 A 
HETATM    4  N1  UNL     1      27.023   2.573  51.324  1.00  0.00    -0.241 NA
HETATM    5  C6  UNL     1      26.111   3.161  50.493  1.00  0.00     0.236 A 
HETATM    6  N2  UNL     1      24.803   2.860  50.593  1.00  0.00    -0.217 NA
HETATM    7  C7  UNL     1      24.337   1.986  51.497  1.00  0.00     0.183 A 
HETATM    8  C14 UNL     1      25.227   1.354  52.372  1.00  0.00     0.048 A 
HETATM    9  C15 UNL     1      24.597   0.413  53.322  1.00  0.00     0.042 C 
HETATM   10  C16 UNL     1      25.193  -0.503  54.067  1.00  0.00     0.143 C 
HETATM   11  O3  UNL     1      26.562  -0.721  54.067  1.00  0.00    -0.325 OA
ENDROOT
BRANCH   7  12
HETATM   12  O2  UNL     1      22.983   1.671  51.606  1.00  0.00    -0.291 OA
BRANCH  12  13
HETATM   13  C8  UNL     1      22.137   2.169  50.620  1.00  0.00     0.081 A 
HETATM   14  C9  UNL     1      21.961   1.304  49.546  1.00  0.00     0.039 A 
HETATM   15  C10 UNL     1      21.159   1.629  48.479  1.00  0.00     0.025 A 
HETATM   16  C11 UNL     1      20.507   2.830  48.449  1.00  0.00     0.049 A 
HETATM   17 BR1  UNL     1      19.386   3.314  46.983  1.00  0.00    -0.048 Br
HETATM   18  C12 UNL     1      20.676   3.695  49.509  1.00  0.00     0.136 A 
HETATM   19  F1  UNL     1      20.052   4.885  49.518  1.00  0.00    -0.205 F 
HETATM   20  C13 UNL     1      21.480   3.381  50.590  1.00  0.00     0.081 A 
ENDBRANCH  12  13
ENDBRANCH   7  12
BRANCH   1  21
HETATM   21  C2  UNL     1      28.991  -0.128  54.552  1.00  0.00     0.232 C 
BRANCH  21  22
HETATM   22  O1  UNL     1      29.870  -0.713  53.695  1.00  0.00    -0.390 OA
HETATM   23  C1  UNL     1      29.655  -2.012  53.342  1.00  0.00     0.201 C 
ENDBRANCH  21  22
ENDBRANCH   1  21
TORSDOF 4
ENDMDL
MODEL 9
REMARK VINA RESULT:      -7.2      4.288      7.677
REMARK  4 active torsions:
REMARK  status: ('A' for Active; 'I' for Inactive)
REMARK    1  A    between atoms: O1_2  and  C2_3 
REMARK    2  A    between atoms: C2_3  and  C3_4 
REMARK    3  A    between atoms: C7_10  and  O2_11 
REMARK    4  A    between atoms: O2_11  and  C8_12 
ROOT
HETATM    1  C3  UNL     1      26.483   0.560  54.421  1.00  0.00     0.078 C 
HETATM    2  C4  UNL     1      25.487  -0.235  54.026  1.00  0.00     0.067 C 
HETATM    3  C5  UNL     1      24.136   0.025  53.489  1.00  0.00     0.075 A 
HETATM    4  N1  UNL     1      23.323  -1.041  53.505  1.00  0.00    -0.241 NA
HETATM    5  C6  UNL     1      22.052  -0.892  53.026  1.00  0.00     0.236 A 
HETATM    6  N2  UNL     1      21.637   0.297  52.552  1.00  0.00    -0.217 NA
HETATM    7  C7  UNL     1      22.434   1.375  52.526  1.00  0.00     0.183 A 
HETATM    8  C14 UNL     1      23.745   1.278  53.005  1.00  0.00     0.048 A 
HETATM    9  C15 UNL     1      24.527   2.531  52.924  1.00  0.00     0.042 C 
HETATM   10  C16 UNL     1      25.670   2.810  53.527  1.00  0.00     0.143 C 
HETATM   11  O3  UNL     1      26.335   1.923  54.361  1.00  0.00    -0.325 OA
ENDROOT
BRANCH   7  12
HETATM   12  O2  UNL     1      22.009   2.609  52.035  1.00  0.00    -0.291 OA
BRANCH  12  13
HETATM   13  C8  UNL     1      21.987   2.766  50.653  1.00  0.00     0.081 A 
HETATM   14  C9  UNL     1      21.567   4.025  50.239  1.00  0.00     0.039 A 
HETATM   15  C10 UNL     1      21.484   4.359  48.910  1.00  0.00     0.025 A 
HETATM   16  C11 UNL     1      21.816   3.446  47.948  1.00  0.00     0.049 A 
HETATM   17 BR1  UNL     1      21.711   3.876  46.093  1.00  0.00    -0.048 Br
HETATM   18  C12 UNL     1      22.233   2.195  48.349  1.00  0.00     0.136 A 
HETATM   19  F1  UNL     1      22.570   1.268  47.434  1.00  0.00    -0.205 F 
HETATM   20  C13 UNL     1      22.323   1.844  49.684  1.00  0.00     0.081 A 
ENDBRANCH  12  13
ENDBRANCH   7  12
BRANCH   1  21
HETATM   21  C2  UNL     1      27.672  -0.177  54.894  1.00  0.00     0.232 C 
BRANCH  21  22
HETATM   22  O1  UNL     1      28.203  -0.925  53.890  1.00  0.00    -0.390 OA
HETATM   23  C1  UNL     1      29.555  -0.900  53.716  1.00  0.00     0.201 C 
ENDBRANCH  21  22
ENDBRANCH   1  21
TORSDOF 4
ENDMDL
