MODEL 1
REMARK VINA RESULT:      -8.5      0.000      0.000
REMARK  5 active torsions:
REMARK  status: ('A' for Active; 'I' for Inactive)
REMARK    1  A    between atoms: C4_5  and  N2_6 
REMARK    2  A    between atoms: C13_17  and  O2_18 
REMARK    3  A    between atoms: O2_18  and  C14_19 
REMARK    4  A    between atoms: C14_19  and  C15_20 
REMARK    5  A    between atoms: C15_20  and  N4_21 
ROOT
HETATM    1  C1  UNL     1      23.975   5.579  51.661  1.00  0.00     0.053 A 
HETATM    2  C2  UNL     1      22.779   5.851  51.175  1.00  0.00    -0.078 A 
HETATM    3  C3  UNL     1      22.471   5.052  52.354  1.00  0.00     0.131 A 
HETATM    4  N1  UNL     1      23.550   4.413  52.956  1.00  0.00    -0.391 N 
HETATM    5  C4  UNL     1      24.125   3.214  52.632  1.00  0.00     0.335 C 
HETATM    6  C5  UNL     1      24.645   2.610  51.428  1.00  0.00     0.123 A 
HETATM    7  O1  UNL     1      23.777   2.138  50.407  1.00  0.00     0.000 OA
HETATM    8  C6  UNL     1      22.662   1.448  50.613  1.00  0.00    -0.024 A 
HETATM    9  C7  UNL     1      22.496   2.523  49.900  1.00  0.00     0.023 A 
HETATM   10  C8  UNL     1      23.501   3.445  49.525  1.00  0.00     0.041 C 
HETATM   11  C9  UNL     1      24.303   4.396  49.092  1.00  0.00     0.116 C 
HETATM   12  C10 UNL     1      25.743   4.684  49.183  1.00  0.00     0.190 C 
HETATM   13  N3  UNL     1      26.510   3.722  49.950  1.00  0.00    -0.290 NA
HETATM   14  C11 UNL     1      25.926   2.949  50.820  1.00  0.00     0.052 A 
HETATM   15  C12 UNL     1      26.709   1.819  51.355  1.00  0.00     0.061 A 
HETATM   16  C13 UNL     1      25.552   1.432  51.932  1.00  0.00     0.068 A 
HETATM   17  O3  UNL     1      23.878   5.514  48.341  1.00  0.00    -0.374 OA
HETATM   18  C20 UNL     1      23.585   6.757  48.978  1.00  0.00     0.177 C 
HETATM   19  C21 UNL     1      22.463   6.613  49.970  1.00  0.00     0.032 C 
HETATM   20  C22 UNL     1      21.755   7.914  50.206  1.00  0.00     0.016 C 
HETATM   21  H5  UNL     1      23.480   4.513  53.995  1.00  0.00     0.155 HD
ENDROOT
BRANCH  16  22
HETATM   22  O2  UNL     1      25.069   0.380  52.748  1.00  0.00    -0.352 OA
BRANCH  22  23
HETATM   23  C14 UNL     1      25.911  -0.652  53.225  1.00  0.00     0.205 C 
BRANCH  23  24
HETATM   24  C15 UNL     1      26.467  -0.126  54.548  1.00  0.00     0.299 C 
BRANCH  24  25
HETATM   25  N4  UNL     1      27.891  -0.301  54.669  1.00  0.00     0.090 N 
HETATM   26  C16 UNL     1      28.335  -1.119  53.547  1.00  0.00     0.272 C 
HETATM   27  C17 UNL     1      29.804  -0.748  53.396  1.00  0.00     0.032 C 
HETATM   28  C18 UNL     1      29.717   0.764  53.552  1.00  0.00     0.032 C 
HETATM   29  C19 UNL     1      28.590   0.962  54.528  1.00  0.00     0.272 C 
ENDBRANCH  24  25
ENDBRANCH  23  24
ENDBRANCH  22  23
ENDBRANCH  16  22
BRANCH   5  30
HETATM   30  N2  UNL     1      25.264   3.079  53.645  1.00  0.00     0.102 N 
HETATM   31  H7  UNL     1      25.634   4.035  53.771  1.00  0.00     0.315 HD
HETATM   32  H8  UNL     1      25.996   2.505  53.187  1.00  0.00     0.315 HD
ENDBRANCH   5  30
TORSDOF 5
ENDMDL
MODEL 2
REMARK VINA RESULT:      -8.0      2.023      2.836
REMARK  5 active torsions:
REMARK  status: ('A' for Active; 'I' for Inactive)
REMARK    1  A    between atoms: C4_5  and  N2_6 
REMARK    2  A    between atoms: C13_17  and  O2_18 
REMARK    3  A    between atoms: O2_18  and  C14_19 
REMARK    4  A    between atoms: C14_19  and  C15_20 
REMARK    5  A    between atoms: C15_20  and  N4_21 
ROOT
HETATM    1  C1  UNL     1      21.092   4.222  50.529  1.00  0.00     0.053 A 
HETATM    2  C2  UNL     1      19.993   3.500  50.643  1.00  0.00    -0.078 A 
HETATM    3  C3  UNL     1      20.363   3.744  52.031  1.00  0.00     0.131 A 
HETATM    4  N1  UNL     1      21.625   4.291  52.239  1.00  0.00    -0.391 N 
HETATM    5  C4  UNL     1      22.833   3.651  52.318  1.00  0.00     0.335 C 
HETATM    6  C5  UNL     1      23.554   2.702  51.503  1.00  0.00     0.123 A 
HETATM    7  O1  UNL     1      23.165   1.337  51.443  1.00  0.00     0.000 OA
HETATM    8  C6  UNL     1      22.806   0.601  52.488  1.00  0.00    -0.024 A 
HETATM    9  C7  UNL     1      21.927   0.626  51.530  1.00  0.00     0.023 A 
HETATM   10  C8  UNL     1      22.040   1.325  50.305  1.00  0.00     0.041 C 
HETATM   11  C9  UNL     1      21.979   1.908  49.125  1.00  0.00     0.116 C 
HETATM   12  C10 UNL     1      22.864   2.774  48.330  1.00  0.00     0.190 C 
HETATM   13  N3  UNL     1      24.118   3.117  48.971  1.00  0.00    -0.290 NA
HETATM   14  C11 UNL     1      24.247   3.036  50.265  1.00  0.00     0.052 A 
HETATM   15  C12 UNL     1      25.612   3.130  50.816  1.00  0.00     0.061 A 
HETATM   16  C13 UNL     1      25.041   2.803  51.995  1.00  0.00     0.068 A 
HETATM   17  O3  UNL     1      20.876   1.816  48.249  1.00  0.00    -0.374 OA
HETATM   18  C20 UNL     1      19.866   2.824  48.230  1.00  0.00     0.177 C 
HETATM   19  C21 UNL     1      19.184   2.939  49.565  1.00  0.00     0.032 C 
HETATM   20  C22 UNL     1      17.804   3.514  49.440  1.00  0.00     0.016 C 
HETATM   21  H5  UNL     1      21.565   5.043  52.964  1.00  0.00     0.155 HD
ENDROOT
BRANCH  16  22
HETATM   22  O2  UNL     1      25.428   2.573  53.338  1.00  0.00    -0.352 OA
BRANCH  22  23
HETATM   23  C14 UNL     1      26.666   1.977  53.674  1.00  0.00     0.205 C 
BRANCH  23  24
HETATM   24  C15 UNL     1      26.322   0.532  54.034  1.00  0.00     0.299 C 
BRANCH  24  25
HETATM   25  N4  UNL     1      27.484  -0.267  54.325  1.00  0.00     0.090 N 
HETATM   26  C16 UNL     1      27.780  -1.068  53.144  1.00  0.00     0.272 C 
HETATM   27  C17 UNL     1      29.265  -1.371  53.284  1.00  0.00     0.032 C 
HETATM   28  C18 UNL     1      29.780  -0.004  53.713  1.00  0.00     0.032 C 
HETATM   29  C19 UNL     1      28.654   0.563  54.534  1.00  0.00     0.272 C 
ENDBRANCH  24  25
ENDBRANCH  23  24
ENDBRANCH  22  23
ENDBRANCH  16  22
BRANCH   5  30
HETATM   30  N2  UNL     1      23.827   4.794  52.539  1.00  0.00     0.102 N 
HETATM   31  H7  UNL     1      23.358   5.639  52.179  1.00  0.00     0.315 HD
HETATM   32  H8  UNL     1      24.643   4.591  51.931  1.00  0.00     0.315 HD
ENDBRANCH   5  30
TORSDOF 5
ENDMDL
MODEL 3
REMARK VINA RESULT:      -7.9      1.656      2.843
REMARK  5 active torsions:
REMARK  status: ('A' for Active; 'I' for Inactive)
REMARK    1  A    between atoms: C4_5  and  N2_6 
REMARK    2  A    between atoms: C13_17  and  O2_18 
REMARK    3  A    between atoms: O2_18  and  C14_19 
REMARK    4  A    between atoms: C14_19  and  C15_20 
REMARK    5  A    between atoms: C15_20  and  N4_21 
ROOT
HETATM    1  C1  UNL     1      22.157   3.866  49.291  1.00  0.00     0.053 A 
HETATM    2  C2  UNL     1      22.630   4.130  48.088  1.00  0.00    -0.078 A 
HETATM    3  C3  UNL     1      22.868   2.699  48.219  1.00  0.00     0.131 A 
HETATM    4  N1  UNL     1      22.684   2.163  49.489  1.00  0.00    -0.391 N 
HETATM    5  C4  UNL     1      23.562   2.126  50.539  1.00  0.00     0.335 C 
HETATM    6  C5  UNL     1      24.376   3.092  51.239  1.00  0.00     0.123 A 
HETATM    7  O1  UNL     1      25.555   3.625  50.651  1.00  0.00     0.000 OA
HETATM    8  C6  UNL     1      26.460   2.919  49.983  1.00  0.00    -0.024 A 
HETATM    9  C7  UNL     1      25.981   3.931  49.320  1.00  0.00     0.023 A 
HETATM   10  C8  UNL     1      25.009   4.851  49.779  1.00  0.00     0.041 C 
HETATM   11  C9  UNL     1      24.120   5.787  50.042  1.00  0.00     0.116 C 
HETATM   12  C10 UNL     1      23.276   6.147  51.192  1.00  0.00     0.190 C 
HETATM   13  N3  UNL     1      23.401   5.269  52.339  1.00  0.00    -0.290 NA
HETATM   14  C11 UNL     1      23.866   4.060  52.202  1.00  0.00     0.052 A 
HETATM   15  C12 UNL     1      24.223   3.328  53.432  1.00  0.00     0.061 A 
HETATM   16  C13 UNL     1      24.736   2.398  52.600  1.00  0.00     0.068 A 
HETATM   17  O3  UNL     1      23.727   6.789  49.128  1.00  0.00    -0.374 OA
HETATM   18  C20 UNL     1      22.562   6.628  48.318  1.00  0.00     0.177 C 
HETATM   19  C21 UNL     1      22.682   5.428  47.420  1.00  0.00     0.032 C 
HETATM   20  C22 UNL     1      21.814   5.552  46.202  1.00  0.00     0.016 C 
HETATM   21  H5  UNL     1      22.169   1.256  49.414  1.00  0.00     0.155 HD
ENDROOT
BRANCH  16  22
HETATM   22  O2  UNL     1      25.409   1.154  52.679  1.00  0.00    -0.352 OA
BRANCH  22  23
HETATM   23  C14 UNL     1      25.148   0.220  53.708  1.00  0.00     0.205 C 
BRANCH  23  24
HETATM   24  C15 UNL     1      26.467   0.095  54.470  1.00  0.00     0.299 C 
BRANCH  24  25
HETATM   25  N4  UNL     1      27.617   0.064  53.603  1.00  0.00     0.090 N 
HETATM   26  C16 UNL     1      28.789   0.392  54.406  1.00  0.00     0.272 C 
HETATM   27  C17 UNL     1      29.937  -0.244  53.634  1.00  0.00     0.032 C 
HETATM   28  C18 UNL     1      29.315  -1.589  53.284  1.00  0.00     0.032 C 
HETATM   29  C19 UNL     1      27.856  -1.272  53.095  1.00  0.00     0.272 C 
ENDBRANCH  24  25
ENDBRANCH  23  24
ENDBRANCH  22  23
ENDBRANCH  16  22
BRANCH   5  30
HETATM   30  N2  UNL     1      22.766   1.430  51.645  1.00  0.00     0.102 N 
HETATM   31  H7  UNL     1      21.884   1.960  51.724  1.00  0.00     0.315 HD
HETATM   32  H8  UNL     1      23.305   1.563  52.520  1.00  0.00     0.315 HD
ENDBRANCH   5  30
TORSDOF 5
ENDMDL
MODEL 4
REMARK VINA RESULT:      -7.5      1.991      3.081
REMARK  5 active torsions:
REMARK  status: ('A' for Active; 'I' for Inactive)
REMARK    1  A    between atoms: C4_5  and  N2_6 
REMARK    2  A    between atoms: C13_17  and  O2_18 
REMARK    3  A    between atoms: O2_18  and  C14_19 
REMARK    4  A    between atoms: C14_19  and  C15_20 
REMARK    5  A    between atoms: C15_20  and  N4_21 
ROOT
HETATM    1  C1  UNL     1      23.362   6.252  51.174  1.00  0.00     0.053 A 
HETATM    2  C2  UNL     1      22.238   6.507  50.532  1.00  0.00    -0.078 A 
HETATM    3  C3  UNL     1      21.823   5.532  51.532  1.00  0.00     0.131 A 
HETATM    4  N1  UNL     1      22.847   4.892  52.222  1.00  0.00    -0.391 N 
HETATM    5  C4  UNL     1      23.573   3.791  51.851  1.00  0.00     0.335 C 
HETATM    6  C5  UNL     1      24.328   3.398  50.685  1.00  0.00     0.123 A 
HETATM    7  O1  UNL     1      23.679   3.014  49.481  1.00  0.00     0.000 OA
HETATM    8  C6  UNL     1      22.613   2.226  49.409  1.00  0.00    -0.024 A 
HETATM    9  C7  UNL     1      22.464   3.376  48.819  1.00  0.00     0.023 A 
HETATM   10  C8  UNL     1      23.427   4.409  48.737  1.00  0.00     0.041 C 
HETATM   11  C9  UNL     1      24.197   5.464  48.568  1.00  0.00     0.116 C 
HETATM   12  C10 UNL     1      25.573   5.835  48.935  1.00  0.00     0.190 C 
HETATM   13  N3  UNL     1      26.294   4.832  49.693  1.00  0.00    -0.290 NA
HETATM   14  C11 UNL     1      25.652   3.907  50.349  1.00  0.00     0.052 A 
HETATM   15  C12 UNL     1      26.441   2.770  50.861  1.00  0.00     0.061 A 
HETATM   16  C13 UNL     1      25.248   2.228  51.182  1.00  0.00     0.068 A 
HETATM   17  O3  UNL     1      23.795   6.643  47.904  1.00  0.00    -0.374 OA
HETATM   18  C20 UNL     1      23.294   7.762  48.633  1.00  0.00     0.177 C 
HETATM   19  C21 UNL     1      22.048   7.404  49.396  1.00  0.00     0.032 C 
HETATM   20  C22 UNL     1      21.196   8.608  49.671  1.00  0.00     0.016 C 
HETATM   21  H5  UNL     1      22.605   4.841  53.238  1.00  0.00     0.155 HD
ENDROOT
BRANCH  16  22
HETATM   22  O2  UNL     1      24.740   1.041  51.766  1.00  0.00    -0.352 OA
BRANCH  22  23
HETATM   23  C14 UNL     1      25.505   0.252  52.656  1.00  0.00     0.205 C 
BRANCH  23  24
HETATM   24  C15 UNL     1      24.627   0.094  53.897  1.00  0.00     0.299 C 
BRANCH  24  25
HETATM   25  N4  UNL     1      23.329  -0.456  53.600  1.00  0.00     0.090 N 
HETATM   26  C16 UNL     1      22.918  -1.264  54.742  1.00  0.00     0.272 C 
HETATM   27  C17 UNL     1      21.399  -1.277  54.639  1.00  0.00     0.032 C 
HETATM   28  C18 UNL     1      21.138   0.186  54.310  1.00  0.00     0.032 C 
HETATM   29  C19 UNL     1      22.330   0.588  53.484  1.00  0.00     0.272 C 
ENDBRANCH  24  25
ENDBRANCH  23  24
ENDBRANCH  22  23
ENDBRANCH  16  22
BRANCH   5  30
HETATM   30  N2  UNL     1      24.545   3.597  53.016  1.00  0.00     0.102 N 
HETATM   31  H7  UNL     1      25.487   3.624  52.595  1.00  0.00     0.315 HD
HETATM   32  H8  UNL     1      24.379   2.639  53.378  1.00  0.00     0.315 HD
ENDBRANCH   5  30
TORSDOF 5
ENDMDL
MODEL 5
REMARK VINA RESULT:      -7.5      2.989      6.220
REMARK  5 active torsions:
REMARK  status: ('A' for Active; 'I' for Inactive)
REMARK    1  A    between atoms: C4_5  and  N2_6 
REMARK    2  A    between atoms: C13_17  and  O2_18 
REMARK    3  A    between atoms: O2_18  and  C14_19 
REMARK    4  A    between atoms: C14_19  and  C15_20 
REMARK    5  A    between atoms: C15_20  and  N4_21 
ROOT
HETATM    1  C1  UNL     1      22.488   2.274  53.101  1.00  0.00     0.053 A 
HETATM    2  C2  UNL     1      22.904   1.110  52.639  1.00  0.00    -0.078 A 
HETATM    3  C3  UNL     1      24.151   1.830  52.863  1.00  0.00     0.131 A 
HETATM    4  N1  UNL     1      24.030   3.189  53.135  1.00  0.00    -0.391 N 
HETATM    5  C4  UNL     1      23.907   4.231  52.255  1.00  0.00     0.335 C 
HETATM    6  C5  UNL     1      23.048   4.541  51.136  1.00  0.00     0.123 A 
HETATM    7  O1  UNL     1      23.203   3.885  49.885  1.00  0.00     0.000 OA
HETATM    8  C6  UNL     1      24.365   3.638  49.293  1.00  0.00    -0.024 A 
HETATM    9  C7  UNL     1      23.621   2.585  49.462  1.00  0.00     0.023 A 
HETATM   10  C8  UNL     1      22.340   2.549  50.061  1.00  0.00     0.041 C 
HETATM   11  C9  UNL     1      21.152   2.336  50.588  1.00  0.00     0.116 C 
HETATM   12  C10 UNL     1      20.107   3.167  51.205  1.00  0.00     0.190 C 
HETATM   13  N3  UNL     1      20.427   4.578  51.300  1.00  0.00    -0.290 NA
HETATM   14  C11 UNL     1      21.665   4.983  51.254  1.00  0.00     0.052 A 
HETATM   15  C12 UNL     1      21.898   6.429  51.079  1.00  0.00     0.061 A 
HETATM   16  C13 UNL     1      23.197   6.091  50.938  1.00  0.00     0.068 A 
HETATM   17  O3  UNL     1      20.546   1.064  50.694  1.00  0.00    -0.374 OA
HETATM   18  C20 UNL     1      20.650   0.299  51.893  1.00  0.00     0.177 C 
HETATM   19  C21 UNL     1      22.084  -0.021  52.215  1.00  0.00     0.032 C 
HETATM   20  C22 UNL     1      22.205  -1.250  53.067  1.00  0.00     0.016 C 
HETATM   21  H5  UNL     1      24.676   3.448  53.916  1.00  0.00     0.155 HD
ENDROOT
BRANCH  16  22
HETATM   22  O2  UNL     1      24.441   6.724  50.694  1.00  0.00    -0.352 OA
BRANCH  22  23
HETATM   23  C14 UNL     1      24.762   7.296  49.441  1.00  0.00     0.205 C 
BRANCH  23  24
HETATM   24  C15 UNL     1      26.266   7.561  49.504  1.00  0.00     0.299 C 
BRANCH  24  25
HETATM   25  N4  UNL     1      26.981   7.012  48.381  1.00  0.00     0.090 N 
HETATM   26  C16 UNL     1      28.247   7.726  48.268  1.00  0.00     0.272 C 
HETATM   27  C17 UNL     1      29.146   6.741  47.534  1.00  0.00     0.032 C 
HETATM   28  C18 UNL     1      28.791   5.454  48.266  1.00  0.00     0.032 C 
HETATM   29  C19 UNL     1      27.337   5.625  48.612  1.00  0.00     0.272 C 
ENDBRANCH  24  25
ENDBRANCH  23  24
ENDBRANCH  22  23
ENDBRANCH  16  22
BRANCH   5  30
HETATM   30  N2  UNL     1      23.799   5.456  53.166  1.00  0.00     0.102 N 
HETATM   31  H7  UNL     1      23.260   6.152  52.628  1.00  0.00     0.315 HD
HETATM   32  H8  UNL     1      24.764   5.814  53.288  1.00  0.00     0.315 HD
ENDBRANCH   5  30
TORSDOF 5
ENDMDL
MODEL 6
REMARK VINA RESULT:      -7.4      2.534      6.407
REMARK  5 active torsions:
REMARK  status: ('A' for Active; 'I' for Inactive)
REMARK    1  A    between atoms: C4_5  and  N2_6 
REMARK    2  A    between atoms: C13_17  and  O2_18 
REMARK    3  A    between atoms: O2_18  and  C14_19 
REMARK    4  A    between atoms: C14_19  and  C15_20 
REMARK    5  A    between atoms: C15_20  and  N4_21 
ROOT
HETATM    1  C1  UNL     1      23.049   1.008  51.142  1.00  0.00     0.053 A 
HETATM    2  C2  UNL     1      22.383   0.996  52.281  1.00  0.00    -0.078 A 
HETATM    3  C3  UNL     1      21.556   1.847  51.436  1.00  0.00     0.131 A 
HETATM    4  N1  UNL     1      22.122   2.242  50.229  1.00  0.00    -0.391 N 
HETATM    5  C4  UNL     1      22.969   3.290  49.982  1.00  0.00     0.335 C 
HETATM    6  C5  UNL     1      24.215   3.764  50.538  1.00  0.00     0.123 A 
HETATM    7  O1  UNL     1      24.259   4.406  51.805  1.00  0.00     0.000 OA
HETATM    8  C6  UNL     1      23.393   5.320  52.226  1.00  0.00    -0.024 A 
HETATM    9  C7  UNL     1      23.521   4.302  53.026  1.00  0.00     0.023 A 
HETATM   10  C8  UNL     1      24.367   3.185  52.833  1.00  0.00     0.041 C 
HETATM   11  C9  UNL     1      25.088   2.083  52.813  1.00  0.00     0.116 C 
HETATM   12  C10 UNL     1      26.089   1.494  51.910  1.00  0.00     0.190 C 
HETATM   13  N3  UNL     1      26.369   2.272  50.719  1.00  0.00    -0.290 NA
HETATM   14  C11 UNL     1      25.515   3.156  50.287  1.00  0.00     0.052 A 
HETATM   15  C12 UNL     1      25.980   4.094  49.248  1.00  0.00     0.061 A 
HETATM   16  C13 UNL     1      24.801   4.722  49.442  1.00  0.00     0.068 A 
HETATM   17  O3  UNL     1      25.033   1.079  53.805  1.00  0.00    -0.374 OA
HETATM   18  C20 UNL     1      24.203  -0.070  53.641  1.00  0.00     0.177 C 
HETATM   19  C21 UNL     1      22.754   0.315  53.518  1.00  0.00     0.032 C 
HETATM   20  C22 UNL     1      21.842  -0.804  53.928  1.00  0.00     0.016 C 
HETATM   21  H5  UNL     1      21.410   2.164  49.467  1.00  0.00     0.155 HD
ENDROOT
BRANCH  16  22
HETATM   22  O2  UNL     1      24.107   5.857  48.956  1.00  0.00    -0.352 OA
BRANCH  22  23
HETATM   23  C14 UNL     1      24.780   7.013  48.497  1.00  0.00     0.205 C 
BRANCH  23  24
HETATM   24  C15 UNL     1      25.213   7.746  49.766  1.00  0.00     0.299 C 
BRANCH  24  25
HETATM   25  N4  UNL     1      26.644   7.824  49.910  1.00  0.00     0.090 N 
HETATM   26  C16 UNL     1      27.237   7.547  48.608  1.00  0.00     0.272 C 
HETATM   27  C17 UNL     1      28.596   8.230  48.685  1.00  0.00     0.032 C 
HETATM   28  C18 UNL     1      28.200   9.546  49.338  1.00  0.00     0.032 C 
HETATM   29  C19 UNL     1      27.065   9.169  50.251  1.00  0.00     0.272 C 
ENDBRANCH  24  25
ENDBRANCH  23  24
ENDBRANCH  22  23
ENDBRANCH  16  22
BRANCH   5  30
HETATM   30  N2  UNL     1      23.242   3.181  48.480  1.00  0.00     0.102 N 
HETATM   31  H7  UNL     1      22.333   2.942  48.053  1.00  0.00     0.315 HD
HETATM   32  H8  UNL     1      23.881   2.375  48.358  1.00  0.00     0.315 HD
ENDBRANCH   5  30
TORSDOF 5
ENDMDL
MODEL 7
REMARK VINA RESULT:      -7.3      3.378      6.019
REMARK  5 active torsions:
REMARK  status: ('A' for Active; 'I' for Inactive)
REMARK    1  A    between atoms: C4_5  and  N2_6 
REMARK    2  A    between atoms: C13_17  and  O2_18 
REMARK    3  A    between atoms: O2_18  and  C14_19 
REMARK    4  A    between atoms: C14_19  and  C15_20 
REMARK    5  A    between atoms: C15_20  and  N4_21 
ROOT
HETATM    1  C1  UNL     1      22.643   3.877  51.684  1.00  0.00     0.053 A 
HETATM    2  C2  UNL     1      23.056   2.638  51.876  1.00  0.00    -0.078 A 
HETATM    3  C3  UNL     1      24.020   3.420  52.639  1.00  0.00     0.131 A 
HETATM    4  N1  UNL     1      23.984   4.796  52.439  1.00  0.00    -0.391 N 
HETATM    5  C4  UNL     1      24.580   5.535  51.453  1.00  0.00     0.335 C 
HETATM    6  C5  UNL     1      24.622   5.488  50.010  1.00  0.00     0.123 A 
HETATM    7  O1  UNL     1      25.382   4.501  49.327  1.00  0.00     0.000 OA
HETATM    8  C6  UNL     1      26.609   4.119  49.661  1.00  0.00    -0.024 A 
HETATM    9  C7  UNL     1      25.752   3.143  49.582  1.00  0.00     0.023 A 
HETATM   10  C8  UNL     1      24.382   3.255  49.249  1.00  0.00     0.041 C 
HETATM   11  C9  UNL     1      23.098   3.177  48.962  1.00  0.00     0.116 C 
HETATM   12  C10 UNL     1      22.044   4.128  48.578  1.00  0.00     0.190 C 
HETATM   13  N3  UNL     1      22.468   5.513  48.506  1.00  0.00    -0.290 NA
HETATM   14  C11 UNL     1      23.535   5.914  49.138  1.00  0.00     0.052 A 
HETATM   15  C12 UNL     1      24.058   7.252  48.802  1.00  0.00     0.061 A 
HETATM   16  C13 UNL     1      25.108   6.917  49.579  1.00  0.00     0.068 A 
HETATM   17  O3  UNL     1      22.353   1.978  48.974  1.00  0.00    -0.374 OA
HETATM   18  C20 UNL     1      21.596   1.595  50.122  1.00  0.00     0.177 C 
HETATM   19  C21 UNL     1      22.480   1.415  51.325  1.00  0.00     0.032 C 
HETATM   20  C22 UNL     1      21.868   0.488  52.334  1.00  0.00     0.016 C 
HETATM   21  H5  UNL     1      24.068   5.285  53.360  1.00  0.00     0.155 HD
ENDROOT
BRANCH  16  22
HETATM   22  O2  UNL     1      26.335   7.479  50.011  1.00  0.00    -0.352 OA
BRANCH  22  23
HETATM   23  C14 UNL     1      27.208   8.153  49.126  1.00  0.00     0.205 C 
BRANCH  23  24
HETATM   24  C15 UNL     1      27.559   7.119  48.056  1.00  0.00     0.299 C 
BRANCH  24  25
HETATM   25  N4  UNL     1      28.962   7.099  47.732  1.00  0.00     0.090 N 
HETATM   26  C16 UNL     1      29.634   8.050  48.609  1.00  0.00     0.272 C 
HETATM   27  C17 UNL     1      31.068   7.540  48.652  1.00  0.00     0.032 C 
HETATM   28  C18 UNL     1      30.819   6.047  48.809  1.00  0.00     0.032 C 
HETATM   29  C19 UNL     1      29.552   5.809  48.033  1.00  0.00     0.272 C 
ENDBRANCH  24  25
ENDBRANCH  23  24
ENDBRANCH  22  23
ENDBRANCH  16  22
BRANCH   5  30
HETATM   30  N2  UNL     1      24.151   6.969  51.773  1.00  0.00     0.102 N 
HETATM   31  H7  UNL     1      24.729   7.570  51.165  1.00  0.00     0.315 HD
HETATM   32  H8  UNL     1      24.426   7.142  52.758  1.00  0.00     0.315 HD
ENDBRANCH   5  30
TORSDOF 5
ENDMDL
MODEL 8
REMARK VINA RESULT:      -7.3      4.394      7.077
REMARK  5 active torsions:
REMARK  status: ('A' for Active; 'I' for Inactive)
REMARK    1  A    between atoms: C4_5  and  N2_6 
REMARK    2  A    between atoms: C13_17  and  O2_18 
REMARK    3  A    between atoms: O2_18  and  C14_19 
REMARK    4  A    between atoms: C14_19  and  C15_20 
REMARK    5  A    between atoms: C15_20  and  N4_21 
ROOT
HETATM    1  C1  UNL     1      29.104   8.993  49.391  1.00  0.00     0.053 A 
HETATM    2  C2  UNL     1      29.326  10.012  48.583  1.00  0.00    -0.078 A 
HETATM    3  C3  UNL     1      28.041  10.350  49.179  1.00  0.00     0.131 A 
HETATM    4  N1  UNL     1      27.424   9.341  49.911  1.00  0.00    -0.391 N 
HETATM    5  C4  UNL     1      26.635   8.316  49.463  1.00  0.00     0.335 C 
HETATM    6  C5  UNL     1      26.750   7.292  48.451  1.00  0.00     0.123 A 
HETATM    7  O1  UNL     1      26.627   7.603  47.070  1.00  0.00     0.000 OA
HETATM    8  C6  UNL     1      25.715   8.416  46.551  1.00  0.00    -0.024 A 
HETATM    9  C7  UNL     1      26.940   8.731  46.249  1.00  0.00     0.023 A 
HETATM   10  C8  UNL     1      28.108   8.048  46.660  1.00  0.00     0.041 C 
HETATM   11  C9  UNL     1      29.289   7.540  46.949  1.00  0.00     0.116 C 
HETATM   12  C10 UNL     1      29.780   6.384  47.716  1.00  0.00     0.190 C 
HETATM   13  N3  UNL     1      28.747   5.588  48.349  1.00  0.00    -0.290 NA
HETATM   14  C11 UNL     1      27.568   6.093  48.580  1.00  0.00     0.052 A 
HETATM   15  C12 UNL     1      26.495   5.157  48.966  1.00  0.00     0.061 A 
HETATM   16  C13 UNL     1      25.673   6.220  48.846  1.00  0.00     0.068 A 
HETATM   17  O3  UNL     1      30.517   8.090  46.524  1.00  0.00    -0.374 OA
HETATM   18  C20 UNL     1      31.259   8.971  47.367  1.00  0.00     0.177 C 
HETATM   19  C21 UNL     1      30.469  10.208  47.696  1.00  0.00     0.032 C 
HETATM   20  C22 UNL     1      31.360  11.362  48.050  1.00  0.00     0.016 C 
HETATM   21  H5  UNL     1      27.031   9.741  50.795  1.00  0.00     0.155 HD
ENDROOT
BRANCH  16  22
HETATM   22  O2  UNL     1      24.295   6.521  48.976  1.00  0.00    -0.352 OA
BRANCH  22  23
HETATM   23  C14 UNL     1      23.324   5.520  49.213  1.00  0.00     0.205 C 
BRANCH  23  24
HETATM   24  C15 UNL     1      23.140   5.503  50.731  1.00  0.00     0.299 C 
BRANCH  24  25
HETATM   25  N4  UNL     1      22.979   4.174  51.263  1.00  0.00     0.090 N 
HETATM   26  C16 UNL     1      22.569   3.303  50.168  1.00  0.00     0.272 C 
HETATM   27  C17 UNL     1      23.014   1.922  50.628  1.00  0.00     0.032 C 
HETATM   28  C18 UNL     1      24.397   2.251  51.172  1.00  0.00     0.032 C 
HETATM   29  C19 UNL     1      24.243   3.639  51.731  1.00  0.00     0.272 C 
ENDBRANCH  24  25
ENDBRANCH  23  24
ENDBRANCH  22  23
ENDBRANCH  16  22
BRANCH   5  30
HETATM   30  N2  UNL     1      26.285   7.550  50.740  1.00  0.00     0.102 N 
HETATM   31  H7  UNL     1      26.484   6.559  50.529  1.00  0.00     0.315 HD
HETATM   32  H8  UNL     1      25.262   7.655  50.872  1.00  0.00     0.315 HD
ENDBRANCH   5  30
TORSDOF 5
ENDMDL
MODEL 9
REMARK VINA RESULT:      -6.9      4.103      6.772
REMARK  5 active torsions:
REMARK  status: ('A' for Active; 'I' for Inactive)
REMARK    1  A    between atoms: C4_5  and  N2_6 
REMARK    2  A    between atoms: C13_17  and  O2_18 
REMARK    3  A    between atoms: O2_18  and  C14_19 
REMARK    4  A    between atoms: C14_19  and  C15_20 
REMARK    5  A    between atoms: C15_20  and  N4_21 
ROOT
HETATM    1  C1  UNL     1      22.861   6.229  50.944  1.00  0.00     0.053 A 
HETATM    2  C2  UNL     1      22.779   5.029  51.488  1.00  0.00    -0.078 A 
HETATM    3  C3  UNL     1      23.954   5.597  52.137  1.00  0.00     0.131 A 
HETATM    4  N1  UNL     1      24.437   6.784  51.594  1.00  0.00    -0.391 N 
HETATM    5  C4  UNL     1      25.280   6.959  50.531  1.00  0.00     0.335 C 
HETATM    6  C5  UNL     1      25.323   6.502  49.161  1.00  0.00     0.123 A 
HETATM    7  O1  UNL     1      25.671   5.161  48.843  1.00  0.00     0.000 OA
HETATM    8  C6  UNL     1      26.661   4.477  49.403  1.00  0.00    -0.024 A 
HETATM    9  C7  UNL     1      25.503   3.888  49.473  1.00  0.00     0.023 A 
HETATM   10  C8  UNL     1      24.279   4.382  48.965  1.00  0.00     0.041 C 
HETATM   11  C9  UNL     1      23.063   4.687  48.558  1.00  0.00     0.116 C 
HETATM   12  C10 UNL     1      22.446   5.804  47.827  1.00  0.00     0.190 C 
HETATM   13  N3  UNL     1      23.357   6.870  47.459  1.00  0.00    -0.290 NA
HETATM   14  C11 UNL     1      24.486   7.025  48.089  1.00  0.00     0.052 A 
HETATM   15  C12 UNL     1      25.476   7.941  47.490  1.00  0.00     0.061 A 
HETATM   16  C13 UNL     1      26.314   7.486  48.444  1.00  0.00     0.068 A 
HETATM   17  O3  UNL     1      21.924   3.884  48.785  1.00  0.00    -0.374 OA
HETATM   18  C20 UNL     1      21.062   4.130  49.895  1.00  0.00     0.177 C 
HETATM   19  C21 UNL     1      21.797   3.989  51.200  1.00  0.00     0.032 C 
HETATM   20  C22 UNL     1      20.869   3.658  52.332  1.00  0.00     0.016 C 
HETATM   21  H5  UNL     1      24.683   7.446  52.366  1.00  0.00     0.155 HD
ENDROOT
BRANCH  16  22
HETATM   22  O2  UNL     1      27.655   7.672  48.861  1.00  0.00    -0.352 OA
BRANCH  22  23
HETATM   23  C14 UNL     1      28.739   7.633  47.953  1.00  0.00     0.205 C 
BRANCH  23  24
HETATM   24  C15 UNL     1      29.984   7.524  48.832  1.00  0.00     0.299 C 
BRANCH  24  25
HETATM   25  N4  UNL     1      30.894   8.627  48.657  1.00  0.00     0.090 N 
HETATM   26  C16 UNL     1      30.669   9.182  47.329  1.00  0.00     0.272 C 
HETATM   27  C17 UNL     1      31.162  10.617  47.455  1.00  0.00     0.032 C 
HETATM   28  C18 UNL     1      30.563  10.990  48.804  1.00  0.00     0.032 C 
HETATM   29  C19 UNL     1      30.599   9.704  49.583  1.00  0.00     0.272 C 
ENDBRANCH  24  25
ENDBRANCH  23  24
ENDBRANCH  22  23
ENDBRANCH  16  22
BRANCH   5  30
HETATM   30  N2  UNL     1      25.412   8.480  50.427  1.00  0.00     0.102 N 
HETATM   31  H7  UNL     1      25.664   8.799  51.376  1.00  0.00     0.315 HD
HETATM   32  H8  UNL     1      24.466   8.840  50.202  1.00  0.00     0.315 HD
ENDBRANCH   5  30
TORSDOF 5
ENDMDL
