MODEL 1
REMARK VINA RESULT:      -8.1      0.000      0.000
REMARK  8 active torsions:
REMARK  status: ('A' for Active; 'I' for Inactive)
REMARK    1  A    between atoms: C7_7  and  C8_8 
REMARK    2  A    between atoms: C8_8  and  C9_9 
REMARK    3  A    between atoms: C8_8  and  C10_11 
REMARK    4  A    between atoms: C9_9  and  O1_10 
REMARK    5  A    between atoms: C10_11  and  C19_20 
REMARK    6  A    between atoms: C11_12  and  C12_13 
REMARK    7  A    between atoms: C12_13  and  C13_14 
REMARK    8  A    between atoms: C19_20  and  C21_23 
REMARK       I    between atoms: C21_23  and  N2_24 
ROOT
HETATM    1  C19 UNL     1      24.259   3.454  51.322  1.00  0.00     0.213 C 
HETATM    2  C20 UNL     1      23.314   3.165  50.253  1.00  0.00     0.078 C 
HETATM    3  N1  UNL     1      22.557   2.918  49.412  1.00  0.00    -0.196 NA
ENDROOT
BRANCH   1   4
HETATM    4  C10 UNL     1      24.791   2.176  51.931  1.00  0.00    -0.046 C 
HETATM    5  C11 UNL     1      24.019   1.548  52.787  1.00  0.00    -0.017 C 
BRANCH   4   6
HETATM    6  C8  UNL     1      26.123   1.905  51.395  1.00  0.00     0.073 C 
BRANCH   6   7
HETATM    7  C7  UNL     1      27.063   1.323  52.369  1.00  0.00    -0.042 A 
HETATM    8  C2  UNL     1      27.381   0.025  52.700  1.00  0.00    -0.055 A 
HETATM    9  C1  UNL     1      26.622  -1.005  51.955  1.00  0.00     0.049 C 
HETATM   10  C3  UNL     1      28.321  -0.258  53.653  1.00  0.00     0.007 A 
HETATM   11  C4  UNL     1      29.002   0.721  54.338  1.00  0.00     0.001 A 
HETATM   12  C5  UNL     1      28.700   2.033  54.025  1.00  0.00     0.001 A 
HETATM   13  C6  UNL     1      27.744   2.331  53.054  1.00  0.00     0.008 A 
ENDBRANCH   6   7
BRANCH   6  14
HETATM   14  C9  UNL     1      26.749   3.083  50.657  1.00  0.00     0.178 C 
BRANCH  14  15
HETATM   15  O1  UNL     1      26.914   2.845  49.297  1.00  0.00    -0.400 OA
HETATM   16  H11 UNL     1      26.193   3.244  48.753  1.00  0.00     0.209 HD
ENDBRANCH  14  15
ENDBRANCH   6  14
ENDBRANCH   4   6
BRANCH   5  17
HETATM   17  C12 UNL     1      23.932   0.356  53.662  1.00  0.00     0.066 C 
BRANCH  17  18
HETATM   18  C13 UNL     1      22.550  -0.225  53.706  1.00  0.00    -0.055 A 
HETATM   19  C14 UNL     1      22.246  -1.346  54.461  1.00  0.00     0.007 A 
HETATM   20  C15 UNL     1      20.941  -1.802  54.433  1.00  0.00     0.001 A 
HETATM   21  C16 UNL     1      19.949  -1.198  53.696  1.00  0.00     0.000 A 
HETATM   22  C17 UNL     1      20.245  -0.086  52.945  1.00  0.00     0.001 A 
HETATM   23  C18 UNL     1      21.553   0.385  52.964  1.00  0.00     0.007 A 
ENDBRANCH  17  18
ENDBRANCH   5  17
ENDBRANCH   1   4
BRANCH   1  24
HETATM   24  C21 UNL     1      23.712   4.362  52.335  1.00  0.00     0.237 C 
HETATM   25  N2  UNL     1      23.861   5.200  53.461  1.00  0.00    -0.369 N 
HETATM   26  H21 UNL     1      24.078   6.235  53.395  1.00  0.00     0.159 HD
HETATM   27  H22 UNL     1      23.770   4.859  54.461  1.00  0.00     0.159 HD
HETATM   28  O2  UNL     1      22.458   4.589  52.266  1.00  0.00    -0.272 OA
ENDBRANCH   1  24
TORSDOF 8
ENDMDL
MODEL 2
REMARK VINA RESULT:      -8.0      2.775      6.679
REMARK  8 active torsions:
REMARK  status: ('A' for Active; 'I' for Inactive)
REMARK    1  A    between atoms: C7_7  and  C8_8 
REMARK    2  A    between atoms: C8_8  and  C9_9 
REMARK    3  A    between atoms: C8_8  and  C10_11 
REMARK    4  A    between atoms: C9_9  and  O1_10 
REMARK    5  A    between atoms: C10_11  and  C19_20 
REMARK    6  A    between atoms: C11_12  and  C12_13 
REMARK    7  A    between atoms: C12_13  and  C13_14 
REMARK    8  A    between atoms: C19_20  and  C21_23 
REMARK       I    between atoms: C21_23  and  N2_24 
ROOT
HETATM    1  C19 UNL     1      25.977   1.867  53.508  1.00  0.00     0.213 C 
HETATM    2  C20 UNL     1      25.729   0.446  53.706  1.00  0.00     0.078 C 
HETATM    3  N1  UNL     1      25.531  -0.687  53.843  1.00  0.00    -0.196 NA
ENDROOT
BRANCH   1   4
HETATM    4  C10 UNL     1      25.369   2.344  52.208  1.00  0.00    -0.046 C 
HETATM    5  C11 UNL     1      26.151   2.387  51.155  1.00  0.00    -0.017 C 
BRANCH   4   6
HETATM    6  C8  UNL     1      23.960   2.666  52.425  1.00  0.00     0.073 C 
BRANCH   6   7
HETATM    7  C7  UNL     1      23.029   1.935  51.548  1.00  0.00    -0.042 A 
HETATM    8  C2  UNL     1      22.195   0.861  51.760  1.00  0.00    -0.055 A 
HETATM    9  C1  UNL     1      22.246   0.300  53.129  1.00  0.00     0.049 C 
HETATM   10  C3  UNL     1      21.400   0.366  50.761  1.00  0.00     0.007 A 
HETATM   11  C4  UNL     1      21.383   0.901  49.494  1.00  0.00     0.001 A 
HETATM   12  C5  UNL     1      22.212   1.980  49.255  1.00  0.00     0.001 A 
HETATM   13  C6  UNL     1      23.025   2.491  50.267  1.00  0.00     0.008 A 
ENDBRANCH   6   7
BRANCH   6  14
HETATM   14  C9  UNL     1      23.656   4.159  52.434  1.00  0.00     0.178 C 
BRANCH  14  15
HETATM   15  O1  UNL     1      24.218   4.821  53.520  1.00  0.00    -0.400 OA
HETATM   16  H11 UNL     1      23.657   4.762  54.330  1.00  0.00     0.209 HD
ENDBRANCH  14  15
ENDBRANCH   6  14
ENDBRANCH   4   6
BRANCH   5  17
HETATM   17  C12 UNL     1      26.191   2.719  49.712  1.00  0.00     0.066 C 
BRANCH  17  18
HETATM   18  C13 UNL     1      26.408   4.184  49.466  1.00  0.00    -0.055 A 
HETATM   19  C14 UNL     1      25.530   5.147  49.936  1.00  0.00     0.007 A 
HETATM   20  C15 UNL     1      25.821   6.469  49.654  1.00  0.00     0.001 A 
HETATM   21  C16 UNL     1      26.928   6.859  48.936  1.00  0.00     0.000 A 
HETATM   22  C17 UNL     1      27.801   5.907  48.468  1.00  0.00     0.001 A 
HETATM   23  C18 UNL     1      27.523   4.574  48.744  1.00  0.00     0.007 A 
ENDBRANCH  17  18
ENDBRANCH   5  17
ENDBRANCH   1   4
BRANCH   1  24
HETATM   24  C21 UNL     1      27.397   2.217  53.613  1.00  0.00     0.237 C 
HETATM   25  N2  UNL     1      28.526   2.960  53.207  1.00  0.00    -0.369 N 
HETATM   26  H21 UNL     1      28.796   3.893  53.632  1.00  0.00     0.159 HD
HETATM   27  H22 UNL     1      29.191   2.645  52.444  1.00  0.00     0.159 HD
HETATM   28  O2  UNL     1      28.066   1.586  54.499  1.00  0.00    -0.272 OA
ENDBRANCH   1  24
TORSDOF 8
ENDMDL
MODEL 3
REMARK VINA RESULT:      -8.0      3.032      6.101
REMARK  8 active torsions:
REMARK  status: ('A' for Active; 'I' for Inactive)
REMARK    1  A    between atoms: C7_7  and  C8_8 
REMARK    2  A    between atoms: C8_8  and  C9_9 
REMARK    3  A    between atoms: C8_8  and  C10_11 
REMARK    4  A    between atoms: C9_9  and  O1_10 
REMARK    5  A    between atoms: C10_11  and  C19_20 
REMARK    6  A    between atoms: C11_12  and  C12_13 
REMARK    7  A    between atoms: C12_13  and  C13_14 
REMARK    8  A    between atoms: C19_20  and  C21_23 
REMARK       I    between atoms: C21_23  and  N2_24 
ROOT
HETATM    1  C19 UNL     1      26.782   0.850  53.274  1.00  0.00     0.213 C 
HETATM    2  C20 UNL     1      27.321  -0.499  53.168  1.00  0.00     0.078 C 
HETATM    3  N1  UNL     1      27.750  -1.570  53.064  1.00  0.00    -0.196 NA
ENDROOT
BRANCH   1   4
HETATM    4  C10 UNL     1      25.967   1.202  52.050  1.00  0.00    -0.046 C 
HETATM    5  C11 UNL     1      26.611   1.692  51.016  1.00  0.00    -0.017 C 
BRANCH   4   6
HETATM    6  C8  UNL     1      24.561   0.895  52.302  1.00  0.00     0.073 C 
BRANCH   6   7
HETATM    7  C7  UNL     1      23.663   2.061  52.235  1.00  0.00    -0.042 A 
HETATM    8  C2  UNL     1      22.446   2.269  51.626  1.00  0.00    -0.055 A 
HETATM    9  C1  UNL     1      21.931   1.109  50.865  1.00  0.00     0.049 C 
HETATM   10  C3  UNL     1      21.794   3.468  51.727  1.00  0.00     0.007 A 
HETATM   11  C4  UNL     1      22.303   4.533  52.432  1.00  0.00     0.001 A 
HETATM   12  C5  UNL     1      23.525   4.351  53.051  1.00  0.00     0.001 A 
HETATM   13  C6  UNL     1      24.197   3.132  52.955  1.00  0.00     0.008 A 
ENDBRANCH   6   7
BRANCH   6  14
HETATM   14  C9  UNL     1      24.318   0.082  53.569  1.00  0.00     0.178 C 
BRANCH  14  15
HETATM   15  O1  UNL     1      23.281  -0.834  53.435  1.00  0.00    -0.400 OA
HETATM   16  H11 UNL     1      22.993  -0.944  52.498  1.00  0.00     0.209 HD
ENDBRANCH  14  15
ENDBRANCH   6  14
ENDBRANCH   4   6
BRANCH   5  17
HETATM   17  C12 UNL     1      26.439   2.193  49.633  1.00  0.00     0.066 C 
BRANCH  17  18
HETATM   18  C13 UNL     1      25.588   3.428  49.571  1.00  0.00    -0.055 A 
HETATM   19  C14 UNL     1      24.343   3.434  48.963  1.00  0.00     0.007 A 
HETATM   20  C15 UNL     1      23.639   4.623  48.959  1.00  0.00     0.001 A 
HETATM   21  C16 UNL     1      24.117   5.782  49.526  1.00  0.00     0.000 A 
HETATM   22  C17 UNL     1      25.351   5.781  50.130  1.00  0.00     0.001 A 
HETATM   23  C18 UNL     1      26.071   4.592  50.142  1.00  0.00     0.007 A 
ENDBRANCH  17  18
ENDBRANCH   5  17
ENDBRANCH   1   4
BRANCH   1  24
HETATM   24  C21 UNL     1      27.812   1.853  53.558  1.00  0.00     0.237 C 
HETATM   25  N2  UNL     1      29.142   2.322  53.487  1.00  0.00    -0.369 N 
HETATM   26  H21 UNL     1      29.511   2.919  52.693  1.00  0.00     0.159 HD
HETATM   27  H22 UNL     1      29.877   2.110  54.222  1.00  0.00     0.159 HD
HETATM   28  O2  UNL     1      27.427   2.889  54.198  1.00  0.00    -0.272 OA
ENDBRANCH   1  24
TORSDOF 8
ENDMDL
MODEL 4
REMARK VINA RESULT:      -7.9      3.260      5.256
REMARK  8 active torsions:
REMARK  status: ('A' for Active; 'I' for Inactive)
REMARK    1  A    between atoms: C7_7  and  C8_8 
REMARK    2  A    between atoms: C8_8  and  C9_9 
REMARK    3  A    between atoms: C8_8  and  C10_11 
REMARK    4  A    between atoms: C9_9  and  O1_10 
REMARK    5  A    between atoms: C10_11  and  C19_20 
REMARK    6  A    between atoms: C11_12  and  C12_13 
REMARK    7  A    between atoms: C12_13  and  C13_14 
REMARK    8  A    between atoms: C19_20  and  C21_23 
REMARK       I    between atoms: C21_23  and  N2_24 
ROOT
HETATM    1  C19 UNL     1      24.873   5.639  49.088  1.00  0.00     0.213 C 
HETATM    2  C20 UNL     1      23.976   6.281  48.137  1.00  0.00     0.078 C 
HETATM    3  N1  UNL     1      23.248   6.792  47.395  1.00  0.00    -0.196 NA
ENDROOT
BRANCH   1   4
HETATM    4  C10 UNL     1      24.094   4.839  50.108  1.00  0.00    -0.046 C 
HETATM    5  C11 UNL     1      23.196   5.479  50.820  1.00  0.00    -0.017 C 
BRANCH   4   6
HETATM    6  C8  UNL     1      24.536   3.447  50.067  1.00  0.00     0.073 C 
BRANCH   6   7
HETATM    7  C7  UNL     1      23.442   2.461  50.093  1.00  0.00    -0.042 A 
HETATM    8  C2  UNL     1      22.505   2.082  49.159  1.00  0.00    -0.055 A 
HETATM    9  C1  UNL     1      22.582   2.813  47.874  1.00  0.00     0.049 C 
HETATM   10  C3  UNL     1      21.581   1.108  49.430  1.00  0.00     0.007 A 
HETATM   11  C4  UNL     1      21.526   0.453  50.638  1.00  0.00     0.001 A 
HETATM   12  C5  UNL     1      22.455   0.817  51.593  1.00  0.00     0.001 A 
HETATM   13  C6  UNL     1      23.401   1.807  51.326  1.00  0.00     0.008 A 
ENDBRANCH   6   7
BRANCH   6  14
HETATM   14  C9  UNL     1      25.614   3.105  51.090  1.00  0.00     0.178 C 
BRANCH  14  15
HETATM   15  O1  UNL     1      26.886   3.501  50.691  1.00  0.00    -0.400 OA
HETATM   16  H11 UNL     1      27.597   2.940  51.083  1.00  0.00     0.209 HD
ENDBRANCH  14  15
ENDBRANCH   6  14
ENDBRANCH   4   6
BRANCH   5  17
HETATM   17  C12 UNL     1      22.180   5.313  51.885  1.00  0.00     0.066 C 
BRANCH  17  18
HETATM   18  C13 UNL     1      20.948   4.608  51.399  1.00  0.00    -0.055 A 
HETATM   19  C14 UNL     1      20.300   3.650  52.160  1.00  0.00     0.007 A 
HETATM   20  C15 UNL     1      19.173   3.059  51.619  1.00  0.00     0.001 A 
HETATM   21  C16 UNL     1      18.678   3.379  50.376  1.00  0.00     0.000 A 
HETATM   22  C17 UNL     1      19.318   4.329  49.617  1.00  0.00     0.001 A 
HETATM   23  C18 UNL     1      20.453   4.932  50.147  1.00  0.00     0.007 A 
ENDBRANCH  17  18
ENDBRANCH   5  17
ENDBRANCH   1   4
BRANCH   1  24
HETATM   24  C21 UNL     1      25.801   6.582  49.719  1.00  0.00     0.237 C 
HETATM   25  N2  UNL     1      26.152   7.474  50.756  1.00  0.00    -0.369 N 
HETATM   26  H21 UNL     1      26.669   7.177  51.632  1.00  0.00     0.159 HD
HETATM   27  H22 UNL     1      25.922   8.508  50.740  1.00  0.00     0.159 HD
HETATM   28  O2  UNL     1      26.900   6.786  49.102  1.00  0.00    -0.272 OA
ENDBRANCH   1  24
TORSDOF 8
ENDMDL
MODEL 5
REMARK VINA RESULT:      -7.9      2.405      5.096
REMARK  8 active torsions:
REMARK  status: ('A' for Active; 'I' for Inactive)
REMARK    1  A    between atoms: C7_7  and  C8_8 
REMARK    2  A    between atoms: C8_8  and  C9_9 
REMARK    3  A    between atoms: C8_8  and  C10_11 
REMARK    4  A    between atoms: C9_9  and  O1_10 
REMARK    5  A    between atoms: C10_11  and  C19_20 
REMARK    6  A    between atoms: C11_12  and  C12_13 
REMARK    7  A    between atoms: C12_13  and  C13_14 
REMARK    8  A    between atoms: C19_20  and  C21_23 
REMARK       I    between atoms: C21_23  and  N2_24 
ROOT
HETATM    1  C19 UNL     1      22.512   4.099  51.499  1.00  0.00     0.213 C 
HETATM    2  C20 UNL     1      21.188   3.791  52.022  1.00  0.00     0.078 C 
HETATM    3  N1  UNL     1      20.142   3.528  52.445  1.00  0.00    -0.196 NA
ENDROOT
BRANCH   1   4
HETATM    4  C10 UNL     1      23.254   2.834  51.131  1.00  0.00    -0.046 C 
HETATM    5  C11 UNL     1      23.455   1.953  52.083  1.00  0.00    -0.017 C 
BRANCH   4   6
HETATM    6  C8  UNL     1      23.597   2.873  49.711  1.00  0.00     0.073 C 
BRANCH   6   7
HETATM    7  C7  UNL     1      24.479   3.990  49.330  1.00  0.00    -0.042 A 
HETATM    8  C2  UNL     1      25.834   4.195  49.455  1.00  0.00    -0.055 A 
HETATM    9  C1  UNL     1      26.565   3.095  50.123  1.00  0.00     0.049 C 
HETATM   10  C3  UNL     1      26.428   5.340  48.997  1.00  0.00     0.007 A 
HETATM   11  C4  UNL     1      25.720   6.351  48.391  1.00  0.00     0.001 A 
HETATM   12  C5  UNL     1      24.357   6.171  48.254  1.00  0.00     0.001 A 
HETATM   13  C6  UNL     1      23.743   5.007  48.717  1.00  0.00     0.008 A 
ENDBRANCH   6   7
BRANCH   6  14
HETATM   14  C9  UNL     1      22.397   2.771  48.777  1.00  0.00     0.178 C 
BRANCH  14  15
HETATM   15  O1  UNL     1      22.026   1.457  48.512  1.00  0.00    -0.400 OA
HETATM   16  H11 UNL     1      22.706   0.971  47.986  1.00  0.00     0.209 HD
ENDBRANCH  14  15
ENDBRANCH   6  14
ENDBRANCH   4   6
BRANCH   5  17
HETATM   17  C12 UNL     1      24.050   0.628  52.375  1.00  0.00     0.066 C 
BRANCH  17  18
HETATM   18  C13 UNL     1      25.504   0.718  52.733  1.00  0.00    -0.055 A 
HETATM   19  C14 UNL     1      26.400  -0.295  52.432  1.00  0.00     0.007 A 
HETATM   20  C15 UNL     1      27.719  -0.114  52.806  1.00  0.00     0.001 A 
HETATM   21  C16 UNL     1      28.169   1.013  53.454  1.00  0.00     0.000 A 
HETATM   22  C17 UNL     1      27.284   2.020  53.755  1.00  0.00     0.001 A 
HETATM   23  C18 UNL     1      25.955   1.853  53.385  1.00  0.00     0.007 A 
ENDBRANCH  17  18
ENDBRANCH   5  17
ENDBRANCH   1   4
BRANCH   1  24
HETATM   24  C21 UNL     1      23.293   4.955  52.398  1.00  0.00     0.237 C 
HETATM   25  N2  UNL     1      23.868   5.236  53.656  1.00  0.00    -0.369 N 
HETATM   26  H21 UNL     1      24.846   4.934  53.933  1.00  0.00     0.159 HD
HETATM   27  H22 UNL     1      23.367   5.769  54.422  1.00  0.00     0.159 HD
HETATM   28  O2  UNL     1      23.739   6.039  51.893  1.00  0.00    -0.272 OA
ENDBRANCH   1  24
TORSDOF 8
ENDMDL
MODEL 6
REMARK VINA RESULT:      -7.8      9.174     11.934
REMARK  8 active torsions:
REMARK  status: ('A' for Active; 'I' for Inactive)
REMARK    1  A    between atoms: C7_7  and  C8_8 
REMARK    2  A    between atoms: C8_8  and  C9_9 
REMARK    3  A    between atoms: C8_8  and  C10_11 
REMARK    4  A    between atoms: C9_9  and  O1_10 
REMARK    5  A    between atoms: C10_11  and  C19_20 
REMARK    6  A    between atoms: C11_12  and  C12_13 
REMARK    7  A    between atoms: C12_13  and  C13_14 
REMARK    8  A    between atoms: C19_20  and  C21_23 
REMARK       I    between atoms: C21_23  and  N2_24 
ROOT
HETATM    1  C19 UNL     1      34.175   6.898  47.513  1.00  0.00     0.213 C 
HETATM    2  C20 UNL     1      34.736   8.178  47.104  1.00  0.00     0.078 C 
HETATM    3  N1  UNL     1      35.171   9.205  46.793  1.00  0.00    -0.196 NA
ENDROOT
BRANCH   1   4
HETATM    4  C10 UNL     1      32.771   7.070  48.045  1.00  0.00    -0.046 C 
HETATM    5  C11 UNL     1      32.599   7.914  49.036  1.00  0.00    -0.017 C 
BRANCH   4   6
HETATM    6  C8  UNL     1      31.860   6.213  47.289  1.00  0.00     0.073 C 
BRANCH   6   7
HETATM    7  C7  UNL     1      30.527   6.796  47.058  1.00  0.00    -0.042 A 
HETATM    8  C2  UNL     1      30.062   7.742  46.173  1.00  0.00    -0.055 A 
HETATM    9  C1  UNL     1      31.096   8.315  45.282  1.00  0.00     0.049 C 
HETATM   10  C3  UNL     1      28.744   8.110  46.150  1.00  0.00     0.007 A 
HETATM   11  C4  UNL     1      27.807   7.568  46.999  1.00  0.00     0.001 A 
HETATM   12  C5  UNL     1      28.249   6.617  47.898  1.00  0.00     0.001 A 
HETATM   13  C6  UNL     1      29.590   6.236  47.929  1.00  0.00     0.008 A 
ENDBRANCH   6   7
BRANCH   6  14
HETATM   14  C9  UNL     1      31.757   4.789  47.824  1.00  0.00     0.178 C 
BRANCH  14  15
HETATM   15  O1  UNL     1      32.166   4.677  49.148  1.00  0.00    -0.400 OA
HETATM   16  H11 UNL     1      31.749   5.355  49.731  1.00  0.00     0.209 HD
ENDBRANCH  14  15
ENDBRANCH   6  14
ENDBRANCH   4   6
BRANCH   5  17
HETATM   17  C12 UNL     1      31.582   8.503  49.938  1.00  0.00     0.066 C 
BRANCH  17  18
HETATM   18  C13 UNL     1      30.750   9.551  49.258  1.00  0.00    -0.055 A 
HETATM   19  C14 UNL     1      29.396   9.697  49.514  1.00  0.00     0.007 A 
HETATM   20  C15 UNL     1      28.720  10.693  48.834  1.00  0.00     0.001 A 
HETATM   21  C16 UNL     1      29.328  11.531  47.928  1.00  0.00     0.000 A 
HETATM   22  C17 UNL     1      30.671  11.391  47.671  1.00  0.00     0.001 A 
HETATM   23  C18 UNL     1      31.364  10.394  48.347  1.00  0.00     0.007 A 
ENDBRANCH  17  18
ENDBRANCH   5  17
ENDBRANCH   1   4
BRANCH   1  24
HETATM   24  C21 UNL     1      35.036   6.174  48.454  1.00  0.00     0.237 C 
HETATM   25  N2  UNL     1      35.321   5.058  49.270  1.00  0.00    -0.369 N 
HETATM   26  H21 UNL     1      35.851   4.206  48.930  1.00  0.00     0.159 HD
HETATM   27  H22 UNL     1      35.024   4.984  50.285  1.00  0.00     0.159 HD
HETATM   28  O2  UNL     1      36.123   6.757  48.782  1.00  0.00    -0.272 OA
ENDBRANCH   1  24
TORSDOF 8
ENDMDL
MODEL 7
REMARK VINA RESULT:      -7.8      3.176      6.512
REMARK  8 active torsions:
REMARK  status: ('A' for Active; 'I' for Inactive)
REMARK    1  A    between atoms: C7_7  and  C8_8 
REMARK    2  A    between atoms: C8_8  and  C9_9 
REMARK    3  A    between atoms: C8_8  and  C10_11 
REMARK    4  A    between atoms: C9_9  and  O1_10 
REMARK    5  A    between atoms: C10_11  and  C19_20 
REMARK    6  A    between atoms: C11_12  and  C12_13 
REMARK    7  A    between atoms: C12_13  and  C13_14 
REMARK    8  A    between atoms: C19_20  and  C21_23 
REMARK       I    between atoms: C21_23  and  N2_24 
ROOT
HETATM    1  C19 UNL     1      24.670  -0.578  53.314  1.00  0.00     0.213 C 
HETATM    2  C20 UNL     1      25.894  -0.399  52.545  1.00  0.00     0.078 C 
HETATM    3  N1  UNL     1      26.865  -0.237  51.936  1.00  0.00    -0.196 NA
ENDROOT
BRANCH   1   4
HETATM    4  C10 UNL     1      23.748   0.608  53.142  1.00  0.00    -0.046 C 
HETATM    5  C11 UNL     1      24.293   1.803  53.141  1.00  0.00    -0.017 C 
BRANCH   4   6
HETATM    6  C8  UNL     1      22.373   0.133  53.000  1.00  0.00     0.073 C 
BRANCH   6   7
HETATM    7  C7  UNL     1      21.620   0.770  51.905  1.00  0.00    -0.042 A 
HETATM    8  C2  UNL     1      20.720   1.810  51.873  1.00  0.00    -0.055 A 
HETATM    9  C1  UNL     1      20.417   2.406  53.194  1.00  0.00     0.049 C 
HETATM   10  C3  UNL     1      20.158   2.231  50.697  1.00  0.00     0.007 A 
HETATM   11  C4  UNL     1      20.449   1.649  49.486  1.00  0.00     0.001 A 
HETATM   12  C5  UNL     1      21.350   0.601  49.491  1.00  0.00     0.001 A 
HETATM   13  C6  UNL     1      21.928   0.166  50.684  1.00  0.00     0.008 A 
ENDBRANCH   6   7
BRANCH   6  14
HETATM   14  C9  UNL     1      21.574   0.140  54.298  1.00  0.00     0.178 C 
BRANCH  14  15
HETATM   15  O1  UNL     1      21.525  -1.108  54.911  1.00  0.00    -0.400 OA
HETATM   16  H11 UNL     1      21.000  -1.763  54.391  1.00  0.00     0.209 HD
ENDBRANCH  14  15
ENDBRANCH   6  14
ENDBRANCH   4   6
BRANCH   5  17
HETATM   17  C12 UNL     1      23.995   3.249  53.024  1.00  0.00     0.066 C 
BRANCH  17  18
HETATM   18  C13 UNL     1      23.689   3.660  51.613  1.00  0.00    -0.055 A 
HETATM   19  C14 UNL     1      22.842   4.716  51.321  1.00  0.00     0.007 A 
HETATM   20  C15 UNL     1      22.626   5.014  49.989  1.00  0.00     0.001 A 
HETATM   21  C16 UNL     1      23.208   4.313  48.958  1.00  0.00     0.000 A 
HETATM   22  C17 UNL     1      24.049   3.264  49.242  1.00  0.00     0.001 A 
HETATM   23  C18 UNL     1      24.277   2.954  50.577  1.00  0.00     0.007 A 
ENDBRANCH  17  18
ENDBRANCH   5  17
ENDBRANCH   1   4
BRANCH   1  24
HETATM   24  C21 UNL     1      24.924  -0.878  54.726  1.00  0.00     0.237 C 
HETATM   25  N2  UNL     1      24.543  -1.439  55.964  1.00  0.00    -0.369 N 
HETATM   26  H21 UNL     1      24.762  -2.437  56.246  1.00  0.00     0.159 HD
HETATM   27  H22 UNL     1      24.006  -0.906  56.707  1.00  0.00     0.159 HD
HETATM   28  O2  UNL     1      26.039  -0.469  55.195  1.00  0.00    -0.272 OA
ENDBRANCH   1  24
TORSDOF 8
ENDMDL
MODEL 8
REMARK VINA RESULT:      -7.7      2.288      3.439
REMARK  8 active torsions:
REMARK  status: ('A' for Active; 'I' for Inactive)
REMARK    1  A    between atoms: C7_7  and  C8_8 
REMARK    2  A    between atoms: C8_8  and  C9_9 
REMARK    3  A    between atoms: C8_8  and  C10_11 
REMARK    4  A    between atoms: C9_9  and  O1_10 
REMARK    5  A    between atoms: C10_11  and  C19_20 
REMARK    6  A    between atoms: C11_12  and  C12_13 
REMARK    7  A    between atoms: C12_13  and  C13_14 
REMARK    8  A    between atoms: C19_20  and  C21_23 
REMARK       I    between atoms: C21_23  and  N2_24 
ROOT
HETATM    1  C19 UNL     1      21.146   4.591  50.850  1.00  0.00     0.213 C 
HETATM    2  C20 UNL     1      21.336   5.199  49.540  1.00  0.00     0.078 C 
HETATM    3  N1  UNL     1      21.495   5.665  48.492  1.00  0.00    -0.196 NA
ENDROOT
BRANCH   1   4
HETATM    4  C10 UNL     1      22.210   3.551  51.120  1.00  0.00    -0.046 C 
HETATM    5  C11 UNL     1      21.875   2.290  50.968  1.00  0.00    -0.017 C 
BRANCH   4   6
HETATM    6  C8  UNL     1      23.450   4.220  51.508  1.00  0.00     0.073 C 
BRANCH   6   7
HETATM    7  C7  UNL     1      24.573   3.306  51.782  1.00  0.00    -0.042 A 
HETATM    8  C2  UNL     1      25.586   2.809  50.994  1.00  0.00    -0.055 A 
HETATM    9  C1  UNL     1      25.543   3.251  49.582  1.00  0.00     0.049 C 
HETATM   10  C3  UNL     1      26.537   1.966  51.503  1.00  0.00     0.007 A 
HETATM   11  C4  UNL     1      26.544   1.562  52.817  1.00  0.00     0.001 A 
HETATM   12  C5  UNL     1      25.536   2.046  53.629  1.00  0.00     0.001 A 
HETATM   13  C6  UNL     1      24.563   2.907  53.120  1.00  0.00     0.008 A 
ENDBRANCH   6   7
BRANCH   6  14
HETATM   14  C9  UNL     1      23.283   5.243  52.625  1.00  0.00     0.178 C 
BRANCH  14  15
HETATM   15  O1  UNL     1      24.160   6.316  52.513  1.00  0.00    -0.400 OA
HETATM   16  H11 UNL     1      23.757   7.086  52.045  1.00  0.00     0.209 HD
ENDBRANCH  14  15
ENDBRANCH   6  14
ENDBRANCH   4   6
BRANCH   5  17
HETATM   17  C12 UNL     1      22.385   0.903  51.056  1.00  0.00     0.066 C 
BRANCH  17  18
HETATM   18  C13 UNL     1      22.221   0.316  52.428  1.00  0.00    -0.055 A 
HETATM   19  C14 UNL     1      23.142  -0.568  52.965  1.00  0.00     0.007 A 
HETATM   20  C15 UNL     1      22.897  -1.051  54.237  1.00  0.00     0.001 A 
HETATM   21  C16 UNL     1      21.794  -0.696  54.978  1.00  0.00     0.000 A 
HETATM   22  C17 UNL     1      20.877   0.181  54.448  1.00  0.00     0.001 A 
HETATM   23  C18 UNL     1      21.110   0.676  53.171  1.00  0.00     0.007 A 
ENDBRANCH  17  18
ENDBRANCH   5  17
ENDBRANCH   1   4
BRANCH   1  24
HETATM   24  C21 UNL     1      19.794   4.058  51.039  1.00  0.00     0.237 C 
HETATM   25  N2  UNL     1      18.538   3.652  50.538  1.00  0.00    -0.369 N 
HETATM   26  H21 UNL     1      18.326   2.663  50.223  1.00  0.00     0.159 HD
HETATM   27  H22 UNL     1      17.710   4.306  50.436  1.00  0.00     0.159 HD
HETATM   28  O2  UNL     1      19.463   3.778  52.240  1.00  0.00    -0.272 OA
ENDBRANCH   1  24
TORSDOF 8
ENDMDL
MODEL 9
REMARK VINA RESULT:      -7.6      2.484      5.581
REMARK  8 active torsions:
REMARK  status: ('A' for Active; 'I' for Inactive)
REMARK    1  A    between atoms: C7_7  and  C8_8 
REMARK    2  A    between atoms: C8_8  and  C9_9 
REMARK    3  A    between atoms: C8_8  and  C10_11 
REMARK    4  A    between atoms: C9_9  and  O1_10 
REMARK    5  A    between atoms: C10_11  and  C19_20 
REMARK    6  A    between atoms: C11_12  and  C12_13 
REMARK    7  A    between atoms: C12_13  and  C13_14 
REMARK    8  A    between atoms: C19_20  and  C21_23 
REMARK       I    between atoms: C21_23  and  N2_24 
ROOT
HETATM    1  C19 UNL     1      26.224   1.855  51.716  1.00  0.00     0.213 C 
HETATM    2  C20 UNL     1      26.510   2.757  50.609  1.00  0.00     0.078 C 
HETATM    3  N1  UNL     1      26.724   3.488  49.736  1.00  0.00    -0.196 NA
ENDROOT
BRANCH   1   4
HETATM    4  C10 UNL     1      24.799   2.023  52.193  1.00  0.00    -0.046 C 
HETATM    5  C11 UNL     1      24.367   3.247  52.391  1.00  0.00    -0.017 C 
BRANCH   4   6
HETATM    6  C8  UNL     1      24.179   0.706  52.330  1.00  0.00     0.073 C 
BRANCH   6   7
HETATM    7  C7  UNL     1      22.705   0.725  52.316  1.00  0.00    -0.042 A 
HETATM    8  C2  UNL     1      21.783   0.904  51.311  1.00  0.00    -0.055 A 
HETATM    9  C1  UNL     1      22.367   1.152  49.974  1.00  0.00     0.049 C 
HETATM   10  C3  UNL     1      20.438   0.862  51.561  1.00  0.00     0.007 A 
HETATM   11  C4  UNL     1      19.924   0.641  52.817  1.00  0.00     0.001 A 
HETATM   12  C5  UNL     1      20.829   0.459  53.845  1.00  0.00     0.001 A 
HETATM   13  C6  UNL     1      22.202   0.500  53.599  1.00  0.00     0.008 A 
ENDBRANCH   6   7
BRANCH   6  14
HETATM   14  C9  UNL     1      24.712  -0.115  53.498  1.00  0.00     0.178 C 
BRANCH  14  15
HETATM   15  O1  UNL     1      25.596  -1.113  53.100  1.00  0.00    -0.400 OA
HETATM   16  H11 UNL     1      25.479  -1.948  53.613  1.00  0.00     0.209 HD
ENDBRANCH  14  15
ENDBRANCH   6  14
ENDBRANCH   4   6
BRANCH   5  17
HETATM   17  C12 UNL     1      23.191   4.043  52.811  1.00  0.00     0.066 C 
BRANCH  17  18
HETATM   18  C13 UNL     1      22.284   4.376  51.663  1.00  0.00    -0.055 A 
HETATM   19  C14 UNL     1      22.772   4.788  50.434  1.00  0.00     0.007 A 
HETATM   20  C15 UNL     1      21.852   5.071  49.442  1.00  0.00     0.001 A 
HETATM   21  C16 UNL     1      20.493   4.963  49.624  1.00  0.00     0.000 A 
HETATM   22  C17 UNL     1      20.003   4.556  50.841  1.00  0.00     0.001 A 
HETATM   23  C18 UNL     1      20.916   4.267  51.848  1.00  0.00     0.007 A 
ENDBRANCH  17  18
ENDBRANCH   5  17
ENDBRANCH   1   4
BRANCH   1  24
HETATM   24  C21 UNL     1      27.189   1.976  52.812  1.00  0.00     0.237 C 
HETATM   25  N2  UNL     1      27.766   2.688  53.886  1.00  0.00    -0.369 N 
HETATM   26  H21 UNL     1      27.421   2.620  54.886  1.00  0.00     0.159 HD
HETATM   27  H22 UNL     1      28.588   3.349  53.776  1.00  0.00     0.159 HD
HETATM   28  O2  UNL     1      27.972   0.982  52.983  1.00  0.00    -0.272 OA
ENDBRANCH   1  24
TORSDOF 8
ENDMDL
