MODEL 1
REMARK VINA RESULT:      -7.9      0.000      0.000
REMARK  8 active torsions:
REMARK  status: ('A' for Active; 'I' for Inactive)
REMARK    1  A    between atoms: C3_3  and  N1_4 
REMARK    2  A    between atoms: N1_4  and  C4_5 
REMARK    3  A    between atoms: C11_16  and  C12_17 
REMARK    4  A    between atoms: C12_17  and  C13_18 
REMARK    5  A    between atoms: C13_18  and  N4_19 
REMARK       I    between atoms: N4_19  and  C14_20 
REMARK    6  A    between atoms: C14_20  and  C15_22 
REMARK    7  A    between atoms: C16_23  and  C17_24 
REMARK    8  A    between atoms: C17_24  and  O2_25 
ROOT
HETATM    1  C1  UNL     1      23.262   2.566  51.953  1.00  0.00     0.049 C 
HETATM    2  C2  UNL     1      23.577   1.437  52.563  1.00  0.00     0.017 A 
HETATM    3  C3  UNL     1      22.670   0.749  53.376  1.00  0.00     0.138 A 
HETATM    4  N2  UNL     1      23.001  -0.410  53.999  1.00  0.00    -0.224 NA
HETATM    5  C10 UNL     1      24.245  -0.939  53.843  1.00  0.00     0.235 A 
HETATM    6  N3  UNL     1      25.150  -0.288  53.055  1.00  0.00    -0.241 NA
HETATM    7  C11 UNL     1      24.823   0.861  52.437  1.00  0.00     0.069 A 
ENDROOT
BRANCH   3   8
HETATM    8  N1  UNL     1      21.366   1.270  53.561  1.00  0.00    -0.340 N 
HETATM    9  H3  UNL     1      21.186   2.075  54.209  1.00  0.00     0.167 HD
BRANCH   8  10
HETATM   10  C4  UNL     1      20.268   0.715  52.871  1.00  0.00     0.035 A 
HETATM   11  C5  UNL     1      19.846   1.198  51.648  1.00  0.00     0.032 A 
HETATM   12  C6  UNL     1      18.757   0.617  51.006  1.00  0.00     0.046 A 
HETATM   13  C7  UNL     1      18.083  -0.442  51.571  1.00  0.00     0.138 A 
HETATM   14  F1  UNL     1      17.021  -1.030  50.976  1.00  0.00    -0.204 F 
HETATM   15  C8  UNL     1      18.465  -0.973  52.808  1.00  0.00     0.074 A 
HETATM   16 CL1  UNL     1      17.666  -2.314  53.598  1.00  0.00    -0.081 Cl
HETATM   17  C9  UNL     1      19.554  -0.351  53.394  1.00  0.00     0.056 A 
ENDBRANCH   8  10
ENDBRANCH   3   8
BRANCH   7  18
HETATM   18  C12 UNL     1      25.731   1.458  51.683  1.00  0.00     0.051 C 
BRANCH  18  19
HETATM   19  C13 UNL     1      26.681   2.347  52.289  1.00  0.00     0.293 C 
BRANCH  19  20
HETATM   20  N4  UNL     1      27.954   2.183  52.402  1.00  0.00    -0.347 NA
HETATM   21  C14 UNL     1      28.586   1.636  53.538  1.00  0.00     0.291 C 
HETATM   22  O1  UNL     1      28.939   2.198  54.615  1.00  0.00    -0.259 OA
BRANCH  21  23
HETATM   23  C15 UNL     1      28.884   0.219  53.482  1.00  0.00    -0.004 C 
HETATM   24  C16 UNL     1      29.116  -0.981  53.428  1.00  0.00    -0.071 C 
BRANCH  24  25
HETATM   25  C17 UNL     1      29.381  -2.415  53.370  1.00  0.00     0.258 C 
BRANCH  25  26
HETATM   26  O2  UNL     1      28.288  -3.105  52.890  1.00  0.00    -0.389 OA
HETATM   27  H12 UNL     1      28.522  -3.754  52.183  1.00  0.00     0.210 HD
ENDBRANCH  25  26
ENDBRANCH  24  25
ENDBRANCH  21  23
ENDBRANCH  19  20
ENDBRANCH  18  19
ENDBRANCH   7  18
TORSDOF 8
ENDMDL
MODEL 2
REMARK VINA RESULT:      -7.9      4.805      7.450
REMARK  8 active torsions:
REMARK  status: ('A' for Active; 'I' for Inactive)
REMARK    1  A    between atoms: C3_3  and  N1_4 
REMARK    2  A    between atoms: N1_4  and  C4_5 
REMARK    3  A    between atoms: C11_16  and  C12_17 
REMARK    4  A    between atoms: C12_17  and  C13_18 
REMARK    5  A    between atoms: C13_18  and  N4_19 
REMARK       I    between atoms: N4_19  and  C14_20 
REMARK    6  A    between atoms: C14_20  and  C15_22 
REMARK    7  A    between atoms: C16_23  and  C17_24 
REMARK    8  A    between atoms: C17_24  and  O2_25 
ROOT
HETATM    1  C1  UNL     1      26.463   3.222  50.678  1.00  0.00     0.049 C 
HETATM    2  C2  UNL     1      25.313   2.895  51.242  1.00  0.00     0.017 A 
HETATM    3  C3  UNL     1      25.218   2.536  52.591  1.00  0.00     0.138 A 
HETATM    4  N2  UNL     1      24.033   2.201  53.162  1.00  0.00    -0.224 NA
HETATM    5  C10 UNL     1      22.891   2.209  52.423  1.00  0.00     0.235 A 
HETATM    6  N3  UNL     1      22.956   2.557  51.104  1.00  0.00    -0.241 NA
HETATM    7  C11 UNL     1      24.129   2.888  50.536  1.00  0.00     0.069 A 
ENDROOT
BRANCH   3   8
HETATM    8  N1  UNL     1      26.387   2.516  53.391  1.00  0.00    -0.340 N 
HETATM    9  H3  UNL     1      26.644   3.327  54.003  1.00  0.00     0.167 HD
BRANCH   8  10
HETATM   10  C4  UNL     1      27.240   1.392  53.385  1.00  0.00     0.035 A 
HETATM   11  C5  UNL     1      28.548   1.459  53.819  1.00  0.00     0.032 A 
HETATM   12  C6  UNL     1      29.351   0.322  53.793  1.00  0.00     0.046 A 
HETATM   13  C7  UNL     1      28.862  -0.881  53.337  1.00  0.00     0.138 A 
HETATM   14  F1  UNL     1      29.613  -2.004  53.298  1.00  0.00    -0.204 F 
HETATM   15  C8  UNL     1      27.544  -1.008  52.885  1.00  0.00     0.074 A 
HETATM   16 CL1  UNL     1      26.842  -2.496  52.289  1.00  0.00    -0.081 Cl
HETATM   17  C9  UNL     1      26.799   0.158  52.936  1.00  0.00     0.056 A 
ENDBRANCH   8  10
ENDBRANCH   3   8
BRANCH   7  18
HETATM   18  C12 UNL     1      24.145   3.218  49.256  1.00  0.00     0.051 C 
BRANCH  18  19
HETATM   19  C13 UNL     1      23.408   4.367  48.812  1.00  0.00     0.293 C 
BRANCH  19  20
HETATM   20  N4  UNL     1      23.878   5.488  48.385  1.00  0.00    -0.347 NA
HETATM   21  C14 UNL     1      24.792   6.289  49.101  1.00  0.00     0.291 C 
HETATM   22  O1  UNL     1      24.578   7.150  50.003  1.00  0.00    -0.259 OA
BRANCH  21  23
HETATM   23  C15 UNL     1      26.191   6.115  48.766  1.00  0.00    -0.004 C 
HETATM   24  C16 UNL     1      27.370   5.984  48.468  1.00  0.00    -0.071 C 
BRANCH  24  25
HETATM   25  C17 UNL     1      28.775   5.828  48.099  1.00  0.00     0.258 C 
BRANCH  25  26
HETATM   26  O2  UNL     1      29.542   5.490  49.193  1.00  0.00    -0.389 OA
HETATM   27  H12 UNL     1      30.089   4.680  49.045  1.00  0.00     0.210 HD
ENDBRANCH  25  26
ENDBRANCH  24  25
ENDBRANCH  21  23
ENDBRANCH  19  20
ENDBRANCH  18  19
ENDBRANCH   7  18
TORSDOF 8
ENDMDL
MODEL 3
REMARK VINA RESULT:      -7.7      4.475      7.557
REMARK  8 active torsions:
REMARK  status: ('A' for Active; 'I' for Inactive)
REMARK    1  A    between atoms: C3_3  and  N1_4 
REMARK    2  A    between atoms: N1_4  and  C4_5 
REMARK    3  A    between atoms: C11_16  and  C12_17 
REMARK    4  A    between atoms: C12_17  and  C13_18 
REMARK    5  A    between atoms: C13_18  and  N4_19 
REMARK       I    between atoms: N4_19  and  C14_20 
REMARK    6  A    between atoms: C14_20  and  C15_22 
REMARK    7  A    between atoms: C16_23  and  C17_24 
REMARK    8  A    between atoms: C17_24  and  O2_25 
ROOT
HETATM    1  C1  UNL     1      23.690   3.607  52.621  1.00  0.00     0.049 C 
HETATM    2  C2  UNL     1      24.573   3.476  51.648  1.00  0.00     0.017 A 
HETATM    3  C3  UNL     1      25.820   2.873  51.847  1.00  0.00     0.138 A 
HETATM    4  N2  UNL     1      26.723   2.743  50.842  1.00  0.00    -0.224 NA
HETATM    5  C10 UNL     1      26.430   3.202  49.596  1.00  0.00     0.235 A 
HETATM    6  N3  UNL     1      25.219   3.793  49.373  1.00  0.00    -0.241 NA
HETATM    7  C11 UNL     1      24.324   3.924  50.368  1.00  0.00     0.069 A 
ENDROOT
BRANCH   3   8
HETATM    8  N1  UNL     1      26.161   2.384  53.132  1.00  0.00    -0.340 N 
HETATM    9  H3  UNL     1      25.666   2.720  53.994  1.00  0.00     0.167 HD
BRANCH   8  10
HETATM   10  C4  UNL     1      27.181   1.422  53.285  1.00  0.00     0.035 A 
HETATM   11  C5  UNL     1      28.437   1.750  53.755  1.00  0.00     0.032 A 
HETATM   12  C6  UNL     1      29.412   0.766  53.887  1.00  0.00     0.046 A 
HETATM   13  C7  UNL     1      29.147  -0.544  53.556  1.00  0.00     0.138 A 
HETATM   14  F1  UNL     1      30.069  -1.525  53.672  1.00  0.00    -0.204 F 
HETATM   15  C8  UNL     1      27.892  -0.934  53.075  1.00  0.00     0.074 A 
HETATM   16 CL1  UNL     1      27.470  -2.573  52.630  1.00  0.00    -0.081 Cl
HETATM   17  C9  UNL     1      26.968   0.091  52.966  1.00  0.00     0.056 A 
ENDBRANCH   8  10
ENDBRANCH   3   8
BRANCH   7  18
HETATM   18  C12 UNL     1      23.165   4.503  50.108  1.00  0.00     0.051 C 
BRANCH  18  19
HETATM   19  C13 UNL     1      22.274   3.908  49.152  1.00  0.00     0.293 C 
BRANCH  19  20
HETATM   20  N4  UNL     1      21.361   3.025  49.369  1.00  0.00    -0.347 NA
HETATM   21  C14 UNL     1      21.580   1.633  49.341  1.00  0.00     0.291 C 
HETATM   22  O1  UNL     1      21.591   0.836  48.358  1.00  0.00    -0.259 OA
BRANCH  21  23
HETATM   23  C15 UNL     1      21.831   1.000  50.620  1.00  0.00    -0.004 C 
HETATM   24  C16 UNL     1      22.064   0.471  51.698  1.00  0.00    -0.071 C 
BRANCH  24  25
HETATM   25  C17 UNL     1      22.354  -0.165  52.980  1.00  0.00     0.258 C 
BRANCH  25  26
HETATM   26  O2  UNL     1      23.583   0.226  53.465  1.00  0.00    -0.389 OA
HETATM   27  H12 UNL     1      24.296  -0.435  53.287  1.00  0.00     0.210 HD
ENDBRANCH  25  26
ENDBRANCH  24  25
ENDBRANCH  21  23
ENDBRANCH  19  20
ENDBRANCH  18  19
ENDBRANCH   7  18
TORSDOF 8
ENDMDL
MODEL 4
REMARK VINA RESULT:      -7.5      5.177      7.999
REMARK  8 active torsions:
REMARK  status: ('A' for Active; 'I' for Inactive)
REMARK    1  A    between atoms: C3_3  and  N1_4 
REMARK    2  A    between atoms: N1_4  and  C4_5 
REMARK    3  A    between atoms: C11_16  and  C12_17 
REMARK    4  A    between atoms: C12_17  and  C13_18 
REMARK    5  A    between atoms: C13_18  and  N4_19 
REMARK       I    between atoms: N4_19  and  C14_20 
REMARK    6  A    between atoms: C14_20  and  C15_22 
REMARK    7  A    between atoms: C16_23  and  C17_24 
REMARK    8  A    between atoms: C17_24  and  O2_25 
ROOT
HETATM    1  C1  UNL     1      23.828   2.205  52.533  1.00  0.00     0.049 C 
HETATM    2  C2  UNL     1      24.638   2.587  51.562  1.00  0.00     0.017 A 
HETATM    3  C3  UNL     1      26.015   2.741  51.754  1.00  0.00     0.138 A 
HETATM    4  N2  UNL     1      26.839   3.135  50.751  1.00  0.00    -0.224 NA
HETATM    5  C10 UNL     1      26.337   3.393  49.514  1.00  0.00     0.235 A 
HETATM    6  N3  UNL     1      24.996   3.251  49.299  1.00  0.00    -0.241 NA
HETATM    7  C11 UNL     1      24.177   2.861  50.292  1.00  0.00     0.069 A 
ENDROOT
BRANCH   3   8
HETATM    8  N1  UNL     1      26.574   2.482  53.030  1.00  0.00    -0.340 N 
HETATM    9  H3  UNL     1      26.350   3.085  53.858  1.00  0.00     0.167 HD
BRANCH   8  10
HETATM   10  C4  UNL     1      27.452   1.394  53.219  1.00  0.00     0.035 A 
HETATM   11  C5  UNL     1      28.715   1.552  53.754  1.00  0.00     0.032 A 
HETATM   12  C6  UNL     1      29.546   0.447  53.920  1.00  0.00     0.046 A 
HETATM   13  C7  UNL     1      29.129  -0.814  53.558  1.00  0.00     0.138 A 
HETATM   14  F1  UNL     1      29.909  -1.908  53.706  1.00  0.00    -0.204 F 
HETATM   15  C8  UNL     1      27.860  -1.034  53.011  1.00  0.00     0.074 A 
HETATM   16 CL1  UNL     1      27.251  -2.600  52.524  1.00  0.00    -0.081 Cl
HETATM   17  C9  UNL     1      27.084   0.104  52.872  1.00  0.00     0.056 A 
ENDBRANCH   8  10
ENDBRANCH   3   8
BRANCH   7  18
HETATM   18  C12 UNL     1      22.886   2.736  50.038  1.00  0.00     0.051 C 
BRANCH  18  19
HETATM   19  C13 UNL     1      22.238   3.686  49.179  1.00  0.00     0.293 C 
BRANCH  19  20
HETATM   20  N4  UNL     1      21.983   4.925  49.423  1.00  0.00    -0.347 NA
HETATM   21  C14 UNL     1      22.408   5.609  50.581  1.00  0.00     0.291 C 
HETATM   22  O1  UNL     1      21.878   5.661  51.728  1.00  0.00    -0.259 OA
BRANCH  21  23
HETATM   23  C15 UNL     1      23.633   6.374  50.457  1.00  0.00    -0.004 C 
HETATM   24  C16 UNL     1      24.678   7.002  50.362  1.00  0.00    -0.071 C 
BRANCH  24  25
HETATM   25  C17 UNL     1      25.929   7.749  50.260  1.00  0.00     0.258 C 
BRANCH  25  26
HETATM   26  O2  UNL     1      26.939   6.962  49.752  1.00  0.00    -0.389 OA
HETATM   27  H12 UNL     1      26.623   6.075  49.451  1.00  0.00     0.210 HD
ENDBRANCH  25  26
ENDBRANCH  24  25
ENDBRANCH  21  23
ENDBRANCH  19  20
ENDBRANCH  18  19
ENDBRANCH   7  18
TORSDOF 8
ENDMDL
MODEL 5
REMARK VINA RESULT:      -7.4      5.979      8.678
REMARK  8 active torsions:
REMARK  status: ('A' for Active; 'I' for Inactive)
REMARK    1  A    between atoms: C3_3  and  N1_4 
REMARK    2  A    between atoms: N1_4  and  C4_5 
REMARK    3  A    between atoms: C11_16  and  C12_17 
REMARK    4  A    between atoms: C12_17  and  C13_18 
REMARK    5  A    between atoms: C13_18  and  N4_19 
REMARK       I    between atoms: N4_19  and  C14_20 
REMARK    6  A    between atoms: C14_20  and  C15_22 
REMARK    7  A    between atoms: C16_23  and  C17_24 
REMARK    8  A    between atoms: C17_24  and  O2_25 
ROOT
HETATM    1  C1  UNL     1      23.248   2.908  50.279  1.00  0.00     0.049 C 
HETATM    2  C2  UNL     1      24.458   2.695  50.767  1.00  0.00     0.017 A 
HETATM    3  C3  UNL     1      25.591   3.342  50.264  1.00  0.00     0.138 A 
HETATM    4  N2  UNL     1      26.830   3.117  50.770  1.00  0.00    -0.224 NA
HETATM    5  C10 UNL     1      27.000   2.242  51.798  1.00  0.00     0.235 A 
HETATM    6  N3  UNL     1      25.911   1.598  52.309  1.00  0.00    -0.241 NA
HETATM    7  C11 UNL     1      24.682   1.819  51.808  1.00  0.00     0.069 A 
ENDROOT
BRANCH   3   8
HETATM    8  N1  UNL     1      25.452   4.259  49.193  1.00  0.00    -0.340 N 
HETATM    9  H3  UNL     1      24.915   4.011  48.327  1.00  0.00     0.167 HD
BRANCH   8  10
HETATM   10  C4  UNL     1      26.038   5.540  49.267  1.00  0.00     0.035 A 
HETATM   11  C5  UNL     1      25.532   6.534  50.081  1.00  0.00     0.032 A 
HETATM   12  C6  UNL     1      26.145   7.784  50.119  1.00  0.00     0.046 A 
HETATM   13  C7  UNL     1      27.257   8.052  49.353  1.00  0.00     0.138 A 
HETATM   14  F1  UNL     1      27.877   9.253  49.366  1.00  0.00    -0.204 F 
HETATM   15  C8  UNL     1      27.813   7.083  48.510  1.00  0.00     0.074 A 
HETATM   16 CL1  UNL     1      29.221   7.338  47.504  1.00  0.00    -0.081 Cl
HETATM   17  C9  UNL     1      27.157   5.863  48.517  1.00  0.00     0.056 A 
ENDBRANCH   8  10
ENDBRANCH   3   8
BRANCH   7  18
HETATM   18  C12 UNL     1      23.656   1.172  52.333  1.00  0.00     0.051 C 
BRANCH  18  19
HETATM   19  C13 UNL     1      23.889   0.154  53.318  1.00  0.00     0.293 C 
BRANCH  19  20
HETATM   20  N4  UNL     1      23.282  -0.976  53.443  1.00  0.00    -0.347 NA
HETATM   21  C14 UNL     1      22.267  -1.230  54.389  1.00  0.00     0.291 C 
HETATM   22  O1  UNL     1      22.362  -1.571  55.604  1.00  0.00    -0.259 OA
BRANCH  21  23
HETATM   23  C15 UNL     1      20.904  -1.085  53.918  1.00  0.00    -0.004 C 
HETATM   24  C16 UNL     1      19.747  -0.971  53.540  1.00  0.00    -0.071 C 
BRANCH  24  25
HETATM   25  C17 UNL     1      18.362  -0.846  53.093  1.00  0.00     0.258 C 
BRANCH  25  26
HETATM   26  O2  UNL     1      17.484  -1.281  54.064  1.00  0.00    -0.389 OA
HETATM   27  H12 UNL     1      16.711  -1.771  53.693  1.00  0.00     0.210 HD
ENDBRANCH  25  26
ENDBRANCH  24  25
ENDBRANCH  21  23
ENDBRANCH  19  20
ENDBRANCH  18  19
ENDBRANCH   7  18
TORSDOF 8
ENDMDL
MODEL 6
REMARK VINA RESULT:      -7.3      5.316      8.438
REMARK  8 active torsions:
REMARK  status: ('A' for Active; 'I' for Inactive)
REMARK    1  A    between atoms: C3_3  and  N1_4 
REMARK    2  A    between atoms: N1_4  and  C4_5 
REMARK    3  A    between atoms: C11_16  and  C12_17 
REMARK    4  A    between atoms: C12_17  and  C13_18 
REMARK    5  A    between atoms: C13_18  and  N4_19 
REMARK       I    between atoms: N4_19  and  C14_20 
REMARK    6  A    between atoms: C14_20  and  C15_22 
REMARK    7  A    between atoms: C16_23  and  C17_24 
REMARK    8  A    between atoms: C17_24  and  O2_25 
ROOT
HETATM    1  C1  UNL     1      22.264   0.376  51.863  1.00  0.00     0.049 C 
HETATM    2  C2  UNL     1      22.885   1.321  51.179  1.00  0.00     0.017 A 
HETATM    3  C3  UNL     1      23.998   2.000  51.685  1.00  0.00     0.138 A 
HETATM    4  N2  UNL     1      24.630   2.970  50.977  1.00  0.00    -0.224 NA
HETATM    5  C10 UNL     1      24.188   3.310  49.737  1.00  0.00     0.235 A 
HETATM    6  N3  UNL     1      23.102   2.663  49.219  1.00  0.00    -0.241 NA
HETATM    7  C11 UNL     1      22.475   1.702  49.919  1.00  0.00     0.069 A 
ENDROOT
BRANCH   3   8
HETATM    8  N1  UNL     1      24.488   1.673  52.974  1.00  0.00    -0.340 N 
HETATM    9  H3  UNL     1      23.949   1.917  53.841  1.00  0.00     0.167 HD
BRANCH   8  10
HETATM   10  C4  UNL     1      25.721   1.005  53.124  1.00  0.00     0.035 A 
HETATM   11  C5  UNL     1      25.876  -0.332  52.815  1.00  0.00     0.032 A 
HETATM   12  C6  UNL     1      27.113  -0.947  52.981  1.00  0.00     0.046 A 
HETATM   13  C7  UNL     1      28.199  -0.243  53.451  1.00  0.00     0.138 A 
HETATM   14  F1  UNL     1      29.414  -0.808  53.623  1.00  0.00    -0.204 F 
HETATM   15  C8  UNL     1      28.100   1.114  53.779  1.00  0.00     0.074 A 
HETATM   16 CL1  UNL     1      29.426   2.084  54.383  1.00  0.00    -0.081 Cl
HETATM   17  C9  UNL     1      26.844   1.666  53.593  1.00  0.00     0.056 A 
ENDBRANCH   8  10
ENDBRANCH   3   8
BRANCH   7  18
HETATM   18  C12 UNL     1      21.428   1.102  49.378  1.00  0.00     0.051 C 
BRANCH  18  19
HETATM   19  C13 UNL     1      20.235   1.857  49.118  1.00  0.00     0.293 C 
BRANCH  19  20
HETATM   20  N4  UNL     1      19.248   2.073  49.917  1.00  0.00    -0.347 NA
HETATM   21  C14 UNL     1      18.164   1.189  50.095  1.00  0.00     0.291 C 
HETATM   22  O1  UNL     1      17.102   1.067  49.417  1.00  0.00    -0.259 OA
BRANCH  21  23
HETATM   23  C15 UNL     1      18.260   0.278  51.218  1.00  0.00    -0.004 C 
HETATM   24  C16 UNL     1      18.329  -0.478  52.177  1.00  0.00    -0.071 C 
BRANCH  24  25
HETATM   25  C17 UNL     1      18.413  -1.370  53.330  1.00  0.00     0.258 C 
BRANCH  25  26
HETATM   26  O2  UNL     1      17.257  -1.327  54.079  1.00  0.00    -0.389 OA
HETATM   27  H12 UNL     1      16.661  -2.097  53.913  1.00  0.00     0.210 HD
ENDBRANCH  25  26
ENDBRANCH  24  25
ENDBRANCH  21  23
ENDBRANCH  19  20
ENDBRANCH  18  19
ENDBRANCH   7  18
TORSDOF 8
ENDMDL
MODEL 7
REMARK VINA RESULT:      -7.3      4.979      8.282
REMARK  8 active torsions:
REMARK  status: ('A' for Active; 'I' for Inactive)
REMARK    1  A    between atoms: C3_3  and  N1_4 
REMARK    2  A    between atoms: N1_4  and  C4_5 
REMARK    3  A    between atoms: C11_16  and  C12_17 
REMARK    4  A    between atoms: C12_17  and  C13_18 
REMARK    5  A    between atoms: C13_18  and  N4_19 
REMARK       I    between atoms: N4_19  and  C14_20 
REMARK    6  A    between atoms: C14_20  and  C15_22 
REMARK    7  A    between atoms: C16_23  and  C17_24 
REMARK    8  A    between atoms: C17_24  and  O2_25 
ROOT
HETATM    1  C1  UNL     1      22.620   1.055  51.884  1.00  0.00     0.049 C 
HETATM    2  C2  UNL     1      22.801   0.330  52.974  1.00  0.00     0.017 A 
HETATM    3  C3  UNL     1      24.048  -0.200  53.320  1.00  0.00     0.138 A 
HETATM    4  N2  UNL     1      24.225  -0.944  54.441  1.00  0.00    -0.224 NA
HETATM    5  C10 UNL     1      23.175  -1.194  55.269  1.00  0.00     0.235 A 
HETATM    6  N3  UNL     1      21.947  -0.688  54.955  1.00  0.00    -0.241 NA
HETATM    7  C11 UNL     1      21.769   0.049  53.844  1.00  0.00     0.069 A 
ENDROOT
BRANCH   3   8
HETATM    8  N1  UNL     1      25.165   0.039  52.481  1.00  0.00    -0.340 N 
HETATM    9  H3  UNL     1      25.128  -0.160  51.452  1.00  0.00     0.167 HD
BRANCH   8  10
HETATM   10  C4  UNL     1      26.363   0.558  53.015  1.00  0.00     0.035 A 
HETATM   11  C5  UNL     1      26.480   1.873  53.419  1.00  0.00     0.032 A 
HETATM   12  C6  UNL     1      27.684   2.339  53.938  1.00  0.00     0.046 A 
HETATM   13  C7  UNL     1      28.774   1.506  54.060  1.00  0.00     0.138 A 
HETATM   14  F1  UNL     1      29.957   1.925  54.559  1.00  0.00    -0.204 F 
HETATM   15  C8  UNL     1      28.713   0.164  53.666  1.00  0.00     0.074 A 
HETATM   16 CL1  UNL     1      30.047  -0.962  53.783  1.00  0.00    -0.081 Cl
HETATM   17  C9  UNL     1      27.489  -0.236  53.157  1.00  0.00     0.056 A 
ENDBRANCH   8  10
ENDBRANCH   3   8
BRANCH   7  18
HETATM   18  C12 UNL     1      20.562   0.519  53.579  1.00  0.00     0.051 C 
BRANCH  18  19
HETATM   19  C13 UNL     1      19.515  -0.389  53.207  1.00  0.00     0.293 C 
BRANCH  19  20
HETATM   20  N4  UNL     1      18.792  -0.365  52.140  1.00  0.00    -0.347 NA
HETATM   21  C14 UNL     1      18.393   0.815  51.479  1.00  0.00     0.291 C 
HETATM   22  O1  UNL     1      17.410   1.578  51.712  1.00  0.00    -0.259 OA
BRANCH  21  23
HETATM   23  C15 UNL     1      19.217   1.233  50.363  1.00  0.00    -0.004 C 
HETATM   24  C16 UNL     1      19.929   1.573  49.428  1.00  0.00    -0.071 C 
BRANCH  24  25
HETATM   25  C17 UNL     1      20.788   1.979  48.320  1.00  0.00     0.258 C 
BRANCH  25  26
HETATM   26  O2  UNL     1      21.770   1.042  48.080  1.00  0.00    -0.389 OA
HETATM   27  H12 UNL     1      21.475   0.118  48.269  1.00  0.00     0.210 HD
ENDBRANCH  25  26
ENDBRANCH  24  25
ENDBRANCH  21  23
ENDBRANCH  19  20
ENDBRANCH  18  19
ENDBRANCH   7  18
TORSDOF 8
ENDMDL
MODEL 8
REMARK VINA RESULT:      -7.2      5.001      8.099
REMARK  8 active torsions:
REMARK  status: ('A' for Active; 'I' for Inactive)
REMARK    1  A    between atoms: C3_3  and  N1_4 
REMARK    2  A    between atoms: N1_4  and  C4_5 
REMARK    3  A    between atoms: C11_16  and  C12_17 
REMARK    4  A    between atoms: C12_17  and  C13_18 
REMARK    5  A    between atoms: C13_18  and  N4_19 
REMARK       I    between atoms: N4_19  and  C14_20 
REMARK    6  A    between atoms: C14_20  and  C15_22 
REMARK    7  A    between atoms: C16_23  and  C17_24 
REMARK    8  A    between atoms: C17_24  and  O2_25 
ROOT
HETATM    1  C1  UNL     1      23.439   2.221  50.596  1.00  0.00     0.049 C 
HETATM    2  C2  UNL     1      22.866   1.396  51.456  1.00  0.00     0.017 A 
HETATM    3  C3  UNL     1      23.400   1.151  52.725  1.00  0.00     0.138 A 
HETATM    4  N2  UNL     1      22.806   0.303  53.601  1.00  0.00    -0.224 NA
HETATM    5  C10 UNL     1      21.656  -0.339  53.260  1.00  0.00     0.235 A 
HETATM    6  N3  UNL     1      21.114  -0.118  52.027  1.00  0.00    -0.241 NA
HETATM    7  C11 UNL     1      21.701   0.722  51.157  1.00  0.00     0.069 A 
ENDROOT
BRANCH   3   8
HETATM    8  N1  UNL     1      24.596   1.802  53.116  1.00  0.00    -0.340 N 
HETATM    9  H3  UNL     1      24.606   2.818  53.377  1.00  0.00     0.167 HD
BRANCH   8  10
HETATM   10  C4  UNL     1      25.814   1.092  53.165  1.00  0.00     0.035 A 
HETATM   11  C5  UNL     1      25.937  -0.194  52.679  1.00  0.00     0.032 A 
HETATM   12  C6  UNL     1      27.160  -0.854  52.752  1.00  0.00     0.046 A 
HETATM   13  C7  UNL     1      28.264  -0.244  53.304  1.00  0.00     0.138 A 
HETATM   14  F1  UNL     1      29.466  -0.855  53.390  1.00  0.00    -0.204 F 
HETATM   15  C8  UNL     1      28.198   1.058  53.812  1.00  0.00     0.074 A 
HETATM   16 CL1  UNL     1      29.549   1.907  54.531  1.00  0.00    -0.081 Cl
HETATM   17  C9  UNL     1      26.955   1.658  53.711  1.00  0.00     0.056 A 
ENDBRANCH   8  10
ENDBRANCH   3   8
BRANCH   7  18
HETATM   18  C12 UNL     1      21.141   0.907  49.974  1.00  0.00     0.051 C 
BRANCH  18  19
HETATM   19  C13 UNL     1      19.758   1.286  49.897  1.00  0.00     0.293 C 
BRANCH  19  20
HETATM   20  N4  UNL     1      19.266   2.477  49.910  1.00  0.00    -0.347 NA
HETATM   21  C14 UNL     1      19.252   3.318  51.042  1.00  0.00     0.291 C 
HETATM   22  O1  UNL     1      18.426   3.368  52.000  1.00  0.00    -0.259 OA
BRANCH  21  23
HETATM   23  C15 UNL     1      20.336   4.274  51.141  1.00  0.00    -0.004 C 
HETATM   24  C16 UNL     1      21.244   5.090  51.206  1.00  0.00    -0.071 C 
BRANCH  24  25
HETATM   25  C17 UNL     1      22.330   6.064  51.271  1.00  0.00     0.258 C 
BRANCH  25  26
HETATM   26  O2  UNL     1      21.844   7.354  51.287  1.00  0.00    -0.389 OA
HETATM   27  H12 UNL     1      20.886   7.407  51.051  1.00  0.00     0.210 HD
ENDBRANCH  25  26
ENDBRANCH  24  25
ENDBRANCH  21  23
ENDBRANCH  19  20
ENDBRANCH  18  19
ENDBRANCH   7  18
TORSDOF 8
ENDMDL
MODEL 9
REMARK VINA RESULT:      -7.1      4.722      7.688
REMARK  8 active torsions:
REMARK  status: ('A' for Active; 'I' for Inactive)
REMARK    1  A    between atoms: C3_3  and  N1_4 
REMARK    2  A    between atoms: N1_4  and  C4_5 
REMARK    3  A    between atoms: C11_16  and  C12_17 
REMARK    4  A    between atoms: C12_17  and  C13_18 
REMARK    5  A    between atoms: C13_18  and  N4_19 
REMARK       I    between atoms: N4_19  and  C14_20 
REMARK    6  A    between atoms: C14_20  and  C15_22 
REMARK    7  A    between atoms: C16_23  and  C17_24 
REMARK    8  A    between atoms: C17_24  and  O2_25 
ROOT
HETATM    1  C1  UNL     1      22.457   1.734  50.101  1.00  0.00     0.049 C 
HETATM    2  C2  UNL     1      22.735   2.915  50.624  1.00  0.00     0.017 A 
HETATM    3  C3  UNL     1      24.028   3.268  51.026  1.00  0.00     0.138 A 
HETATM    4  N2  UNL     1      24.305   4.483  51.563  1.00  0.00    -0.224 NA
HETATM    5  C10 UNL     1      23.315   5.401  51.725  1.00  0.00     0.235 A 
HETATM    6  N3  UNL     1      22.044   5.082  51.342  1.00  0.00    -0.241 NA
HETATM    7  C11 UNL     1      21.767   3.879  50.810  1.00  0.00     0.069 A 
ENDROOT
BRANCH   3   8
HETATM    8  N1  UNL     1      25.085   2.337  50.872  1.00  0.00    -0.340 N 
HETATM    9  H3  UNL     1      25.460   2.088  49.925  1.00  0.00     0.167 HD
BRANCH   8  10
HETATM   10  C4  UNL     1      25.664   1.719  52.000  1.00  0.00     0.035 A 
HETATM   11  C5  UNL     1      25.038   0.693  52.679  1.00  0.00     0.032 A 
HETATM   12  C6  UNL     1      25.650   0.115  53.788  1.00  0.00     0.046 A 
HETATM   13  C7  UNL     1      26.880   0.550  54.227  1.00  0.00     0.138 A 
HETATM   14  F1  UNL     1      27.502   0.012  55.299  1.00  0.00    -0.204 F 
HETATM   15  C8  UNL     1      27.560   1.587  53.578  1.00  0.00     0.074 A 
HETATM   16 CL1  UNL     1      29.123   2.202  54.067  1.00  0.00    -0.081 Cl
HETATM   17  C9  UNL     1      26.899   2.119  52.484  1.00  0.00     0.056 A 
ENDBRANCH   8  10
ENDBRANCH   3   8
BRANCH   7  18
HETATM   18  C12 UNL     1      20.522   3.613  50.453  1.00  0.00     0.051 C 
BRANCH  18  19
HETATM   19  C13 UNL     1      19.473   3.691  51.430  1.00  0.00     0.293 C 
BRANCH  19  20
HETATM   20  N4  UNL     1      18.833   2.717  51.978  1.00  0.00    -0.347 NA
HETATM   21  C14 UNL     1      19.169   1.357  51.819  1.00  0.00     0.291 C 
HETATM   22  O1  UNL     1      18.854   0.550  50.895  1.00  0.00    -0.259 OA
BRANCH  21  23
HETATM   23  C15 UNL     1      19.996   0.776  52.858  1.00  0.00    -0.004 C 
HETATM   24  C16 UNL     1      20.708   0.281  53.719  1.00  0.00    -0.071 C 
BRANCH  24  25
HETATM   25  C17 UNL     1      21.561  -0.321  54.740  1.00  0.00     0.258 C 
BRANCH  25  26
HETATM   26  O2  UNL     1      21.170  -1.613  55.019  1.00  0.00    -0.389 OA
HETATM   27  H12 UNL     1      20.707  -1.697  55.888  1.00  0.00     0.210 HD
ENDBRANCH  25  26
ENDBRANCH  24  25
ENDBRANCH  21  23
ENDBRANCH  19  20
ENDBRANCH  18  19
ENDBRANCH   7  18
TORSDOF 8
ENDMDL
