MODEL 1
REMARK VINA RESULT:      -8.1      0.000      0.000
REMARK  8 active torsions:
REMARK  status: ('A' for Active; 'I' for Inactive)
REMARK    1  A    between atoms: C2_2  and  O1_3 
REMARK    2  A    between atoms: O1_3  and  C3_4 
REMARK    3  A    between atoms: C3_4  and  C4_5 
REMARK    4  A    between atoms: C4_5  and  C5_6 
REMARK    5  A    between atoms: C5_6  and  C6_8 
REMARK    6  A    between atoms: C7_9  and  C8_10 
REMARK    7  A    between atoms: C8_10  and  N1_11 
REMARK    8  A    between atoms: C19_24  and  C20_25 
ROOT
HETATM    1  C3  UNL     1      25.321   1.375  53.266  1.00  0.00     0.076 C 
HETATM    2  C13 UNL     1      26.617   1.449  53.510  1.00  0.00     0.046 C 
HETATM    3  N2  UNL     1      27.540   2.469  53.894  1.00  0.00    -0.390 N 
HETATM    4  C14 UNL     1      28.978   2.235  53.780  1.00  0.00     0.132 C 
HETATM    5  C15 UNL     1      29.163   0.765  53.711  1.00  0.00     0.005 A 
HETATM    6  C16 UNL     1      28.735  -0.384  53.514  1.00  0.00    -0.005 A 
HETATM    7  C17 UNL     1      29.438  -1.582  53.461  1.00  0.00     0.013 A 
HETATM    8  C18 UNL     1      28.659  -0.633  53.472  1.00  0.00    -0.005 A 
HETATM    9  C19 UNL     1      27.232  -1.102  53.193  1.00  0.00     0.024 A 
HETATM   10  C20 UNL     1      27.404   0.191  53.392  1.00  0.00     0.028 A 
HETATM   11  H20 UNL     1      27.071   3.305  54.233  1.00  0.00     0.159 HD
ENDROOT
BRANCH   1  12
HETATM   12  O1  UNL     1      24.741   0.189  52.903  1.00  0.00    -0.353 OA
BRANCH  12  13
HETATM   13  C2  UNL     1      23.802  -0.496  53.712  1.00  0.00     0.171 C 
HETATM   14  C1  UNL     1      22.490  -0.441  52.932  1.00  0.00     0.034 C 
ENDBRANCH  12  13
ENDBRANCH   1  12
BRANCH   1  15
HETATM   15  C4  UNL     1      24.631   2.619  53.423  1.00  0.00     0.149 C 
BRANCH  15  16
HETATM   16  C5  UNL     1      23.711   2.851  52.245  1.00  0.00     0.155 C 
HETATM   17  O2  UNL     1      22.522   3.255  52.223  1.00  0.00    -0.293 OA
BRANCH  16  18
HETATM   18  C6  UNL     1      24.249   2.569  50.894  1.00  0.00     0.048 C 
HETATM   19  C7  UNL     1      24.838   3.475  50.136  1.00  0.00     0.007 C 
BRANCH  19  20
HETATM   20  C8  UNL     1      25.230   4.896  50.114  1.00  0.00     0.300 C 
BRANCH  20  21
HETATM   21  N1  UNL     1      25.957   5.183  48.895  1.00  0.00     0.096 N 
HETATM   22  C9  UNL     1      27.298   4.729  49.001  1.00  0.00     0.299 C 
HETATM   23  C10 UNL     1      28.307   5.506  48.207  1.00  0.00     0.198 C 
HETATM   24  O3  UNL     1      28.056   6.861  48.091  1.00  0.00    -0.388 OA
HETATM   25  C11 UNL     1      27.064   7.292  48.967  1.00  0.00     0.198 C 
HETATM   26  C12 UNL     1      25.805   6.585  48.564  1.00  0.00     0.299 C 
ENDBRANCH  20  21
ENDBRANCH  19  20
ENDBRANCH  16  18
ENDBRANCH  15  16
ENDBRANCH   1  15
TORSDOF 8
ENDMDL
MODEL 2
REMARK VINA RESULT:      -7.8      2.794      4.718
REMARK  8 active torsions:
REMARK  status: ('A' for Active; 'I' for Inactive)
REMARK    1  A    between atoms: C2_2  and  O1_3 
REMARK    2  A    between atoms: O1_3  and  C3_4 
REMARK    3  A    between atoms: C3_4  and  C4_5 
REMARK    4  A    between atoms: C4_5  and  C5_6 
REMARK    5  A    between atoms: C5_6  and  C6_8 
REMARK    6  A    between atoms: C7_9  and  C8_10 
REMARK    7  A    between atoms: C8_10  and  N1_11 
REMARK    8  A    between atoms: C19_24  and  C20_25 
ROOT
HETATM    1  C3  UNL     1      25.247   1.466  53.109  1.00  0.00     0.076 C 
HETATM    2  C13 UNL     1      26.532   1.535  53.408  1.00  0.00     0.046 C 
HETATM    3  N2  UNL     1      27.435   2.546  53.857  1.00  0.00    -0.390 N 
HETATM    4  C14 UNL     1      28.878   2.317  53.796  1.00  0.00     0.132 C 
HETATM    5  C15 UNL     1      29.069   0.849  53.696  1.00  0.00     0.005 A 
HETATM    6  C16 UNL     1      28.652  -0.294  53.451  1.00  0.00    -0.005 A 
HETATM    7  C17 UNL     1      29.360  -1.490  53.395  1.00  0.00     0.013 A 
HETATM    8  C18 UNL     1      28.579  -0.542  53.400  1.00  0.00    -0.005 A 
HETATM    9  C19 UNL     1      27.166  -1.006  53.049  1.00  0.00     0.024 A 
HETATM   10  C20 UNL     1      27.326   0.282  53.290  1.00  0.00     0.028 A 
HETATM   11  H20 UNL     1      26.951   3.372  54.198  1.00  0.00     0.159 HD
ENDROOT
BRANCH   1  12
HETATM   12  O1  UNL     1      24.685   0.290  52.691  1.00  0.00    -0.353 OA
BRANCH  12  13
HETATM   13  C2  UNL     1      23.399  -0.142  53.093  1.00  0.00     0.171 C 
HETATM   14  C1  UNL     1      23.616  -0.844  54.433  1.00  0.00     0.034 C 
ENDBRANCH  12  13
ENDBRANCH   1  12
BRANCH   1  15
HETATM   15  C4  UNL     1      24.548   2.705  53.270  1.00  0.00     0.149 C 
BRANCH  15  16
HETATM   16  C5  UNL     1      24.248   3.308  51.916  1.00  0.00     0.155 C 
HETATM   17  O2  UNL     1      24.634   2.952  50.775  1.00  0.00    -0.293 OA
BRANCH  16  18
HETATM   18  C6  UNL     1      23.370   4.500  51.881  1.00  0.00     0.048 C 
HETATM   19  C7  UNL     1      22.061   4.453  52.045  1.00  0.00     0.007 C 
BRANCH  19  20
HETATM   20  C8  UNL     1      20.953   3.512  52.291  1.00  0.00     0.300 C 
BRANCH  20  21
HETATM   21  N1  UNL     1      20.450   3.009  51.030  1.00  0.00     0.096 N 
HETATM   22  C9  UNL     1      19.030   3.038  51.018  1.00  0.00     0.299 C 
HETATM   23  C10 UNL     1      18.371   1.987  50.174  1.00  0.00     0.198 C 
HETATM   24  O3  UNL     1      19.027   0.770  50.122  1.00  0.00    -0.388 OA
HETATM   25  C11 UNL     1      20.026   0.665  51.085  1.00  0.00     0.198 C 
HETATM   26  C12 UNL     1      21.043   1.717  50.757  1.00  0.00     0.299 C 
ENDBRANCH  20  21
ENDBRANCH  19  20
ENDBRANCH  16  18
ENDBRANCH  15  16
ENDBRANCH   1  15
TORSDOF 8
ENDMDL
MODEL 3
REMARK VINA RESULT:      -7.7      2.060      2.694
REMARK  8 active torsions:
REMARK  status: ('A' for Active; 'I' for Inactive)
REMARK    1  A    between atoms: C2_2  and  O1_3 
REMARK    2  A    between atoms: O1_3  and  C3_4 
REMARK    3  A    between atoms: C3_4  and  C4_5 
REMARK    4  A    between atoms: C4_5  and  C5_6 
REMARK    5  A    between atoms: C5_6  and  C6_8 
REMARK    6  A    between atoms: C7_9  and  C8_10 
REMARK    7  A    between atoms: C8_10  and  N1_11 
REMARK    8  A    between atoms: C19_24  and  C20_25 
ROOT
HETATM    1  C3  UNL     1      25.258   1.528  53.196  1.00  0.00     0.076 C 
HETATM    2  C13 UNL     1      26.551   1.606  53.459  1.00  0.00     0.046 C 
HETATM    3  N2  UNL     1      27.463   2.628  53.860  1.00  0.00    -0.390 N 
HETATM    4  C14 UNL     1      28.904   2.400  53.766  1.00  0.00     0.132 C 
HETATM    5  C15 UNL     1      29.095   0.931  53.694  1.00  0.00     0.005 A 
HETATM    6  C16 UNL     1      28.675  -0.219  53.486  1.00  0.00    -0.005 A 
HETATM    7  C17 UNL     1      29.384  -1.414  53.439  1.00  0.00     0.013 A 
HETATM    8  C18 UNL     1      28.601  -0.468  53.443  1.00  0.00    -0.005 A 
HETATM    9  C19 UNL     1      27.180  -0.942  53.141  1.00  0.00     0.024 A 
HETATM   10  C20 UNL     1      27.344   0.351  53.348  1.00  0.00     0.028 A 
HETATM   11  H20 UNL     1      26.987   3.461  54.196  1.00  0.00     0.159 HD
ENDROOT
BRANCH   1  12
HETATM   12  O1  UNL     1      24.688   0.342  52.820  1.00  0.00    -0.353 OA
BRANCH  12  13
HETATM   13  C2  UNL     1      23.720  -0.336  53.600  1.00  0.00     0.171 C 
HETATM   14  C1  UNL     1      22.451  -0.333  52.750  1.00  0.00     0.034 C 
ENDBRANCH  12  13
ENDBRANCH   1  12
BRANCH   1  15
HETATM   15  C4  UNL     1      24.561   2.769  53.348  1.00  0.00     0.149 C 
BRANCH  15  16
HETATM   16  C5  UNL     1      23.777   3.077  52.092  1.00  0.00     0.155 C 
HETATM   17  O2  UNL     1      22.535   3.102  51.907  1.00  0.00    -0.293 OA
BRANCH  16  18
HETATM   18  C6  UNL     1      24.548   3.403  50.870  1.00  0.00     0.048 C 
HETATM   19  C7  UNL     1      24.761   4.633  50.443  1.00  0.00     0.007 C 
BRANCH  19  20
HETATM   20  C8  UNL     1      24.478   6.043  50.769  1.00  0.00     0.300 C 
BRANCH  20  21
HETATM   21  N1  UNL     1      23.570   6.599  49.789  1.00  0.00     0.096 N 
HETATM   22  C9  UNL     1      23.769   8.000  49.670  1.00  0.00     0.299 C 
HETATM   23  C10 UNL     1      22.556   8.793  49.281  1.00  0.00     0.198 C 
HETATM   24  O3  UNL     1      21.353   8.316  49.769  1.00  0.00    -0.388 OA
HETATM   25  C11 UNL     1      21.528   7.352  50.758  1.00  0.00     0.198 C 
HETATM   26  C12 UNL     1      22.216   6.192  50.102  1.00  0.00     0.299 C 
ENDBRANCH  20  21
ENDBRANCH  19  20
ENDBRANCH  16  18
ENDBRANCH  15  16
ENDBRANCH   1  15
TORSDOF 8
ENDMDL
MODEL 4
REMARK VINA RESULT:      -7.5      3.303      6.894
REMARK  8 active torsions:
REMARK  status: ('A' for Active; 'I' for Inactive)
REMARK    1  A    between atoms: C2_2  and  O1_3 
REMARK    2  A    between atoms: O1_3  and  C3_4 
REMARK    3  A    between atoms: C3_4  and  C4_5 
REMARK    4  A    between atoms: C4_5  and  C5_6 
REMARK    5  A    between atoms: C5_6  and  C6_8 
REMARK    6  A    between atoms: C7_9  and  C8_10 
REMARK    7  A    between atoms: C8_10  and  N1_11 
REMARK    8  A    between atoms: C19_24  and  C20_25 
ROOT
HETATM    1  C3  UNL     1      22.337   1.021  51.476  1.00  0.00     0.076 C 
HETATM    2  C13 UNL     1      21.923   0.273  52.484  1.00  0.00     0.046 C 
HETATM    3  N2  UNL     1      22.515  -0.330  53.634  1.00  0.00    -0.390 N 
HETATM    4  C14 UNL     1      21.785  -1.353  54.381  1.00  0.00     0.132 C 
HETATM    5  C15 UNL     1      20.355  -1.201  54.019  1.00  0.00     0.005 A 
HETATM    6  C16 UNL     1      19.453  -0.784  53.275  1.00  0.00    -0.005 A 
HETATM    7  C17 UNL     1      18.087  -1.040  53.327  1.00  0.00     0.013 A 
HETATM    8  C18 UNL     1      19.251  -0.704  53.125  1.00  0.00    -0.005 A 
HETATM    9  C19 UNL     1      19.346   0.198  51.896  1.00  0.00     0.024 A 
HETATM   10  C20 UNL     1      20.475  -0.073  52.524  1.00  0.00     0.028 A 
HETATM   11  H20 UNL     1      23.441   0.041  53.831  1.00  0.00     0.159 HD
ENDROOT
BRANCH   1  12
HETATM   12  O1  UNL     1      21.466   1.438  50.506  1.00  0.00    -0.353 OA
BRANCH  12  13
HETATM   13  C2  UNL     1      21.718   1.293  49.120  1.00  0.00     0.171 C 
HETATM   14  C1  UNL     1      21.476   2.678  48.524  1.00  0.00     0.034 C 
ENDBRANCH  12  13
ENDBRANCH   1  12
BRANCH   1  15
HETATM   15  C4  UNL     1      23.734   1.330  51.521  1.00  0.00     0.149 C 
BRANCH  15  16
HETATM   16  C5  UNL     1      23.936   2.724  52.072  1.00  0.00     0.155 C 
HETATM   17  O2  UNL     1      23.674   3.837  51.554  1.00  0.00    -0.293 OA
BRANCH  16  18
HETATM   18  C6  UNL     1      24.532   2.843  53.423  1.00  0.00     0.048 C 
HETATM   19  C7  UNL     1      25.774   2.500  53.710  1.00  0.00     0.007 C 
BRANCH  19  20
HETATM   20  C8  UNL     1      26.999   1.952  53.100  1.00  0.00     0.300 C 
BRANCH  20  21
HETATM   21  N1  UNL     1      27.493   0.851  53.900  1.00  0.00     0.096 N 
HETATM   22  C9  UNL     1      28.846   0.569  53.570  1.00  0.00     0.299 C 
HETATM   23  C10 UNL     1      29.268  -0.860  53.748  1.00  0.00     0.198 C 
HETATM   24  O3  UNL     1      28.292  -1.805  53.485  1.00  0.00    -0.388 OA
HETATM   25  C11 UNL     1      27.188  -1.259  52.836  1.00  0.00     0.198 C 
HETATM   26  C12 UNL     1      26.584  -0.270  53.788  1.00  0.00     0.299 C 
ENDBRANCH  20  21
ENDBRANCH  19  20
ENDBRANCH  16  18
ENDBRANCH  15  16
ENDBRANCH   1  15
TORSDOF 8
ENDMDL
MODEL 5
REMARK VINA RESULT:      -7.5      2.619      3.076
REMARK  8 active torsions:
REMARK  status: ('A' for Active; 'I' for Inactive)
REMARK    1  A    between atoms: C2_2  and  O1_3 
REMARK    2  A    between atoms: O1_3  and  C3_4 
REMARK    3  A    between atoms: C3_4  and  C4_5 
REMARK    4  A    between atoms: C4_5  and  C5_6 
REMARK    5  A    between atoms: C5_6  and  C6_8 
REMARK    6  A    between atoms: C7_9  and  C8_10 
REMARK    7  A    between atoms: C8_10  and  N1_11 
REMARK    8  A    between atoms: C19_24  and  C20_25 
ROOT
HETATM    1  C3  UNL     1      25.141   1.332  53.132  1.00  0.00     0.076 C 
HETATM    2  C13 UNL     1      26.429   1.488  53.379  1.00  0.00     0.046 C 
HETATM    3  N2  UNL     1      27.291   2.572  53.727  1.00  0.00    -0.390 N 
HETATM    4  C14 UNL     1      28.741   2.415  53.627  1.00  0.00     0.132 C 
HETATM    5  C15 UNL     1      29.008   0.956  53.615  1.00  0.00     0.005 A 
HETATM    6  C16 UNL     1      28.646  -0.221  53.460  1.00  0.00    -0.005 A 
HETATM    7  C17 UNL     1      29.416  -1.379  53.456  1.00  0.00     0.013 A 
HETATM    8  C18 UNL     1      28.585  -0.475  53.429  1.00  0.00    -0.005 A 
HETATM    9  C19 UNL     1      27.188  -1.035  53.162  1.00  0.00     0.024 A 
HETATM   10  C20 UNL     1      27.286   0.273  53.312  1.00  0.00     0.028 A 
HETATM   11  H20 UNL     1      26.774   3.393  54.031  1.00  0.00     0.159 HD
ENDROOT
BRANCH   1  12
HETATM   12  O1  UNL     1      24.630   0.103  52.813  1.00  0.00    -0.353 OA
BRANCH  12  13
HETATM   13  C2  UNL     1      23.641  -0.552  53.586  1.00  0.00     0.171 C 
HETATM   14  C1  UNL     1      22.376  -0.513  52.730  1.00  0.00     0.034 C 
ENDBRANCH  12  13
ENDBRANCH   1  12
BRANCH   1  15
HETATM   15  C4  UNL     1      24.381   2.541  53.239  1.00  0.00     0.149 C 
BRANCH  15  16
HETATM   16  C5  UNL     1      24.219   3.170  51.873  1.00  0.00     0.155 C 
HETATM   17  O2  UNL     1      24.321   4.373  51.526  1.00  0.00    -0.293 OA
BRANCH  16  18
HETATM   18  C6  UNL     1      23.887   2.271  50.744  1.00  0.00     0.048 C 
HETATM   19  C7  UNL     1      22.703   2.228  50.164  1.00  0.00     0.007 C 
BRANCH  19  20
HETATM   20  C8  UNL     1      21.359   2.832  50.218  1.00  0.00     0.300 C 
BRANCH  20  21
HETATM   21  N1  UNL     1      20.993   3.330  48.909  1.00  0.00     0.096 N 
HETATM   22  C9  UNL     1      21.672   2.601  47.896  1.00  0.00     0.299 C 
HETATM   23  C10 UNL     1      21.961   3.363  46.636  1.00  0.00     0.198 C 
HETATM   24  O3  UNL     1      22.234   4.709  46.805  1.00  0.00    -0.388 OA
HETATM   25  C11 UNL     1      22.464   5.039  48.138  1.00  0.00     0.198 C 
HETATM   26  C12 UNL     1      21.184   4.765  48.869  1.00  0.00     0.299 C 
ENDBRANCH  20  21
ENDBRANCH  19  20
ENDBRANCH  16  18
ENDBRANCH  15  16
ENDBRANCH   1  15
TORSDOF 8
ENDMDL
MODEL 6
REMARK VINA RESULT:      -7.4      2.131      2.753
REMARK  8 active torsions:
REMARK  status: ('A' for Active; 'I' for Inactive)
REMARK    1  A    between atoms: C2_2  and  O1_3 
REMARK    2  A    between atoms: O1_3  and  C3_4 
REMARK    3  A    between atoms: C3_4  and  C4_5 
REMARK    4  A    between atoms: C4_5  and  C5_6 
REMARK    5  A    between atoms: C5_6  and  C6_8 
REMARK    6  A    between atoms: C7_9  and  C8_10 
REMARK    7  A    between atoms: C8_10  and  N1_11 
REMARK    8  A    between atoms: C19_24  and  C20_25 
ROOT
HETATM    1  C3  UNL     1      23.483   0.626  52.918  1.00  0.00     0.076 C 
HETATM    2  C13 UNL     1      24.709   1.049  52.664  1.00  0.00     0.046 C 
HETATM    3  N2  UNL     1      25.309   2.258  52.199  1.00  0.00    -0.390 N 
HETATM    4  C14 UNL     1      26.701   2.258  51.751  1.00  0.00     0.132 C 
HETATM    5  C15 UNL     1      27.331   1.046  52.329  1.00  0.00     0.005 A 
HETATM    6  C16 UNL     1      27.266  -0.080  52.848  1.00  0.00    -0.005 A 
HETATM    7  C17 UNL     1      28.294  -0.967  53.143  1.00  0.00     0.013 A 
HETATM    8  C18 UNL     1      27.267  -0.320  52.956  1.00  0.00    -0.005 A 
HETATM    9  C19 UNL     1      26.041  -1.110  53.410  1.00  0.00     0.024 A 
HETATM   10  C20 UNL     1      25.822   0.091  52.907  1.00  0.00     0.028 A 
HETATM   11  H20 UNL     1      24.667   3.045  52.234  1.00  0.00     0.159 HD
ENDROOT
BRANCH   1  12
HETATM   12  O1  UNL     1      23.258  -0.647  53.368  1.00  0.00    -0.353 OA
BRANCH  12  13
HETATM   13  C2  UNL     1      22.612  -0.934  54.595  1.00  0.00     0.171 C 
HETATM   14  C1  UNL     1      21.306  -1.624  54.205  1.00  0.00     0.034 C 
ENDBRANCH  12  13
ENDBRANCH   1  12
BRANCH   1  15
HETATM   15  C4  UNL     1      22.471   1.611  52.683  1.00  0.00     0.149 C 
BRANCH  15  16
HETATM   16  C5  UNL     1      21.543   1.144  51.583  1.00  0.00     0.155 C 
HETATM   17  O2  UNL     1      20.376   0.688  51.658  1.00  0.00    -0.293 OA
BRANCH  16  18
HETATM   18  C6  UNL     1      22.046   1.215  50.191  1.00  0.00     0.048 C 
HETATM   19  C7  UNL     1      22.252   2.346  49.543  1.00  0.00     0.007 C 
BRANCH  19  20
HETATM   20  C8  UNL     1      22.157   3.809  49.697  1.00  0.00     0.300 C 
BRANCH  20  21
HETATM   21  N1  UNL     1      23.360   4.313  50.326  1.00  0.00     0.096 N 
HETATM   22  C9  UNL     1      23.099   5.552  50.970  1.00  0.00     0.299 C 
HETATM   23  C10 UNL     1      24.263   6.496  51.047  1.00  0.00     0.198 C 
HETATM   24  O3  UNL     1      25.132   6.457  49.971  1.00  0.00    -0.388 OA
HETATM   25  C11 UNL     1      24.608   5.750  48.893  1.00  0.00     0.198 C 
HETATM   26  C12 UNL     1      24.436   4.335  49.358  1.00  0.00     0.299 C 
ENDBRANCH  20  21
ENDBRANCH  19  20
ENDBRANCH  16  18
ENDBRANCH  15  16
ENDBRANCH   1  15
TORSDOF 8
ENDMDL
MODEL 7
REMARK VINA RESULT:      -7.4      2.228      4.407
REMARK  8 active torsions:
REMARK  status: ('A' for Active; 'I' for Inactive)
REMARK    1  A    between atoms: C2_2  and  O1_3 
REMARK    2  A    between atoms: O1_3  and  C3_4 
REMARK    3  A    between atoms: C3_4  and  C4_5 
REMARK    4  A    between atoms: C4_5  and  C5_6 
REMARK    5  A    between atoms: C5_6  and  C6_8 
REMARK    6  A    between atoms: C7_9  and  C8_10 
REMARK    7  A    between atoms: C8_10  and  N1_11 
REMARK    8  A    between atoms: C19_24  and  C20_25 
ROOT
HETATM    1  C3  UNL     1      24.233   2.234  52.353  1.00  0.00     0.076 C 
HETATM    2  C13 UNL     1      22.990   1.829  52.549  1.00  0.00     0.046 C 
HETATM    3  N2  UNL     1      21.685   2.308  52.227  1.00  0.00    -0.390 N 
HETATM    4  C14 UNL     1      20.512   1.730  52.880  1.00  0.00     0.132 C 
HETATM    5  C15 UNL     1      20.934   0.414  53.420  1.00  0.00     0.005 A 
HETATM    6  C16 UNL     1      21.807  -0.393  53.777  1.00  0.00    -0.005 A 
HETATM    7  C17 UNL     1      21.656  -1.627  54.399  1.00  0.00     0.013 A 
HETATM    8  C18 UNL     1      21.981  -0.573  53.859  1.00  0.00    -0.005 A 
HETATM    9  C19 UNL     1      23.502  -0.464  53.761  1.00  0.00     0.024 A 
HETATM   10  C20 UNL     1      22.801   0.543  53.275  1.00  0.00     0.028 A 
HETATM   11  H20 UNL     1      21.706   3.047  51.529  1.00  0.00     0.159 HD
ENDROOT
BRANCH   1  12
HETATM   12  O1  UNL     1      25.292   1.502  52.818  1.00  0.00    -0.353 OA
BRANCH  12  13
HETATM   13  C2  UNL     1      26.287   2.035  53.673  1.00  0.00     0.171 C 
HETATM   14  C1  UNL     1      27.578   1.990  52.858  1.00  0.00     0.034 C 
ENDBRANCH  12  13
ENDBRANCH   1  12
BRANCH   1  15
HETATM   15  C4  UNL     1      24.332   3.464  51.628  1.00  0.00     0.149 C 
BRANCH  15  16
HETATM   16  C5  UNL     1      24.622   3.182  50.170  1.00  0.00     0.155 C 
HETATM   17  O2  UNL     1      23.829   2.941  49.226  1.00  0.00    -0.293 OA
BRANCH  16  18
HETATM   18  C6  UNL     1      26.041   3.176  49.747  1.00  0.00     0.048 C 
HETATM   19  C7  UNL     1      26.683   4.245  49.315  1.00  0.00     0.007 C 
BRANCH  19  20
HETATM   20  C8  UNL     1      26.497   5.684  49.048  1.00  0.00     0.300 C 
BRANCH  20  21
HETATM   21  N1  UNL     1      27.462   6.127  48.064  1.00  0.00     0.096 N 
HETATM   22  C9  UNL     1      28.735   5.554  48.328  1.00  0.00     0.299 C 
HETATM   23  C10 UNL     1      29.914   6.378  47.900  1.00  0.00     0.198 C 
HETATM   24  O3  UNL     1      29.749   7.748  48.002  1.00  0.00    -0.388 OA
HETATM   25  C11 UNL     1      28.624   8.092  48.745  1.00  0.00     0.198 C 
HETATM   26  C12 UNL     1      27.440   7.573  47.986  1.00  0.00     0.299 C 
ENDBRANCH  20  21
ENDBRANCH  19  20
ENDBRANCH  16  18
ENDBRANCH  15  16
ENDBRANCH   1  15
TORSDOF 8
ENDMDL
MODEL 8
REMARK VINA RESULT:      -7.2      3.436      7.172
REMARK  8 active torsions:
REMARK  status: ('A' for Active; 'I' for Inactive)
REMARK    1  A    between atoms: C2_2  and  O1_3 
REMARK    2  A    between atoms: O1_3  and  C3_4 
REMARK    3  A    between atoms: C3_4  and  C4_5 
REMARK    4  A    between atoms: C4_5  and  C5_6 
REMARK    5  A    between atoms: C5_6  and  C6_8 
REMARK    6  A    between atoms: C7_9  and  C8_10 
REMARK    7  A    between atoms: C8_10  and  N1_11 
REMARK    8  A    between atoms: C19_24  and  C20_25 
ROOT
HETATM    1  C3  UNL     1      22.099   0.662  52.422  1.00  0.00     0.076 C 
HETATM    2  C13 UNL     1      21.135   0.710  51.520  1.00  0.00     0.046 C 
HETATM    3  N2  UNL     1      21.012   1.131  50.161  1.00  0.00    -0.390 N 
HETATM    4  C14 UNL     1      19.687   1.312  49.569  1.00  0.00     0.132 C 
HETATM    5  C15 UNL     1      18.738   0.551  50.417  1.00  0.00     0.005 A 
HETATM    6  C16 UNL     1      18.431  -0.018  51.476  1.00  0.00    -0.005 A 
HETATM    7  C17 UNL     1      17.207  -0.556  51.857  1.00  0.00     0.013 A 
HETATM    8  C18 UNL     1      18.351  -0.140  51.696  1.00  0.00    -0.005 A 
HETATM    9  C19 UNL     1      19.203  -0.408  52.936  1.00  0.00     0.024 A 
HETATM   10  C20 UNL     1      19.796   0.203  51.928  1.00  0.00     0.028 A 
HETATM   11  H20 UNL     1      21.915   1.267  49.716  1.00  0.00     0.159 HD
ENDROOT
BRANCH   1  12
HETATM   12  O1  UNL     1      21.859   0.182  53.682  1.00  0.00    -0.353 OA
BRANCH  12  13
HETATM   13  C2  UNL     1      22.705  -0.749  54.331  1.00  0.00     0.171 C 
HETATM   14  C1  UNL     1      21.807  -1.941  54.660  1.00  0.00     0.034 C 
ENDBRANCH  12  13
ENDBRANCH   1  12
BRANCH   1  15
HETATM   15  C4  UNL     1      23.360   1.145  51.947  1.00  0.00     0.149 C 
BRANCH  15  16
HETATM   16  C5  UNL     1      23.553   2.585  52.369  1.00  0.00     0.155 C 
HETATM   17  O2  UNL     1      22.862   3.599  52.103  1.00  0.00    -0.293 OA
BRANCH  16  18
HETATM   18  C6  UNL     1      24.723   2.893  53.225  1.00  0.00     0.048 C 
HETATM   19  C7  UNL     1      25.602   1.991  53.617  1.00  0.00     0.007 C 
BRANCH  19  20
HETATM   20  C8  UNL     1      25.921   0.555  53.514  1.00  0.00     0.300 C 
BRANCH  20  21
HETATM   21  N1  UNL     1      27.251   0.387  52.969  1.00  0.00     0.096 N 
HETATM   22  C9  UNL     1      27.675  -0.961  53.107  1.00  0.00     0.299 C 
HETATM   23  C10 UNL     1      29.155  -1.160  53.252  1.00  0.00     0.198 C 
HETATM   24  O3  UNL     1      29.824  -0.163  53.939  1.00  0.00    -0.388 OA
HETATM   25  C11 UNL     1      28.955   0.695  54.606  1.00  0.00     0.198 C 
HETATM   26  C12 UNL     1      28.137   1.375  53.549  1.00  0.00     0.299 C 
ENDBRANCH  20  21
ENDBRANCH  19  20
ENDBRANCH  16  18
ENDBRANCH  15  16
ENDBRANCH   1  15
TORSDOF 8
ENDMDL
MODEL 9
REMARK VINA RESULT:      -7.1      2.727      6.945
REMARK  8 active torsions:
REMARK  status: ('A' for Active; 'I' for Inactive)
REMARK    1  A    between atoms: C2_2  and  O1_3 
REMARK    2  A    between atoms: O1_3  and  C3_4 
REMARK    3  A    between atoms: C3_4  and  C4_5 
REMARK    4  A    between atoms: C4_5  and  C5_6 
REMARK    5  A    between atoms: C5_6  and  C6_8 
REMARK    6  A    between atoms: C7_9  and  C8_10 
REMARK    7  A    between atoms: C8_10  and  N1_11 
REMARK    8  A    between atoms: C19_24  and  C20_25 
ROOT
HETATM    1  C3  UNL     1      24.192   3.773  51.147  1.00  0.00     0.076 C 
HETATM    2  C13 UNL     1      24.619   4.826  50.474  1.00  0.00     0.046 C 
HETATM    3  N2  UNL     1      24.170   6.163  50.253  1.00  0.00    -0.390 N 
HETATM    4  C14 UNL     1      24.765   6.968  49.188  1.00  0.00     0.132 C 
HETATM    5  C15 UNL     1      26.066   6.337  48.858  1.00  0.00     0.005 A 
HETATM    6  C16 UNL     1      26.852   5.376  48.875  1.00  0.00    -0.005 A 
HETATM    7  C17 UNL     1      28.082   5.241  48.241  1.00  0.00     0.013 A 
HETATM    8  C18 UNL     1      27.027   5.180  48.868  1.00  0.00    -0.005 A 
HETATM    9  C19 UNL     1      26.889   3.825  49.561  1.00  0.00     0.024 A 
HETATM   10  C20 UNL     1      25.901   4.683  49.731  1.00  0.00     0.028 A 
HETATM   11  H20 UNL     1      23.438   6.437  50.904  1.00  0.00     0.159 HD
ENDROOT
BRANCH   1  12
HETATM   12  O1  UNL     1      24.897   2.600  51.139  1.00  0.00    -0.353 OA
BRANCH  12  13
HETATM   13  C2  UNL     1      25.396   1.985  52.313  1.00  0.00     0.171 C 
HETATM   14  C1  UNL     1      26.368   0.914  51.819  1.00  0.00     0.034 C 
ENDBRANCH  12  13
ENDBRANCH   1  12
BRANCH   1  15
HETATM   15  C4  UNL     1      22.967   3.997  51.855  1.00  0.00     0.149 C 
BRANCH  15  16
HETATM   16  C5  UNL     1      21.802   3.468  51.047  1.00  0.00     0.155 C 
HETATM   17  O2  UNL     1      21.776   3.019  49.875  1.00  0.00    -0.293 OA
BRANCH  16  18
HETATM   18  C6  UNL     1      20.471   3.461  51.697  1.00  0.00     0.048 C 
HETATM   19  C7  UNL     1      19.918   2.386  52.225  1.00  0.00     0.007 C 
BRANCH  19  20
HETATM   20  C8  UNL     1      20.156   0.949  52.455  1.00  0.00     0.300 C 
BRANCH  20  21
HETATM   21  N1  UNL     1      21.307   0.776  53.315  1.00  0.00     0.096 N 
HETATM   22  C9  UNL     1      22.330   0.065  52.635  1.00  0.00     0.299 C 
HETATM   23  C10 UNL     1      23.226  -0.768  53.505  1.00  0.00     0.198 C 
HETATM   24  O3  UNL     1      22.618  -1.339  54.608  1.00  0.00    -0.388 OA
HETATM   25  C11 UNL     1      21.230  -1.263  54.546  1.00  0.00     0.198 C 
HETATM   26  C12 UNL     1      20.885   0.196  54.573  1.00  0.00     0.299 C 
ENDBRANCH  20  21
ENDBRANCH  19  20
ENDBRANCH  16  18
ENDBRANCH  15  16
ENDBRANCH   1  15
TORSDOF 8
ENDMDL
