MODEL 1
REMARK VINA RESULT:      -7.0      0.000      0.000
REMARK  5 active torsions:
REMARK  status: ('A' for Active; 'I' for Inactive)
REMARK    1  A    between atoms: O1_2  and  C2_3 
REMARK    2  A    between atoms: C2_3  and  C3_4 
REMARK    3  A    between atoms: C3_4  and  O2_22 
REMARK    4  A    between atoms: C4_5  and  C5_6 
REMARK    5  A    between atoms: N2_10  and  N3_11 
ROOT
HETATM    1  C5  UNL     1      25.355   2.352  51.673  1.00  0.00     0.083 C 
HETATM    2  C6  UNL     1      24.326   3.487  51.520  1.00  0.00     0.020 C 
HETATM    3  N1  UNL     1      23.721   4.421  52.222  1.00  0.00    -0.277 NA
HETATM    4  C7  UNL     1      22.629   3.484  52.849  1.00  0.00     0.291 C 
HETATM    5  N2  UNL     1      22.959   2.178  52.156  1.00  0.00    -0.295 N 
HETATM    6  C16 UNL     1      24.065   1.575  51.327  1.00  0.00     0.123 C 
HETATM    7  C17 UNL     1      24.117   2.727  50.203  1.00  0.00     0.083 C 
ENDROOT
BRANCH   5   8
HETATM    8  N3  UNL     1      21.831   1.357  52.378  1.00  0.00    -0.267 N 
HETATM    9  C8  UNL     1      20.685   1.677  51.708  1.00  0.00     0.116 A 
HETATM   10  C9  UNL     1      19.488   1.010  51.797  1.00  0.00     0.020 A 
HETATM   11  C10 UNL     1      19.349  -0.089  52.611  1.00  0.00     0.015 A 
HETATM   12  C11 UNL     1      20.482  -0.456  53.313  1.00  0.00    -0.007 A 
HETATM   13  C12 UNL     1      20.754  -1.468  54.214  1.00  0.00     0.014 A 
HETATM   14  C15 UNL     1      21.724   0.290  53.179  1.00  0.00     0.066 A 
HETATM   15  C13 UNL     1      22.088  -1.339  54.600  1.00  0.00     0.003 A 
HETATM   16  C14 UNL     1      22.695  -0.272  53.978  1.00  0.00     0.032 A 
ENDBRANCH   5   8
BRANCH   1  17
HETATM   17  C4  UNL     1      25.886   2.218  53.014  1.00  0.00     0.020 C 
HETATM   18  C3  UNL     1      26.680   1.173  53.295  1.00  0.00     0.066 C 
BRANCH  18  19
HETATM   19  C2  UNL     1      27.093   0.101  52.380  1.00  0.00     0.231 C 
BRANCH  19  20
HETATM   20  O1  UNL     1      26.259  -1.015  52.466  1.00  0.00    -0.390 OA
HETATM   21  C1  UNL     1      27.021  -2.202  52.518  1.00  0.00     0.201 C 
ENDBRANCH  19  20
ENDBRANCH  18  19
BRANCH  18  22
HETATM   22  O2  UNL     1      27.182   1.063  54.580  1.00  0.00    -0.358 OA
HETATM   23  C18 UNL     1      28.333   0.347  54.939  1.00  0.00     0.209 C 
ENDBRANCH  18  22
ENDBRANCH   1  17
TORSDOF 5
ENDMDL
MODEL 2
REMARK VINA RESULT:      -6.9      2.460      5.705
REMARK  5 active torsions:
REMARK  status: ('A' for Active; 'I' for Inactive)
REMARK    1  A    between atoms: O1_2  and  C2_3 
REMARK    2  A    between atoms: C2_3  and  C3_4 
REMARK    3  A    between atoms: C3_4  and  O2_22 
REMARK    4  A    between atoms: C4_5  and  C5_6 
REMARK    5  A    between atoms: N2_10  and  N3_11 
ROOT
HETATM    1  C5  UNL     1      24.261   1.727  52.614  1.00  0.00     0.083 C 
HETATM    2  C6  UNL     1      23.049   1.995  51.702  1.00  0.00     0.020 C 
HETATM    3  N1  UNL     1      22.589   1.713  50.502  1.00  0.00    -0.277 NA
HETATM    4  C7  UNL     1      23.435   2.793  49.737  1.00  0.00     0.291 C 
HETATM    5  N2  UNL     1      24.125   3.474  50.900  1.00  0.00    -0.295 N 
HETATM    6  C16 UNL     1      24.369   3.250  52.372  1.00  0.00     0.123 C 
HETATM    7  C17 UNL     1      22.828   3.049  52.796  1.00  0.00     0.083 C 
ENDROOT
BRANCH   5   8
HETATM    8  N3  UNL     1      24.636   4.676  50.363  1.00  0.00    -0.267 N 
HETATM    9  C8  UNL     1      23.883   5.802  50.531  1.00  0.00     0.116 A 
HETATM   10  C9  UNL     1      24.203   7.059  50.075  1.00  0.00     0.020 A 
HETATM   11  C10 UNL     1      25.367   7.286  49.382  1.00  0.00     0.015 A 
HETATM   12  C11 UNL     1      26.167   6.176  49.185  1.00  0.00    -0.007 A 
HETATM   13  C12 UNL     1      27.381   5.981  48.553  1.00  0.00     0.014 A 
HETATM   14  C15 UNL     1      25.777   4.868  49.690  1.00  0.00     0.066 A 
HETATM   15  C13 UNL     1      27.704   4.629  48.672  1.00  0.00     0.003 A 
HETATM   16  C14 UNL     1      26.737   3.936  49.363  1.00  0.00     0.032 A 
ENDBRANCH   5   8
BRANCH   1  17
HETATM   17  C4  UNL     1      25.267   0.874  52.017  1.00  0.00     0.020 C 
HETATM   18  C3  UNL     1      26.019   0.101  52.816  1.00  0.00     0.066 C 
BRANCH  18  19
HETATM   19  C2  UNL     1      25.951   0.008  54.279  1.00  0.00     0.231 C 
BRANCH  19  20
HETATM   20  O1  UNL     1      26.835   0.891  54.904  1.00  0.00    -0.390 OA
HETATM   21  C1  UNL     1      28.117   0.312  55.018  1.00  0.00     0.201 C 
ENDBRANCH  19  20
ENDBRANCH  18  19
BRANCH  18  22
HETATM   22  O2  UNL     1      26.974  -0.711  52.227  1.00  0.00    -0.358 OA
HETATM   23  C18 UNL     1      27.072  -2.099  52.401  1.00  0.00     0.209 C 
ENDBRANCH  18  22
ENDBRANCH   1  17
TORSDOF 5
ENDMDL
MODEL 3
REMARK VINA RESULT:      -6.9      2.550      5.910
REMARK  5 active torsions:
REMARK  status: ('A' for Active; 'I' for Inactive)
REMARK    1  A    between atoms: O1_2  and  C2_3 
REMARK    2  A    between atoms: C2_3  and  C3_4 
REMARK    3  A    between atoms: C3_4  and  O2_22 
REMARK    4  A    between atoms: C4_5  and  C5_6 
REMARK    5  A    between atoms: N2_10  and  N3_11 
ROOT
HETATM    1  C5  UNL     1      24.679   1.651  52.754  1.00  0.00     0.083 C 
HETATM    2  C6  UNL     1      23.478   2.063  51.884  1.00  0.00     0.020 C 
HETATM    3  N1  UNL     1      22.897   1.776  50.738  1.00  0.00    -0.277 NA
HETATM    4  C7  UNL     1      23.869   2.619  49.838  1.00  0.00     0.291 C 
HETATM    5  N2  UNL     1      24.745   3.251  50.899  1.00  0.00    -0.295 N 
HETATM    6  C16 UNL     1      25.041   3.104  52.370  1.00  0.00     0.123 C 
HETATM    7  C17 UNL     1      23.520   3.224  52.888  1.00  0.00     0.083 C 
ENDROOT
BRANCH   5   8
HETATM    8  N3  UNL     1      25.425   4.293  50.230  1.00  0.00    -0.267 N 
HETATM    9  C8  UNL     1      26.508   3.946  49.474  1.00  0.00     0.116 A 
HETATM   10  C9  UNL     1      27.301   4.811  48.760  1.00  0.00     0.020 A 
HETATM   11  C10 UNL     1      27.049   6.161  48.753  1.00  0.00     0.015 A 
HETATM   12  C11 UNL     1      25.961   6.566  49.503  1.00  0.00    -0.007 A 
HETATM   13  C12 UNL     1      25.388   7.799  49.756  1.00  0.00     0.014 A 
HETATM   14  C15 UNL     1      25.156   5.605  50.241  1.00  0.00     0.066 A 
HETATM   15  C13 UNL     1      24.297   7.589  50.600  1.00  0.00     0.003 A 
HETATM   16  C14 UNL     1      24.141   6.257  50.905  1.00  0.00     0.032 A 
ENDBRANCH   5   8
BRANCH   1  17
HETATM   17  C4  UNL     1      25.476   0.583  52.186  1.00  0.00     0.020 C 
HETATM   18  C3  UNL     1      26.547   0.142  52.865  1.00  0.00     0.066 C 
BRANCH  18  19
HETATM   19  C2  UNL     1      27.035   0.626  54.161  1.00  0.00     0.231 C 
BRANCH  19  20
HETATM   20  O1  UNL     1      28.375   1.015  54.107  1.00  0.00    -0.390 OA
HETATM   21  C1  UNL     1      28.493   2.319  53.578  1.00  0.00     0.201 C 
ENDBRANCH  19  20
ENDBRANCH  18  19
BRANCH  18  22
HETATM   22  O2  UNL     1      27.294  -0.881  52.308  1.00  0.00    -0.358 OA
HETATM   23  C18 UNL     1      27.083  -2.250  52.533  1.00  0.00     0.209 C 
ENDBRANCH  18  22
ENDBRANCH   1  17
TORSDOF 5
ENDMDL
MODEL 4
REMARK VINA RESULT:      -6.8      3.353      5.270
REMARK  5 active torsions:
REMARK  status: ('A' for Active; 'I' for Inactive)
REMARK    1  A    between atoms: O1_2  and  C2_3 
REMARK    2  A    between atoms: C2_3  and  C3_4 
REMARK    3  A    between atoms: C3_4  and  O2_22 
REMARK    4  A    between atoms: C4_5  and  C5_6 
REMARK    5  A    between atoms: N2_10  and  N3_11 
ROOT
HETATM    1  C5  UNL     1      23.722   4.192  49.441  1.00  0.00     0.083 C 
HETATM    2  C6  UNL     1      22.958   4.662  50.693  1.00  0.00     0.020 C 
HETATM    3  N1  UNL     1      23.153   5.278  51.840  1.00  0.00    -0.277 NA
HETATM    4  C7  UNL     1      23.702   4.027  52.615  1.00  0.00     0.291 C 
HETATM    5  N2  UNL     1      23.548   2.959  51.552  1.00  0.00    -0.295 N 
HETATM    6  C16 UNL     1      23.278   2.852  50.072  1.00  0.00     0.123 C 
HETATM    7  C17 UNL     1      21.923   3.724  50.058  1.00  0.00     0.083 C 
ENDROOT
BRANCH   5   8
HETATM    8  N3  UNL     1      23.682   1.736  52.248  1.00  0.00    -0.267 N 
HETATM    9  C8  UNL     1      22.580   1.271  52.907  1.00  0.00     0.116 A 
HETATM   10  C9  UNL     1      22.513   0.113  53.643  1.00  0.00     0.020 A 
HETATM   11  C10 UNL     1      23.608  -0.706  53.776  1.00  0.00     0.015 A 
HETATM   12  C11 UNL     1      24.752  -0.280  53.126  1.00  0.00    -0.007 A 
HETATM   13  C12 UNL     1      26.029  -0.796  53.015  1.00  0.00     0.014 A 
HETATM   14  C15 UNL     1      24.764   0.957  52.361  1.00  0.00     0.066 A 
HETATM   15  C13 UNL     1      26.770   0.083  52.225  1.00  0.00     0.003 A 
HETATM   16  C14 UNL     1      26.014   1.157  51.816  1.00  0.00     0.032 A 
ENDBRANCH   5   8
BRANCH   1  17
HETATM   17  C4  UNL     1      25.134   4.513  49.460  1.00  0.00     0.020 C 
HETATM   18  C3  UNL     1      25.541   5.677  48.931  1.00  0.00     0.066 C 
BRANCH  18  19
HETATM   19  C2  UNL     1      24.704   6.707  48.305  1.00  0.00     0.231 C 
BRANCH  19  20
HETATM   20  O1  UNL     1      24.983   7.984  48.798  1.00  0.00    -0.390 OA
HETATM   21  C1  UNL     1      24.322   8.197  50.027  1.00  0.00     0.201 C 
ENDBRANCH  19  20
ENDBRANCH  18  19
BRANCH  18  22
HETATM   22  O2  UNL     1      26.894   5.969  48.961  1.00  0.00    -0.358 OA
HETATM   23  C18 UNL     1      27.915   5.111  48.527  1.00  0.00     0.209 C 
ENDBRANCH  18  22
ENDBRANCH   1  17
TORSDOF 5
ENDMDL
MODEL 5
REMARK VINA RESULT:      -6.8      2.818      5.916
REMARK  5 active torsions:
REMARK  status: ('A' for Active; 'I' for Inactive)
REMARK    1  A    between atoms: O1_2  and  C2_3 
REMARK    2  A    between atoms: C2_3  and  C3_4 
REMARK    3  A    between atoms: C3_4  and  O2_22 
REMARK    4  A    between atoms: C4_5  and  C5_6 
REMARK    5  A    between atoms: N2_10  and  N3_11 
ROOT
HETATM    1  C5  UNL     1      24.159   2.230  52.335  1.00  0.00     0.083 C 
HETATM    2  C6  UNL     1      23.009   2.291  51.313  1.00  0.00     0.020 C 
HETATM    3  N1  UNL     1      22.658   1.815  50.136  1.00  0.00    -0.277 NA
HETATM    4  C7  UNL     1      23.501   2.830  49.284  1.00  0.00     0.291 C 
HETATM    5  N2  UNL     1      24.063   3.709  50.382  1.00  0.00    -0.295 N 
HETATM    6  C16 UNL     1      24.204   3.708  51.883  1.00  0.00     0.123 C 
HETATM    7  C17 UNL     1      22.648   3.471  52.225  1.00  0.00     0.083 C 
ENDROOT
BRANCH   5   8
HETATM    8  N3  UNL     1      24.549   4.854  49.714  1.00  0.00    -0.267 N 
HETATM    9  C8  UNL     1      23.669   5.879  49.514  1.00  0.00     0.116 A 
HETATM   10  C9  UNL     1      23.947   7.065  48.879  1.00  0.00     0.020 A 
HETATM   11  C10 UNL     1      25.198   7.322  48.374  1.00  0.00     0.015 A 
HETATM   12  C11 UNL     1      26.128   6.315  48.551  1.00  0.00    -0.007 A 
HETATM   13  C12 UNL     1      27.458   6.178  48.198  1.00  0.00     0.014 A 
HETATM   14  C15 UNL     1      25.777   5.078  49.230  1.00  0.00     0.066 A 
HETATM   15  C13 UNL     1      27.884   4.927  48.643  1.00  0.00     0.003 A 
HETATM   16  C14 UNL     1      26.871   4.242  49.275  1.00  0.00     0.032 A 
ENDBRANCH   5   8
BRANCH   1  17
HETATM   17  C4  UNL     1      25.253   1.368  51.937  1.00  0.00     0.020 C 
HETATM   18  C3  UNL     1      25.447   0.219  52.602  1.00  0.00     0.066 C 
BRANCH  18  19
HETATM   19  C2  UNL     1      24.662  -0.296  53.730  1.00  0.00     0.231 C 
BRANCH  19  20
HETATM   20  O1  UNL     1      23.480  -0.911  53.312  1.00  0.00    -0.390 OA
HETATM   21  C1  UNL     1      22.497  -0.837  54.323  1.00  0.00     0.201 C 
ENDBRANCH  19  20
ENDBRANCH  18  19
BRANCH  18  22
HETATM   22  O2  UNL     1      26.494  -0.594  52.205  1.00  0.00    -0.358 OA
HETATM   23  C18 UNL     1      27.597  -0.936  53.002  1.00  0.00     0.209 C 
ENDBRANCH  18  22
ENDBRANCH   1  17
TORSDOF 5
ENDMDL
MODEL 6
REMARK VINA RESULT:      -6.7      2.900      4.610
REMARK  5 active torsions:
REMARK  status: ('A' for Active; 'I' for Inactive)
REMARK    1  A    between atoms: O1_2  and  C2_3 
REMARK    2  A    between atoms: C2_3  and  C3_4 
REMARK    3  A    between atoms: C3_4  and  O2_22 
REMARK    4  A    between atoms: C4_5  and  C5_6 
REMARK    5  A    between atoms: N2_10  and  N3_11 
ROOT
HETATM    1  C5  UNL     1      24.054   3.202  49.900  1.00  0.00     0.083 C 
HETATM    2  C6  UNL     1      23.447   3.947  51.104  1.00  0.00     0.020 C 
HETATM    3  N1  UNL     1      23.803   4.644  52.162  1.00  0.00    -0.277 NA
HETATM    4  C7  UNL     1      24.154   3.412  53.070  1.00  0.00     0.291 C 
HETATM    5  N2  UNL     1      23.760   2.274  52.150  1.00  0.00    -0.295 N 
HETATM    6  C16 UNL     1      23.407   2.049  50.701  1.00  0.00     0.123 C 
HETATM    7  C17 UNL     1      22.231   3.147  50.615  1.00  0.00     0.083 C 
ENDROOT
BRANCH   5   8
HETATM    8  N3  UNL     1      23.705   1.137  52.986  1.00  0.00    -0.267 N 
HETATM    9  C8  UNL     1      24.895   0.585  53.366  1.00  0.00     0.116 A 
HETATM   10  C9  UNL     1      25.049  -0.522  54.165  1.00  0.00     0.020 A 
HETATM   11  C10 UNL     1      23.959  -1.190  54.667  1.00  0.00     0.015 A 
HETATM   12  C11 UNL     1      22.728  -0.670  54.313  1.00  0.00    -0.007 A 
HETATM   13  C12 UNL     1      21.426  -1.036  54.596  1.00  0.00     0.014 A 
HETATM   14  C15 UNL     1      22.625   0.506  53.463  1.00  0.00     0.066 A 
HETATM   15  C13 UNL     1      20.585  -0.129  53.952  1.00  0.00     0.003 A 
HETATM   16  C14 UNL     1      21.300   0.819  53.256  1.00  0.00     0.032 A 
ENDBRANCH   5   8
BRANCH   1  17
HETATM   17  C4  UNL     1      25.500   3.258  49.844  1.00  0.00     0.020 C 
HETATM   18  C3  UNL     1      26.088   4.372  49.381  1.00  0.00     0.066 C 
BRANCH  18  19
HETATM   19  C2  UNL     1      25.425   5.590  48.900  1.00  0.00     0.231 C 
BRANCH  19  20
HETATM   20  O1  UNL     1      25.442   6.610  49.854  1.00  0.00    -0.390 OA
HETATM   21  C1  UNL     1      25.102   7.846  49.264  1.00  0.00     0.201 C 
ENDBRANCH  19  20
ENDBRANCH  18  19
BRANCH  18  22
HETATM   22  O2  UNL     1      27.471   4.409  49.338  1.00  0.00    -0.358 OA
HETATM   23  C18 UNL     1      28.230   5.172  48.439  1.00  0.00     0.209 C 
ENDBRANCH  18  22
ENDBRANCH   1  17
TORSDOF 5
ENDMDL
MODEL 7
REMARK VINA RESULT:      -6.7      2.510      6.005
REMARK  5 active torsions:
REMARK  status: ('A' for Active; 'I' for Inactive)
REMARK    1  A    between atoms: O1_2  and  C2_3 
REMARK    2  A    between atoms: C2_3  and  C3_4 
REMARK    3  A    between atoms: C3_4  and  O2_22 
REMARK    4  A    between atoms: C4_5  and  C5_6 
REMARK    5  A    between atoms: N2_10  and  N3_11 
ROOT
HETATM    1  C5  UNL     1      23.351   2.713  52.330  1.00  0.00     0.083 C 
HETATM    2  C6  UNL     1      24.413   3.741  51.898  1.00  0.00     0.020 C 
HETATM    3  N1  UNL     1      25.152   4.075  50.862  1.00  0.00    -0.277 NA
HETATM    4  C7  UNL     1      26.263   2.987  51.085  1.00  0.00     0.291 C 
HETATM    5  N2  UNL     1      25.777   2.363  52.377  1.00  0.00    -0.295 N 
HETATM    6  C16 UNL     1      24.544   2.351  53.245  1.00  0.00     0.123 C 
HETATM    7  C17 UNL     1      24.412   3.947  53.419  1.00  0.00     0.083 C 
ENDROOT
BRANCH   5   8
HETATM    8  N3  UNL     1      26.877   1.615  52.852  1.00  0.00    -0.267 N 
HETATM    9  C8  UNL     1      27.885   2.307  53.460  1.00  0.00     0.116 A 
HETATM   10  C9  UNL     1      29.036   1.764  53.976  1.00  0.00     0.020 A 
HETATM   11  C10 UNL     1      29.269   0.411  53.917  1.00  0.00     0.015 A 
HETATM   12  C11 UNL     1      28.277  -0.337  53.311  1.00  0.00    -0.007 A 
HETATM   13  C12 UNL     1      28.129  -1.687  53.053  1.00  0.00     0.014 A 
HETATM   14  C15 UNL     1      27.078   0.294  52.781  1.00  0.00     0.066 A 
HETATM   15  C13 UNL     1      26.907  -1.859  52.403  1.00  0.00     0.003 A 
HETATM   16  C14 UNL     1      26.253  -0.661  52.230  1.00  0.00     0.032 A 
ENDBRANCH   5   8
BRANCH   1  17
HETATM   17  C4  UNL     1      22.988   1.772  51.290  1.00  0.00     0.020 C 
HETATM   18  C3  UNL     1      21.762   1.228  51.308  1.00  0.00     0.066 C 
BRANCH  18  19
HETATM   19  C2  UNL     1      20.699   1.470  52.291  1.00  0.00     0.231 C 
BRANCH  19  20
HETATM   20  O1  UNL     1      20.711   0.530  53.323  1.00  0.00    -0.390 OA
HETATM   21  C1  UNL     1      19.570  -0.299  53.253  1.00  0.00     0.201 C 
ENDBRANCH  19  20
ENDBRANCH  18  19
BRANCH  18  22
HETATM   22  O2  UNL     1      21.430   0.334  50.305  1.00  0.00    -0.358 OA
HETATM   23  C18 UNL     1      21.412   0.630  48.934  1.00  0.00     0.209 C 
ENDBRANCH  18  22
ENDBRANCH   1  17
TORSDOF 5
ENDMDL
MODEL 8
REMARK VINA RESULT:      -6.7      2.250      4.214
REMARK  5 active torsions:
REMARK  status: ('A' for Active; 'I' for Inactive)
REMARK    1  A    between atoms: O1_2  and  C2_3 
REMARK    2  A    between atoms: C2_3  and  C3_4 
REMARK    3  A    between atoms: C3_4  and  O2_22 
REMARK    4  A    between atoms: C4_5  and  C5_6 
REMARK    5  A    between atoms: N2_10  and  N3_11 
ROOT
HETATM    1  C5  UNL     1      25.968   1.037  52.393  1.00  0.00     0.083 C 
HETATM    2  C6  UNL     1      25.479   2.460  52.723  1.00  0.00     0.020 C 
HETATM    3  N1  UNL     1      24.607   3.093  53.478  1.00  0.00    -0.277 NA
HETATM    4  C7  UNL     1      23.368   2.859  52.542  1.00  0.00     0.291 C 
HETATM    5  N2  UNL     1      24.034   2.151  51.380  1.00  0.00    -0.295 N 
HETATM    6  C16 UNL     1      25.346   1.485  51.051  1.00  0.00     0.123 C 
HETATM    7  C17 UNL     1      26.298   2.721  51.451  1.00  0.00     0.083 C 
ENDROOT
BRANCH   5   8
HETATM    8  N3  UNL     1      23.085   2.203  50.335  1.00  0.00    -0.267 N 
HETATM    9  C8  UNL     1      22.188   1.177  50.256  1.00  0.00     0.116 A 
HETATM   10  C9  UNL     1      21.199   1.044  49.311  1.00  0.00     0.020 A 
HETATM   11  C10 UNL     1      21.032   1.984  48.324  1.00  0.00     0.015 A 
HETATM   12  C11 UNL     1      21.917   3.047  48.358  1.00  0.00    -0.007 A 
HETATM   13  C12 UNL     1      22.085   4.168  47.568  1.00  0.00     0.014 A 
HETATM   14  C15 UNL     1      22.945   3.135  49.383  1.00  0.00     0.066 A 
HETATM   15  C13 UNL     1      23.156   4.893  48.091  1.00  0.00     0.003 A 
HETATM   16  C14 UNL     1      23.692   4.277  49.199  1.00  0.00     0.032 A 
ENDBRANCH   5   8
BRANCH   1  17
HETATM   17  C4  UNL     1      25.290  -0.004  53.138  1.00  0.00     0.020 C 
HETATM   18  C3  UNL     1      25.750  -0.334  54.355  1.00  0.00     0.066 C 
BRANCH  18  19
HETATM   19  C2  UNL     1      26.903   0.245  55.054  1.00  0.00     0.231 C 
BRANCH  19  20
HETATM   20  O1  UNL     1      28.060  -0.516  54.881  1.00  0.00    -0.390 OA
HETATM   21  C1  UNL     1      29.073   0.253  54.267  1.00  0.00     0.201 C 
ENDBRANCH  19  20
ENDBRANCH  18  19
BRANCH  18  22
HETATM   22  O2  UNL     1      25.087  -1.328  55.054  1.00  0.00    -0.358 OA
HETATM   23  C18 UNL     1      23.726  -1.306  55.395  1.00  0.00     0.209 C 
ENDBRANCH  18  22
ENDBRANCH   1  17
TORSDOF 5
ENDMDL
MODEL 9
REMARK VINA RESULT:      -6.5      2.402      5.533
REMARK  5 active torsions:
REMARK  status: ('A' for Active; 'I' for Inactive)
REMARK    1  A    between atoms: O1_2  and  C2_3 
REMARK    2  A    between atoms: C2_3  and  C3_4 
REMARK    3  A    between atoms: C3_4  and  O2_22 
REMARK    4  A    between atoms: C4_5  and  C5_6 
REMARK    5  A    between atoms: N2_10  and  N3_11 
ROOT
HETATM    1  C5  UNL     1      25.191  -0.651  53.283  1.00  0.00     0.083 C 
HETATM    2  C6  UNL     1      26.437   0.202  53.586  1.00  0.00     0.020 C 
HETATM    3  N1  UNL     1      26.920   1.023  54.493  1.00  0.00    -0.277 NA
HETATM    4  C7  UNL     1      26.139   2.295  54.007  1.00  0.00     0.291 C 
HETATM    5  N2  UNL     1      25.442   1.736  52.784  1.00  0.00    -0.295 N 
HETATM    6  C16 UNL     1      25.148   0.399  52.150  1.00  0.00     0.123 C 
HETATM    7  C17 UNL     1      26.667  -0.134  52.105  1.00  0.00     0.083 C 
ENDROOT
BRANCH   5   8
HETATM    8  N3  UNL     1      24.992   2.872  52.074  1.00  0.00    -0.267 N 
HETATM    9  C8  UNL     1      23.863   3.486  52.533  1.00  0.00     0.116 A 
HETATM   10  C9  UNL     1      23.267   4.592  51.977  1.00  0.00     0.020 A 
HETATM   11  C10 UNL     1      23.793   5.194  50.859  1.00  0.00     0.015 A 
HETATM   12  C11 UNL     1      24.940   4.610  50.354  1.00  0.00    -0.007 A 
HETATM   13  C12 UNL     1      25.755   4.896  49.275  1.00  0.00     0.014 A 
HETATM   14  C15 UNL     1      25.527   3.438  50.985  1.00  0.00     0.066 A 
HETATM   15  C13 UNL     1      26.777   3.947  49.258  1.00  0.00     0.003 A 
HETATM   16  C14 UNL     1      26.654   3.050  50.294  1.00  0.00     0.032 A 
ENDBRANCH   5   8
BRANCH   1  17
HETATM   17  C4  UNL     1      24.170  -0.581  54.308  1.00  0.00     0.020 C 
HETATM   18  C3  UNL     1      22.880  -0.647  53.943  1.00  0.00     0.066 C 
BRANCH  18  19
HETATM   19  C2  UNL     1      22.349  -0.783  52.582  1.00  0.00     0.231 C 
BRANCH  19  20
HETATM   20  O1  UNL     1      22.057   0.455  52.005  1.00  0.00    -0.390 OA
HETATM   21  C1  UNL     1      21.001   0.333  51.076  1.00  0.00     0.201 C 
ENDBRANCH  19  20
ENDBRANCH  18  19
BRANCH  18  22
HETATM   22  O2  UNL     1      21.918  -0.583  54.937  1.00  0.00    -0.358 OA
HETATM   23  C18 UNL     1      20.781   0.238  54.907  1.00  0.00     0.209 C 
ENDBRANCH  18  22
ENDBRANCH   1  17
TORSDOF 5
ENDMDL
