MODEL 1
REMARK VINA RESULT:      -7.5      0.000      0.000
REMARK  8 active torsions:
REMARK  status: ('A' for Active; 'I' for Inactive)
REMARK    1  A    between atoms: C2_2  and  O1_3 
REMARK    2  A    between atoms: O1_3  and  C3_4 
REMARK    3  A    between atoms: C6_7  and  C7_8 
REMARK    4  A    between atoms: C7_8  and  C8_9 
REMARK    5  A    between atoms: C10_12  and  C11_13 
REMARK    6  A    between atoms: C11_13  and  S1_14 
REMARK    7  A    between atoms: S1_14  and  C12_15 
REMARK    8  A    between atoms: C18_21  and  O3_22 
ROOT
HETATM    1  C3  UNL     1      26.698   1.349  53.618  1.00  0.00     0.102 A 
HETATM    2  C4  UNL     1      25.602   0.644  53.929  1.00  0.00     0.046 A 
HETATM    3  C5  UNL     1      24.476   0.593  53.007  1.00  0.00    -0.055 A 
HETATM    4  C6  UNL     1      23.395  -0.095  53.320  1.00  0.00    -0.013 C 
HETATM    5  C9  UNL     1      24.477   1.291  51.701  1.00  0.00     0.076 A 
HETATM    6  C10 UNL     1      25.756   2.010  51.537  1.00  0.00    -0.030 A 
HETATM    7  C18 UNL     1      26.766   2.062  52.360  1.00  0.00     0.102 A 
ENDROOT
BRANCH   6   8
HETATM    8  C11 UNL     1      25.750   2.721  50.232  1.00  0.00     0.116 C 
BRANCH   8   9
HETATM    9  S1  UNL     1      25.146   4.404  50.313  1.00  0.00    -0.126 SA
BRANCH   9  10
HETATM   10  C12 UNL     1      26.209   5.491  49.340  1.00  0.00     0.000 A 
HETATM   11  C13 UNL     1      25.966   6.779  48.935  1.00  0.00     0.018 A 
HETATM   12  C14 UNL     1      26.919   7.439  48.189  1.00  0.00     0.001 A 
HETATM   13  C15 UNL     1      28.106   6.789  47.863  1.00  0.00     0.000 A 
HETATM   14  C16 UNL     1      28.374   5.494  48.259  1.00  0.00     0.001 A 
HETATM   15  C17 UNL     1      27.399   4.848  49.009  1.00  0.00     0.018 A 
ENDBRANCH   9  10
ENDBRANCH   8   9
ENDBRANCH   6   8
BRANCH   7  16
HETATM   16  O3  UNL     1      27.886   2.808  52.001  1.00  0.00    -0.358 OA
HETATM   17  H20 UNL     1      27.766   3.431  51.208  1.00  0.00     0.217 HD
ENDBRANCH   7  16
BRANCH   1  18
HETATM   18  O1  UNL     1      27.794   1.437  54.449  1.00  0.00    -0.349 OA
BRANCH  18  19
HETATM   19  C2  UNL     1      28.545   0.338  54.903  1.00  0.00     0.171 C 
HETATM   20  C1  UNL     1      29.468  -0.118  53.781  1.00  0.00     0.034 C 
ENDBRANCH  18  19
ENDBRANCH   1  18
BRANCH   4  21
HETATM   21  C7  UNL     1      23.076  -0.891  54.528  1.00  0.00     0.097 C 
BRANCH  21  22
HETATM   22  C8  UNL     1      21.603  -1.212  54.590  1.00  0.00     0.234 C 
HETATM   23  O2  UNL     1      20.637  -1.978  54.658  1.00  0.00    -0.307 OA
ENDBRANCH  21  22
ENDBRANCH   4  21
TORSDOF 8
ENDMDL
MODEL 2
REMARK VINA RESULT:      -7.4      2.935      7.143
REMARK  8 active torsions:
REMARK  status: ('A' for Active; 'I' for Inactive)
REMARK    1  A    between atoms: C2_2  and  O1_3 
REMARK    2  A    between atoms: O1_3  and  C3_4 
REMARK    3  A    between atoms: C6_7  and  C7_8 
REMARK    4  A    between atoms: C7_8  and  C8_9 
REMARK    5  A    between atoms: C10_12  and  C11_13 
REMARK    6  A    between atoms: C11_13  and  S1_14 
REMARK    7  A    between atoms: S1_14  and  C12_15 
REMARK    8  A    between atoms: C18_21  and  O3_22 
ROOT
HETATM    1  C3  UNL     1      26.243  -0.045  54.256  1.00  0.00     0.102 A 
HETATM    2  C4  UNL     1      26.297   0.822  53.237  1.00  0.00     0.046 A 
HETATM    3  C5  UNL     1      25.104   1.104  52.450  1.00  0.00    -0.055 A 
HETATM    4  C6  UNL     1      25.163   1.953  51.442  1.00  0.00    -0.013 C 
HETATM    5  C9  UNL     1      23.794   0.471  52.724  1.00  0.00     0.076 A 
HETATM    6  C10 UNL     1      23.931  -0.449  53.871  1.00  0.00    -0.030 A 
HETATM    7  C18 UNL     1      24.996  -0.707  54.579  1.00  0.00     0.102 A 
ENDROOT
BRANCH   6   8
HETATM    8  C11 UNL     1      22.619  -1.093  54.137  1.00  0.00     0.116 C 
BRANCH   8   9
HETATM    9  S1  UNL     1      21.293   0.056  54.490  1.00  0.00    -0.126 SA
BRANCH   9  10
HETATM   10  C12 UNL     1      19.960  -0.148  53.289  1.00  0.00     0.000 A 
HETATM   11  C13 UNL     1      18.833  -0.924  53.392  1.00  0.00     0.018 A 
HETATM   12  C14 UNL     1      17.931  -0.940  52.350  1.00  0.00     0.001 A 
HETATM   13  C15 UNL     1      18.180  -0.170  51.217  1.00  0.00     0.000 A 
HETATM   14  C16 UNL     1      19.305   0.618  51.089  1.00  0.00     0.001 A 
HETATM   15  C17 UNL     1      20.201   0.619  52.152  1.00  0.00     0.018 A 
ENDBRANCH   9  10
ENDBRANCH   8   9
ENDBRANCH   6   8
BRANCH   7  16
HETATM   16  O3  UNL     1      24.900  -1.617  55.628  1.00  0.00    -0.358 OA
HETATM   17  H20 UNL     1      24.607  -1.231  56.522  1.00  0.00     0.217 HD
ENDBRANCH   7  16
BRANCH   1  18
HETATM   18  O1  UNL     1      27.336  -0.354  55.037  1.00  0.00    -0.349 OA
BRANCH  18  19
HETATM   19  C2  UNL     1      28.633   0.153  54.837  1.00  0.00     0.171 C 
HETATM   20  C1  UNL     1      29.399  -0.809  53.940  1.00  0.00     0.034 C 
ENDBRANCH  18  19
ENDBRANCH   1  18
BRANCH   4  21
HETATM   21  C7  UNL     1      26.300   2.740  50.910  1.00  0.00     0.097 C 
BRANCH  21  22
HETATM   22  C8  UNL     1      25.859   3.619  49.765  1.00  0.00     0.234 C 
HETATM   23  O2  UNL     1      25.653   4.706  49.218  1.00  0.00    -0.307 OA
ENDBRANCH  21  22
ENDBRANCH   4  21
TORSDOF 8
ENDMDL
MODEL 3
REMARK VINA RESULT:      -7.3      2.063      2.913
REMARK  8 active torsions:
REMARK  status: ('A' for Active; 'I' for Inactive)
REMARK    1  A    between atoms: C2_2  and  O1_3 
REMARK    2  A    between atoms: O1_3  and  C3_4 
REMARK    3  A    between atoms: C6_7  and  C7_8 
REMARK    4  A    between atoms: C7_8  and  C8_9 
REMARK    5  A    between atoms: C10_12  and  C11_13 
REMARK    6  A    between atoms: C11_13  and  S1_14 
REMARK    7  A    between atoms: S1_14  and  C12_15 
REMARK    8  A    between atoms: C18_21  and  O3_22 
ROOT
HETATM    1  C3  UNL     1      26.890   1.263  53.735  1.00  0.00     0.102 A 
HETATM    2  C4  UNL     1      25.771   0.567  53.974  1.00  0.00     0.046 A 
HETATM    3  C5  UNL     1      24.644   0.651  53.054  1.00  0.00    -0.055 A 
HETATM    4  C6  UNL     1      23.540  -0.029  53.297  1.00  0.00    -0.013 C 
HETATM    5  C9  UNL     1      24.670   1.483  51.830  1.00  0.00     0.076 A 
HETATM    6  C10 UNL     1      25.973   2.172  51.738  1.00  0.00    -0.030 A 
HETATM    7  C18 UNL     1      26.984   2.103  52.559  1.00  0.00     0.102 A 
ENDROOT
BRANCH   6   8
HETATM    8  C11 UNL     1      25.992   3.016  50.515  1.00  0.00     0.116 C 
BRANCH   8   9
HETATM    9  S1  UNL     1      24.671   4.221  50.432  1.00  0.00    -0.126 SA
BRANCH   9  10
HETATM   10  C12 UNL     1      23.570   3.839  49.053  1.00  0.00     0.000 A 
HETATM   11  C13 UNL     1      23.078   2.617  48.670  1.00  0.00     0.018 A 
HETATM   12  C14 UNL     1      22.244   2.543  47.575  1.00  0.00     0.001 A 
HETATM   13  C15 UNL     1      21.917   3.705  46.882  1.00  0.00     0.000 A 
HETATM   14  C16 UNL     1      22.399   4.946  47.248  1.00  0.00     0.001 A 
HETATM   15  C17 UNL     1      23.238   4.997  48.354  1.00  0.00     0.018 A 
ENDBRANCH   9  10
ENDBRANCH   8   9
ENDBRANCH   6   8
BRANCH   7  16
HETATM   16  O3  UNL     1      28.129   2.843  52.277  1.00  0.00    -0.358 OA
HETATM   17  H20 UNL     1      28.245   3.124  51.308  1.00  0.00     0.217 HD
ENDBRANCH   7  16
BRANCH   1  18
HETATM   18  O1  UNL     1      27.988   1.225  54.567  1.00  0.00    -0.349 OA
BRANCH  18  19
HETATM   19  C2  UNL     1      28.712   0.063  54.886  1.00  0.00     0.171 C 
HETATM   20  C1  UNL     1      29.550  -0.336  53.680  1.00  0.00     0.034 C 
ENDBRANCH  18  19
ENDBRANCH   1  18
BRANCH   4  21
HETATM   21  C7  UNL     1      23.194  -0.936  54.415  1.00  0.00     0.097 C 
BRANCH  21  22
HETATM   22  C8  UNL     1      21.707  -1.189  54.465  1.00  0.00     0.234 C 
HETATM   23  O2  UNL     1      20.707  -1.893  54.635  1.00  0.00    -0.307 OA
ENDBRANCH  21  22
ENDBRANCH   4  21
TORSDOF 8
ENDMDL
MODEL 4
REMARK VINA RESULT:      -7.1      1.901      4.323
REMARK  8 active torsions:
REMARK  status: ('A' for Active; 'I' for Inactive)
REMARK    1  A    between atoms: C2_2  and  O1_3 
REMARK    2  A    between atoms: O1_3  and  C3_4 
REMARK    3  A    between atoms: C6_7  and  C7_8 
REMARK    4  A    between atoms: C7_8  and  C8_9 
REMARK    5  A    between atoms: C10_12  and  C11_13 
REMARK    6  A    between atoms: C11_13  and  S1_14 
REMARK    7  A    between atoms: S1_14  and  C12_15 
REMARK    8  A    between atoms: C18_21  and  O3_22 
ROOT
HETATM    1  C3  UNL     1      23.397   0.971  52.957  1.00  0.00     0.102 A 
HETATM    2  C4  UNL     1      24.578   0.340  52.919  1.00  0.00     0.046 A 
HETATM    3  C5  UNL     1      25.738   0.988  52.322  1.00  0.00    -0.055 A 
HETATM    4  C6  UNL     1      26.897   0.361  52.279  1.00  0.00    -0.013 C 
HETATM    5  C9  UNL     1      25.685   2.349  51.742  1.00  0.00     0.076 A 
HETATM    6  C10 UNL     1      24.313   2.879  51.872  1.00  0.00    -0.030 A 
HETATM    7  C18 UNL     1      23.270   2.303  52.403  1.00  0.00     0.102 A 
ENDROOT
BRANCH   6   8
HETATM    8  C11 UNL     1      24.258   4.240  51.278  1.00  0.00     0.116 C 
BRANCH   8   9
HETATM    9  S1  UNL     1      24.378   4.269  49.493  1.00  0.00    -0.126 SA
BRANCH   9  10
HETATM   10  C12 UNL     1      25.953   4.994  48.989  1.00  0.00     0.000 A 
HETATM   11  C13 UNL     1      27.186   4.396  48.933  1.00  0.00     0.018 A 
HETATM   12  C14 UNL     1      28.273   5.135  48.518  1.00  0.00     0.001 A 
HETATM   13  C15 UNL     1      28.099   6.470  48.163  1.00  0.00     0.000 A 
HETATM   14  C16 UNL     1      26.868   7.095  48.211  1.00  0.00     0.001 A 
HETATM   15  C17 UNL     1      25.787   6.330  48.633  1.00  0.00     0.018 A 
ENDBRANCH   9  10
ENDBRANCH   8   9
ENDBRANCH   6   8
BRANCH   7  16
HETATM   16  O3  UNL     1      22.060   2.991  52.421  1.00  0.00    -0.358 OA
HETATM   17  H20 UNL     1      21.962   3.693  53.148  1.00  0.00     0.217 HD
ENDBRANCH   7  16
BRANCH   1  18
HETATM   18  O1  UNL     1      22.265   0.410  53.508  1.00  0.00    -0.349 OA
BRANCH  18  19
HETATM   19  C2  UNL     1      21.936  -0.955  53.446  1.00  0.00     0.171 C 
HETATM   20  C1  UNL     1      22.009  -1.539  54.850  1.00  0.00     0.034 C 
ENDBRANCH  18  19
ENDBRANCH   1  18
BRANCH   4  21
HETATM   21  C7  UNL     1      27.282  -0.987  52.759  1.00  0.00     0.097 C 
BRANCH  21  22
HETATM   22  C8  UNL     1      28.680  -0.980  53.327  1.00  0.00     0.234 C 
HETATM   23  O2  UNL     1      29.765  -0.455  53.596  1.00  0.00    -0.307 OA
ENDBRANCH  21  22
ENDBRANCH   4  21
TORSDOF 8
ENDMDL
MODEL 5
REMARK VINA RESULT:      -6.9      2.532      6.983
REMARK  8 active torsions:
REMARK  status: ('A' for Active; 'I' for Inactive)
REMARK    1  A    between atoms: C2_2  and  O1_3 
REMARK    2  A    between atoms: O1_3  and  C3_4 
REMARK    3  A    between atoms: C6_7  and  C7_8 
REMARK    4  A    between atoms: C7_8  and  C8_9 
REMARK    5  A    between atoms: C10_12  and  C11_13 
REMARK    6  A    between atoms: C11_13  and  S1_14 
REMARK    7  A    between atoms: S1_14  and  C12_15 
REMARK    8  A    between atoms: C18_21  and  O3_22 
ROOT
HETATM    1  C3  UNL     1      25.825   3.235  50.415  1.00  0.00     0.102 A 
HETATM    2  C4  UNL     1      26.564   2.547  51.294  1.00  0.00     0.046 A 
HETATM    3  C5  UNL     1      26.010   2.182  52.591  1.00  0.00    -0.055 A 
HETATM    4  C6  UNL     1      26.744   1.511  53.458  1.00  0.00    -0.013 C 
HETATM    5  C9  UNL     1      24.632   2.533  53.003  1.00  0.00     0.076 A 
HETATM    6  C10 UNL     1      23.978   3.286  51.913  1.00  0.00    -0.030 A 
HETATM    7  C18 UNL     1      24.469   3.618  50.751  1.00  0.00     0.102 A 
ENDROOT
BRANCH   6   8
HETATM    8  C11 UNL     1      22.600   3.650  52.332  1.00  0.00     0.116 C 
BRANCH   8   9
HETATM    9  S1  UNL     1      21.351   2.454  51.871  1.00  0.00    -0.126 SA
BRANCH   9  10
HETATM   10  C12 UNL     1      21.460   1.001  52.939  1.00  0.00     0.000 A 
HETATM   11  C13 UNL     1      20.848   0.785  54.147  1.00  0.00     0.018 A 
HETATM   12  C14 UNL     1      21.067  -0.404  54.807  1.00  0.00     0.001 A 
HETATM   13  C15 UNL     1      21.901  -1.362  54.237  1.00  0.00     0.000 A 
HETATM   14  C16 UNL     1      22.528  -1.169  53.022  1.00  0.00     0.001 A 
HETATM   15  C17 UNL     1      22.293   0.038  52.374  1.00  0.00     0.018 A 
ENDBRANCH   9  10
ENDBRANCH   8   9
ENDBRANCH   6   8
BRANCH   7  16
HETATM   16  O3  UNL     1      23.670   4.336  49.866  1.00  0.00    -0.358 OA
HETATM   17  H20 UNL     1      23.960   4.315  48.892  1.00  0.00     0.217 HD
ENDBRANCH   7  16
BRANCH   1  18
HETATM   18  O1  UNL     1      26.292   3.610  49.173  1.00  0.00    -0.349 OA
BRANCH  18  19
HETATM   19  C2  UNL     1      27.329   4.534  48.953  1.00  0.00     0.171 C 
HETATM   20  C1  UNL     1      26.716   5.904  48.701  1.00  0.00     0.034 C 
ENDBRANCH  18  19
ENDBRANCH   1  18
BRANCH   4  21
HETATM   21  C7  UNL     1      28.137   1.016  53.363  1.00  0.00     0.097 C 
BRANCH  21  22
HETATM   22  C8  UNL     1      29.092   1.952  54.063  1.00  0.00     0.234 C 
HETATM   23  O2  UNL     1      29.690   2.392  55.049  1.00  0.00    -0.307 OA
ENDBRANCH  21  22
ENDBRANCH   4  21
TORSDOF 8
ENDMDL
MODEL 6
REMARK VINA RESULT:      -6.8      3.002      7.473
REMARK  8 active torsions:
REMARK  status: ('A' for Active; 'I' for Inactive)
REMARK    1  A    between atoms: C2_2  and  O1_3 
REMARK    2  A    between atoms: O1_3  and  C3_4 
REMARK    3  A    between atoms: C6_7  and  C7_8 
REMARK    4  A    between atoms: C7_8  and  C8_9 
REMARK    5  A    between atoms: C10_12  and  C11_13 
REMARK    6  A    between atoms: C11_13  and  S1_14 
REMARK    7  A    between atoms: S1_14  and  C12_15 
REMARK    8  A    between atoms: C18_21  and  O3_22 
ROOT
HETATM    1  C3  UNL     1      25.306   2.691  51.271  1.00  0.00     0.102 A 
HETATM    2  C4  UNL     1      26.035   1.671  51.741  1.00  0.00     0.046 A 
HETATM    3  C5  UNL     1      25.399   0.601  52.498  1.00  0.00    -0.055 A 
HETATM    4  C6  UNL     1      26.122  -0.398  52.966  1.00  0.00    -0.013 C 
HETATM    5  C9  UNL     1      23.946   0.573  52.780  1.00  0.00     0.076 A 
HETATM    6  C10 UNL     1      23.314   1.771  52.190  1.00  0.00    -0.030 A 
HETATM    7  C18 UNL     1      23.878   2.733  51.514  1.00  0.00     0.102 A 
ENDROOT
BRANCH   6   8
HETATM    8  C11 UNL     1      21.858   1.748  52.485  1.00  0.00     0.116 C 
BRANCH   8   9
HETATM    9  S1  UNL     1      21.339   0.385  53.522  1.00  0.00    -0.126 SA
BRANCH   9  10
HETATM   10  C12 UNL     1      19.710  -0.199  53.007  1.00  0.00     0.000 A 
HETATM   11  C13 UNL     1      18.947  -1.194  53.563  1.00  0.00     0.018 A 
HETATM   12  C14 UNL     1      17.719  -1.487  53.011  1.00  0.00     0.001 A 
HETATM   13  C15 UNL     1      17.276  -0.770  51.903  1.00  0.00     0.000 A 
HETATM   14  C16 UNL     1      18.025   0.236  51.325  1.00  0.00     0.001 A 
HETATM   15  C17 UNL     1      19.260   0.514  51.898  1.00  0.00     0.018 A 
ENDBRANCH   9  10
ENDBRANCH   8   9
ENDBRANCH   6   8
BRANCH   7  16
HETATM   16  O3  UNL     1      23.086   3.777  51.045  1.00  0.00    -0.358 OA
HETATM   17  H20 UNL     1      23.013   4.586  51.657  1.00  0.00     0.217 HD
ENDBRANCH   7  16
BRANCH   1  18
HETATM   18  O1  UNL     1      25.849   3.733  50.551  1.00  0.00    -0.349 OA
BRANCH  18  19
HETATM   19  C2  UNL     1      26.699   3.581  49.441  1.00  0.00     0.171 C 
HETATM   20  C1  UNL     1      27.028   4.960  48.886  1.00  0.00     0.034 C 
ENDBRANCH  18  19
ENDBRANCH   1  18
BRANCH   4  21
HETATM   21  C7  UNL     1      27.575  -0.666  52.865  1.00  0.00     0.097 C 
BRANCH  21  22
HETATM   22  C8  UNL     1      28.329   0.016  53.981  1.00  0.00     0.234 C 
HETATM   23  O2  UNL     1      28.412   0.643  55.040  1.00  0.00    -0.307 OA
ENDBRANCH  21  22
ENDBRANCH   4  21
TORSDOF 8
ENDMDL
MODEL 7
REMARK VINA RESULT:      -6.7      1.602      2.305
REMARK  8 active torsions:
REMARK  status: ('A' for Active; 'I' for Inactive)
REMARK    1  A    between atoms: C2_2  and  O1_3 
REMARK    2  A    between atoms: O1_3  and  C3_4 
REMARK    3  A    between atoms: C6_7  and  C7_8 
REMARK    4  A    between atoms: C7_8  and  C8_9 
REMARK    5  A    between atoms: C10_12  and  C11_13 
REMARK    6  A    between atoms: C11_13  and  S1_14 
REMARK    7  A    between atoms: S1_14  and  C12_15 
REMARK    8  A    between atoms: C18_21  and  O3_22 
ROOT
HETATM    1  C3  UNL     1      26.744   1.189  53.744  1.00  0.00     0.102 A 
HETATM    2  C4  UNL     1      25.544   0.593  53.764  1.00  0.00     0.046 A 
HETATM    3  C5  UNL     1      24.581   0.847  52.701  1.00  0.00    -0.055 A 
HETATM    4  C6  UNL     1      23.397   0.265  52.728  1.00  0.00    -0.013 C 
HETATM    5  C9  UNL     1      24.863   1.750  51.563  1.00  0.00     0.076 A 
HETATM    6  C10 UNL     1      26.221   2.312  51.714  1.00  0.00    -0.030 A 
HETATM    7  C18 UNL     1      27.087   2.090  52.663  1.00  0.00     0.102 A 
ENDROOT
BRANCH   6   8
HETATM    8  C11 UNL     1      26.498   3.227  50.577  1.00  0.00     0.116 C 
BRANCH   8   9
HETATM    9  S1  UNL     1      25.042   3.730  49.665  1.00  0.00    -0.126 SA
BRANCH   9  10
HETATM   10  C12 UNL     1      24.618   5.438  50.068  1.00  0.00     0.000 A 
HETATM   11  C13 UNL     1      25.449   6.526  50.146  1.00  0.00     0.018 A 
HETATM   12  C14 UNL     1      24.919   7.755  50.473  1.00  0.00     0.001 A 
HETATM   13  C15 UNL     1      23.553   7.869  50.717  1.00  0.00     0.000 A 
HETATM   14  C16 UNL     1      22.695   6.789  50.645  1.00  0.00     0.001 A 
HETATM   15  C17 UNL     1      23.252   5.560  50.314  1.00  0.00     0.018 A 
ENDBRANCH   9  10
ENDBRANCH   8   9
ENDBRANCH   6   8
BRANCH   7  16
HETATM   16  O3  UNL     1      28.321   2.730  52.608  1.00  0.00    -0.358 OA
HETATM   17  H20 UNL     1      28.603   3.068  51.692  1.00  0.00     0.217 HD
ENDBRANCH   7  16
BRANCH   1  18
HETATM   18  O1  UNL     1      27.696   0.989  54.720  1.00  0.00    -0.349 OA
BRANCH  18  19
HETATM   19  C2  UNL     1      28.967   0.430  54.497  1.00  0.00     0.171 C 
HETATM   20  C1  UNL     1      28.806  -0.820  53.642  1.00  0.00     0.034 C 
ENDBRANCH  18  19
ENDBRANCH   1  18
BRANCH   4  21
HETATM   21  C7  UNL     1      22.808  -0.675  53.710  1.00  0.00     0.097 C 
BRANCH  21  22
HETATM   22  C8  UNL     1      21.686  -0.020  54.479  1.00  0.00     0.234 C 
HETATM   23  O2  UNL     1      20.546   0.437  54.602  1.00  0.00    -0.307 OA
ENDBRANCH  21  22
ENDBRANCH   4  21
TORSDOF 8
ENDMDL
MODEL 8
REMARK VINA RESULT:      -6.6      3.064      7.950
REMARK  8 active torsions:
REMARK  status: ('A' for Active; 'I' for Inactive)
REMARK    1  A    between atoms: C2_2  and  O1_3 
REMARK    2  A    between atoms: O1_3  and  C3_4 
REMARK    3  A    between atoms: C6_7  and  C7_8 
REMARK    4  A    between atoms: C7_8  and  C8_9 
REMARK    5  A    between atoms: C10_12  and  C11_13 
REMARK    6  A    between atoms: C11_13  and  S1_14 
REMARK    7  A    between atoms: S1_14  and  C12_15 
REMARK    8  A    between atoms: C18_21  and  O3_22 
ROOT
HETATM    1  C3  UNL     1      24.576   6.085  50.606  1.00  0.00     0.102 A 
HETATM    2  C4  UNL     1      25.682   6.081  49.851  1.00  0.00     0.046 A 
HETATM    3  C5  UNL     1      26.325   4.822  49.499  1.00  0.00    -0.055 A 
HETATM    4  C6  UNL     1      27.419   4.822  48.762  1.00  0.00    -0.013 C 
HETATM    5  C9  UNL     1      25.805   3.506  49.936  1.00  0.00     0.076 A 
HETATM    6  C10 UNL     1      24.593   3.711  50.754  1.00  0.00    -0.030 A 
HETATM    7  C18 UNL     1      24.014   4.835  51.075  1.00  0.00     0.102 A 
ENDROOT
BRANCH   6   8
HETATM    8  C11 UNL     1      24.080   2.391  51.202  1.00  0.00     0.116 C 
BRANCH   8   9
HETATM    9  S1  UNL     1      24.400   2.023  52.924  1.00  0.00    -0.126 SA
BRANCH   9  10
HETATM   10  C12 UNL     1      25.817   0.912  53.066  1.00  0.00     0.000 A 
HETATM   11  C13 UNL     1      26.157  -0.142  52.257  1.00  0.00     0.018 A 
HETATM   12  C14 UNL     1      27.291  -0.871  52.545  1.00  0.00     0.001 A 
HETATM   13  C15 UNL     1      28.067  -0.524  53.647  1.00  0.00     0.000 A 
HETATM   14  C16 UNL     1      27.747   0.532  54.476  1.00  0.00     0.001 A 
HETATM   15  C17 UNL     1      26.599   1.253  54.167  1.00  0.00     0.018 A 
ENDBRANCH   9  10
ENDBRANCH   8   9
ENDBRANCH   6   8
BRANCH   7  16
HETATM   16  O3  UNL     1      22.867   4.797  51.863  1.00  0.00    -0.358 OA
HETATM   17  H20 UNL     1      22.168   4.112  51.593  1.00  0.00     0.217 HD
ENDBRANCH   7  16
BRANCH   1  18
HETATM   18  O1  UNL     1      23.923   7.242  50.973  1.00  0.00    -0.349 OA
BRANCH  18  19
HETATM   19  C2  UNL     1      23.156   8.039  50.105  1.00  0.00     0.171 C 
HETATM   20  C1  UNL     1      21.683   7.734  50.336  1.00  0.00     0.034 C 
ENDBRANCH  18  19
ENDBRANCH   1  18
BRANCH   4  21
HETATM   21  C7  UNL     1      28.186   5.945  48.175  1.00  0.00     0.097 C 
BRANCH  21  22
HETATM   22  C8  UNL     1      29.667   5.655  48.189  1.00  0.00     0.234 C 
HETATM   23  O2  UNL     1      30.651   4.912  48.137  1.00  0.00    -0.307 OA
ENDBRANCH  21  22
ENDBRANCH   4  21
TORSDOF 8
ENDMDL
MODEL 9
REMARK VINA RESULT:      -6.5      3.354      8.562
REMARK  8 active torsions:
REMARK  status: ('A' for Active; 'I' for Inactive)
REMARK    1  A    between atoms: C2_2  and  O1_3 
REMARK    2  A    between atoms: O1_3  and  C3_4 
REMARK    3  A    between atoms: C6_7  and  C7_8 
REMARK    4  A    between atoms: C7_8  and  C8_9 
REMARK    5  A    between atoms: C10_12  and  C11_13 
REMARK    6  A    between atoms: C11_13  and  S1_14 
REMARK    7  A    between atoms: S1_14  and  C12_15 
REMARK    8  A    between atoms: C18_21  and  O3_22 
ROOT
HETATM    1  C3  UNL     1      25.656   6.779  48.609  1.00  0.00     0.102 A 
HETATM    2  C4  UNL     1      26.963   6.655  48.346  1.00  0.00     0.046 A 
HETATM    3  C5  UNL     1      27.640   5.384  48.570  1.00  0.00    -0.055 A 
HETATM    4  C6  UNL     1      28.930   5.269  48.318  1.00  0.00    -0.013 C 
HETATM    5  C9  UNL     1      26.942   4.184  49.082  1.00  0.00     0.076 A 
HETATM    6  C10 UNL     1      25.520   4.511  49.314  1.00  0.00    -0.030 A 
HETATM    7  C18 UNL     1      24.909   5.647  49.117  1.00  0.00     0.102 A 
ENDROOT
BRANCH   6   8
HETATM    8  C11 UNL     1      24.824   3.309  49.840  1.00  0.00     0.116 C 
BRANCH   8   9
HETATM    9  S1  UNL     1      24.685   3.260  51.623  1.00  0.00    -0.126 SA
BRANCH   9  10
HETATM   10  C12 UNL     1      25.049   1.598  52.227  1.00  0.00     0.000 A 
HETATM   11  C13 UNL     1      24.272   0.791  53.020  1.00  0.00     0.018 A 
HETATM   12  C14 UNL     1      24.740  -0.456  53.372  1.00  0.00     0.001 A 
HETATM   13  C15 UNL     1      25.989  -0.873  52.917  1.00  0.00     0.000 A 
HETATM   14  C16 UNL     1      26.789  -0.080  52.119  1.00  0.00     0.001 A 
HETATM   15  C17 UNL     1      26.296   1.173  51.777  1.00  0.00     0.018 A 
ENDBRANCH   9  10
ENDBRANCH   8   9
ENDBRANCH   6   8
BRANCH   7  16
HETATM   16  O3  UNL     1      23.550   5.736  49.405  1.00  0.00    -0.358 OA
HETATM   17  H20 UNL     1      23.316   5.936  50.373  1.00  0.00     0.217 HD
ENDBRANCH   7  16
BRANCH   1  18
HETATM   18  O1  UNL     1      24.961   7.953  48.418  1.00  0.00    -0.349 OA
BRANCH  18  19
HETATM   19  C2  UNL     1      24.874   8.644  47.196  1.00  0.00     0.171 C 
HETATM   20  C1  UNL     1      24.085   7.793  46.210  1.00  0.00     0.034 C 
ENDBRANCH  18  19
ENDBRANCH   1  18
BRANCH   4  21
HETATM   21  C7  UNL     1      29.905   6.261  47.810  1.00  0.00     0.097 C 
BRANCH  21  22
HETATM   22  C8  UNL     1      30.917   6.617  48.872  1.00  0.00     0.234 C 
HETATM   23  O2  UNL     1      31.768   6.351  49.725  1.00  0.00    -0.307 OA
ENDBRANCH  21  22
ENDBRANCH   4  21
TORSDOF 8
ENDMDL
