MODEL 1
REMARK VINA RESULT:      -8.7      0.000      0.000
REMARK  4 active torsions:
REMARK  status: ('A' for Active; 'I' for Inactive)
REMARK    1  A    between atoms: C5_6  and  C6_7 
REMARK    2  A    between atoms: N1_9  and  C8_10 
REMARK    3  A    between atoms: C10_12  and  C11_13 
REMARK    4  A    between atoms: C11_13  and  N2_14 
ROOT
HETATM    1  C6  UNL     1      24.757   0.188  53.261  1.00  0.00     0.003 A 
HETATM    2  C7  UNL     1      24.550   1.233  52.359  1.00  0.00     0.108 A 
HETATM    3  N1  UNL     1      23.259   1.573  52.292  1.00  0.00    -0.319 N 
HETATM    4  C16 UNL     1      22.535   0.782  53.138  1.00  0.00     0.145 A 
HETATM    5  N4  UNL     1      21.236   0.684  53.454  1.00  0.00    -0.223 NA
HETATM    6  C17 UNL     1      20.842  -0.236  54.336  1.00  0.00     0.234 A 
HETATM    7  N5  UNL     1      21.759  -1.071  54.912  1.00  0.00    -0.253 NA
HETATM    8  C18 UNL     1      23.060  -0.973  54.598  1.00  0.00     0.134 A 
HETATM    9  C19 UNL     1      23.479  -0.041  53.703  1.00  0.00     0.040 A 
ENDROOT
BRANCH   3  10
HETATM   10  C8  UNL     1      22.567   2.581  51.520  1.00  0.00     0.186 C 
HETATM   11  C9  UNL     1      23.492   3.331  50.564  1.00  0.00     0.054 C 
HETATM   12  C10 UNL     1      23.161   2.841  49.199  1.00  0.00     0.035 C 
HETATM   13  C15 UNL     1      22.194   1.649  49.438  1.00  0.00     0.122 C 
HETATM   14  N3  UNL     1      21.572   2.092  50.639  1.00  0.00    -0.401 N 
HETATM   15  H22 UNL     1      20.760   1.617  50.986  1.00  0.00     0.155 HD
BRANCH  12  16
HETATM   16  C11 UNL     1      22.449   3.733  48.257  1.00  0.00     0.278 C 
BRANCH  16  17
HETATM   17  N2  UNL     1      21.635   3.148  47.245  1.00  0.00     0.088 N 
HETATM   18  C12 UNL     1      20.359   3.898  47.167  1.00  0.00     0.274 C 
HETATM   19  C13 UNL     1      20.976   4.788  46.159  1.00  0.00     0.060 C 
HETATM   20  C14 UNL     1      21.876   3.592  45.897  1.00  0.00     0.274 C 
ENDBRANCH  16  17
ENDBRANCH  12  16
ENDBRANCH   3  10
BRANCH   1  21
HETATM   21  C5  UNL     1      26.067  -0.373  53.481  1.00  0.00    -0.022 C 
HETATM   22  C4  UNL     1      26.873   0.316  54.519  1.00  0.00     0.207 C 
HETATM   23  O1  UNL     1      27.986  -0.332  54.951  1.00  0.00    -0.383 OA
HETATM   24  C3  UNL     1      29.093  -0.286  54.106  1.00  0.00     0.195 C 
HETATM   25  C2  UNL     1      29.023  -1.602  53.354  1.00  0.00    -0.001 C 
HETATM   26  C1  UNL     1      27.881  -2.044  52.792  1.00  0.00    -0.001 C 
HETATM   27  C20 UNL     1      26.601  -1.358  52.819  1.00  0.00     0.010 C 
ENDBRANCH   1  21
TORSDOF 4
ENDMDL
MODEL 2
REMARK VINA RESULT:      -8.5      2.098      2.422
REMARK  4 active torsions:
REMARK  status: ('A' for Active; 'I' for Inactive)
REMARK    1  A    between atoms: C5_6  and  C6_7 
REMARK    2  A    between atoms: N1_9  and  C8_10 
REMARK    3  A    between atoms: C10_12  and  C11_13 
REMARK    4  A    between atoms: C11_13  and  N2_14 
ROOT
HETATM    1  C6  UNL     1      24.699   0.580  53.260  1.00  0.00     0.003 A 
HETATM    2  C7  UNL     1      24.635   1.906  52.830  1.00  0.00     0.108 A 
HETATM    3  N1  UNL     1      23.371   2.302  52.652  1.00  0.00    -0.319 N 
HETATM    4  C16 UNL     1      22.525   1.273  52.949  1.00  0.00     0.145 A 
HETATM    5  N4  UNL     1      21.194   1.114  52.936  1.00  0.00    -0.223 NA
HETATM    6  C17 UNL     1      20.668  -0.063  53.279  1.00  0.00     0.234 A 
HETATM    7  N5  UNL     1      21.484  -1.098  53.641  1.00  0.00    -0.253 NA
HETATM    8  C18 UNL     1      22.817  -0.942  53.656  1.00  0.00     0.134 A 
HETATM    9  C19 UNL     1      23.369   0.251  53.311  1.00  0.00     0.040 A 
ENDROOT
BRANCH   3  10
HETATM   10  C8  UNL     1      22.808   3.565  52.229  1.00  0.00     0.186 C 
HETATM   11  C9  UNL     1      23.875   4.598  51.871  1.00  0.00     0.054 C 
HETATM   12  C10 UNL     1      23.854   4.716  50.389  1.00  0.00     0.035 C 
HETATM   13  C15 UNL     1      22.915   3.572  49.919  1.00  0.00     0.122 C 
HETATM   14  N3  UNL     1      22.039   3.517  51.041  1.00  0.00    -0.401 N 
HETATM   15  H22 UNL     1      21.196   2.978  50.990  1.00  0.00     0.155 HD
BRANCH  12  16
HETATM   16  C11 UNL     1      23.312   5.943  49.763  1.00  0.00     0.278 C 
BRANCH  16  17
HETATM   17  N2  UNL     1      22.962   7.040  50.601  1.00  0.00     0.088 N 
HETATM   18  C12 UNL     1      22.947   8.277  49.784  1.00  0.00     0.274 C 
HETATM   19  C13 UNL     1      21.516   8.037  49.497  1.00  0.00     0.060 C 
HETATM   20  C14 UNL     1      21.554   7.263  50.804  1.00  0.00     0.274 C 
ENDBRANCH  16  17
ENDBRANCH  12  16
ENDBRANCH   3  10
BRANCH   1  21
HETATM   21  C5  UNL     1      25.961  -0.081  53.490  1.00  0.00    -0.022 C 
HETATM   22  C4  UNL     1      26.746   0.456  54.629  1.00  0.00     0.207 C 
HETATM   23  O1  UNL     1      27.793  -0.298  55.052  1.00  0.00    -0.383 OA
HETATM   24  C3  UNL     1      28.946  -0.244  54.272  1.00  0.00     0.195 C 
HETATM   25  C2  UNL     1      28.843  -1.477  53.395  1.00  0.00    -0.001 C 
HETATM   26  C1  UNL     1      27.710  -1.791  52.736  1.00  0.00    -0.001 C 
HETATM   27  C20 UNL     1      26.473  -1.032  52.764  1.00  0.00     0.010 C 
ENDBRANCH   1  21
TORSDOF 4
ENDMDL
MODEL 3
REMARK VINA RESULT:      -8.1      2.505      4.846
REMARK  4 active torsions:
REMARK  status: ('A' for Active; 'I' for Inactive)
REMARK    1  A    between atoms: C5_6  and  C6_7 
REMARK    2  A    between atoms: N1_9  and  C8_10 
REMARK    3  A    between atoms: C10_12  and  C11_13 
REMARK    4  A    between atoms: C11_13  and  N2_14 
ROOT
HETATM    1  C6  UNL     1      25.432   1.395  51.887  1.00  0.00     0.003 A 
HETATM    2  C7  UNL     1      24.127   0.901  51.863  1.00  0.00     0.108 A 
HETATM    3  N1  UNL     1      23.345   1.620  51.051  1.00  0.00    -0.319 N 
HETATM    4  C16 UNL     1      24.077   2.628  50.490  1.00  0.00     0.145 A 
HETATM    5  N4  UNL     1      23.805   3.624  49.636  1.00  0.00    -0.223 NA
HETATM    6  C17 UNL     1      24.773   4.476  49.290  1.00  0.00     0.234 A 
HETATM    7  N5  UNL     1      26.030   4.330  49.808  1.00  0.00    -0.253 NA
HETATM    8  C18 UNL     1      26.304   3.334  50.663  1.00  0.00     0.134 A 
HETATM    9  C19 UNL     1      25.331   2.456  51.024  1.00  0.00     0.040 A 
ENDROOT
BRANCH   3  10
HETATM   10  C8  UNL     1      21.948   1.496  50.700  1.00  0.00     0.186 C 
HETATM   11  C9  UNL     1      21.292   0.261  51.315  1.00  0.00     0.054 C 
HETATM   12  C10 UNL     1      20.410   0.762  52.402  1.00  0.00     0.035 C 
HETATM   13  C15 UNL     1      20.758   2.271  52.524  1.00  0.00     0.122 C 
HETATM   14  N3  UNL     1      21.111   2.536  51.170  1.00  0.00    -0.401 N 
HETATM   15  H22 UNL     1      21.236   3.482  50.863  1.00  0.00     0.155 HD
BRANCH  12  16
HETATM   16  C11 UNL     1      18.940   0.718  52.228  1.00  0.00     0.278 C 
BRANCH  16  17
HETATM   17  N2  UNL     1      18.352  -0.459  51.682  1.00  0.00     0.088 N 
HETATM   18  C12 UNL     1      17.722  -1.229  52.781  1.00  0.00     0.274 C 
HETATM   19  C13 UNL     1      16.465  -0.488  52.543  1.00  0.00     0.060 C 
HETATM   20  C14 UNL     1      17.026  -0.317  51.141  1.00  0.00     0.274 C 
ENDBRANCH  16  17
ENDBRANCH  12  16
ENDBRANCH   3  10
BRANCH   1  21
HETATM   21  C5  UNL     1      26.451   0.801  52.717  1.00  0.00    -0.022 C 
HETATM   22  C4  UNL     1      26.819   1.595  53.916  1.00  0.00     0.207 C 
HETATM   23  O1  UNL     1      27.560   0.959  54.859  1.00  0.00    -0.383 OA
HETATM   24  C3  UNL     1      28.917   0.810  54.579  1.00  0.00     0.195 C 
HETATM   25  C2  UNL     1      29.016  -0.599  54.029  1.00  0.00    -0.001 C 
HETATM   26  C1  UNL     1      28.174  -1.057  53.081  1.00  0.00    -0.001 C 
HETATM   27  C20 UNL     1      27.093  -0.303  52.470  1.00  0.00     0.010 C 
ENDBRANCH   1  21
TORSDOF 4
ENDMDL
MODEL 4
REMARK VINA RESULT:      -7.5      3.457      5.658
REMARK  4 active torsions:
REMARK  status: ('A' for Active; 'I' for Inactive)
REMARK    1  A    between atoms: C5_6  and  C6_7 
REMARK    2  A    between atoms: N1_9  and  C8_10 
REMARK    3  A    between atoms: C10_12  and  C11_13 
REMARK    4  A    between atoms: C11_13  and  N2_14 
ROOT
HETATM    1  C6  UNL     1      25.048   2.790  51.264  1.00  0.00     0.003 A 
HETATM    2  C7  UNL     1      23.690   2.792  51.586  1.00  0.00     0.108 A 
HETATM    3  N1  UNL     1      23.347   1.696  52.271  1.00  0.00    -0.319 N 
HETATM    4  C16 UNL     1      24.447   0.906  52.445  1.00  0.00     0.145 A 
HETATM    5  N4  UNL     1      24.672  -0.278  53.032  1.00  0.00    -0.223 NA
HETATM    6  C17 UNL     1      25.900  -0.800  53.012  1.00  0.00     0.234 A 
HETATM    7  N5  UNL     1      26.919  -0.129  52.395  1.00  0.00    -0.253 NA
HETATM    8  C18 UNL     1      26.697   1.057  51.808  1.00  0.00     0.134 A 
HETATM    9  C19 UNL     1      25.452   1.604  51.821  1.00  0.00     0.040 A 
ENDROOT
BRANCH   3  10
HETATM   10  C8  UNL     1      22.083   1.259  52.819  1.00  0.00     0.186 C 
HETATM   11  C9  UNL     1      20.933   2.206  52.480  1.00  0.00     0.054 C 
HETATM   12  C10 UNL     1      20.109   1.506  51.459  1.00  0.00     0.035 C 
HETATM   13  C15 UNL     1      20.944   0.253  51.076  1.00  0.00     0.122 C 
HETATM   14  N3  UNL     1      21.601   0.025  52.319  1.00  0.00    -0.401 N 
HETATM   15  H22 UNL     1      22.106  -0.828  52.468  1.00  0.00     0.155 HD
BRANCH  12  16
HETATM   16  C11 UNL     1      18.776   0.982  51.831  1.00  0.00     0.278 C 
BRANCH  16  17
HETATM   17  N2  UNL     1      18.308  -0.205  51.200  1.00  0.00     0.088 N 
HETATM   18  C12 UNL     1      17.237  -0.798  52.036  1.00  0.00     0.274 C 
HETATM   19  C13 UNL     1      16.245  -0.003  51.280  1.00  0.00     0.060 C 
HETATM   20  C14 UNL     1      17.299  -0.035  50.187  1.00  0.00     0.274 C 
ENDBRANCH  16  17
ENDBRANCH  12  16
ENDBRANCH   3  10
BRANCH   1  21
HETATM   21  C5  UNL     1      25.646   3.856  50.499  1.00  0.00    -0.022 C 
HETATM   22  C4  UNL     1      24.927   5.152  50.569  1.00  0.00     0.207 C 
HETATM   23  O1  UNL     1      25.591   6.239  50.099  1.00  0.00    -0.383 OA
HETATM   24  C3  UNL     1      25.641   6.378  48.713  1.00  0.00     0.195 C 
HETATM   25  C2  UNL     1      26.996   5.806  48.345  1.00  0.00    -0.001 C 
HETATM   26  C1  UNL     1      27.426   4.623  48.826  1.00  0.00    -0.001 C 
HETATM   27  C20 UNL     1      26.690   3.755  49.729  1.00  0.00     0.010 C 
ENDBRANCH   1  21
TORSDOF 4
ENDMDL
MODEL 5
REMARK VINA RESULT:      -7.4      3.861      7.424
REMARK  4 active torsions:
REMARK  status: ('A' for Active; 'I' for Inactive)
REMARK    1  A    between atoms: C5_6  and  C6_7 
REMARK    2  A    between atoms: N1_9  and  C8_10 
REMARK    3  A    between atoms: C10_12  and  C11_13 
REMARK    4  A    between atoms: C11_13  and  N2_14 
ROOT
HETATM    1  C6  UNL     1      25.173   5.320  49.200  1.00  0.00     0.003 A 
HETATM    2  C7  UNL     1      24.936   4.418  50.238  1.00  0.00     0.108 A 
HETATM    3  N1  UNL     1      23.641   4.097  50.322  1.00  0.00    -0.319 N 
HETATM    4  C16 UNL     1      22.944   4.762  49.354  1.00  0.00     0.145 A 
HETATM    5  N4  UNL     1      21.653   4.821  48.997  1.00  0.00    -0.223 NA
HETATM    6  C17 UNL     1      21.287   5.606  47.981  1.00  0.00     0.234 A 
HETATM    7  N5  UNL     1      22.225   6.343  47.314  1.00  0.00    -0.253 NA
HETATM    8  C18 UNL     1      23.517   6.285  47.669  1.00  0.00     0.134 A 
HETATM    9  C19 UNL     1      23.908   5.490  48.700  1.00  0.00     0.040 A 
ENDROOT
BRANCH   3  10
HETATM   10  C8  UNL     1      22.923   3.216  51.215  1.00  0.00     0.186 C 
HETATM   11  C9  UNL     1      23.220   1.740  50.954  1.00  0.00     0.054 C 
HETATM   12  C10 UNL     1      24.079   1.287  52.081  1.00  0.00     0.035 C 
HETATM   13  C15 UNL     1      24.433   2.590  52.850  1.00  0.00     0.122 C 
HETATM   14  N3  UNL     1      23.253   3.342  52.587  1.00  0.00    -0.401 N 
HETATM   15  H22 UNL     1      23.083   4.194  53.085  1.00  0.00     0.155 HD
BRANCH  12  16
HETATM   16  C11 UNL     1      23.519   0.376  53.104  1.00  0.00     0.278 C 
BRANCH  16  17
HETATM   17  N2  UNL     1      22.204  -0.138  52.914  1.00  0.00     0.088 N 
HETATM   18  C12 UNL     1      22.057  -1.377  53.716  1.00  0.00     0.274 C 
HETATM   19  C13 UNL     1      21.575  -0.554  54.847  1.00  0.00     0.060 C 
HETATM   20  C14 UNL     1      21.174   0.419  53.751  1.00  0.00     0.274 C 
ENDBRANCH  16  17
ENDBRANCH  12  16
ENDBRANCH   3  10
BRANCH   1  21
HETATM   21  C5  UNL     1      26.493   5.836  48.933  1.00  0.00    -0.022 C 
HETATM   22  C4  UNL     1      26.608   7.314  48.996  1.00  0.00     0.207 C 
HETATM   23  O1  UNL     1      27.866   7.824  49.025  1.00  0.00    -0.383 OA
HETATM   24  C3  UNL     1      28.548   7.853  47.810  1.00  0.00     0.195 C 
HETATM   25  C2  UNL     1      29.409   6.605  47.853  1.00  0.00    -0.001 C 
HETATM   26  C1  UNL     1      28.911   5.405  48.211  1.00  0.00    -0.001 C 
HETATM   27  C20 UNL     1      27.536   5.137  48.592  1.00  0.00     0.010 C 
ENDBRANCH   1  21
TORSDOF 4
ENDMDL
MODEL 6
REMARK VINA RESULT:      -7.2      3.697      5.744
REMARK  4 active torsions:
REMARK  status: ('A' for Active; 'I' for Inactive)
REMARK    1  A    between atoms: C5_6  and  C6_7 
REMARK    2  A    between atoms: N1_9  and  C8_10 
REMARK    3  A    between atoms: C10_12  and  C11_13 
REMARK    4  A    between atoms: C11_13  and  N2_14 
ROOT
HETATM    1  C6  UNL     1      25.357   3.595  50.430  1.00  0.00     0.003 A 
HETATM    2  C7  UNL     1      23.966   3.519  50.336  1.00  0.00     0.108 A 
HETATM    3  N1  UNL     1      23.491   2.442  50.970  1.00  0.00    -0.319 N 
HETATM    4  C16 UNL     1      24.527   1.743  51.520  1.00  0.00     0.145 A 
HETATM    5  N4  UNL     1      24.626   0.614  52.235  1.00  0.00    -0.223 NA
HETATM    6  C17 UNL     1      25.829   0.181  52.617  1.00  0.00     0.234 A 
HETATM    7  N5  UNL     1      26.950   0.886  52.280  1.00  0.00    -0.253 NA
HETATM    8  C18 UNL     1      26.854   2.018  51.565  1.00  0.00     0.134 A 
HETATM    9  C19 UNL     1      25.636   2.474  51.169  1.00  0.00     0.040 A 
ENDROOT
BRANCH   3  10
HETATM   10  C8  UNL     1      22.144   1.948  51.152  1.00  0.00     0.186 C 
HETATM   11  C9  UNL     1      21.083   2.929  50.658  1.00  0.00     0.054 C 
HETATM   12  C10 UNL     1      20.540   2.351  49.400  1.00  0.00     0.035 C 
HETATM   13  C15 UNL     1      21.472   1.148  49.089  1.00  0.00     0.122 C 
HETATM   14  N3  UNL     1      21.824   0.779  50.419  1.00  0.00    -0.401 N 
HETATM   15  H22 UNL     1      22.302  -0.086  50.587  1.00  0.00     0.155 HD
BRANCH  12  16
HETATM   16  C11 UNL     1      19.169   1.791  49.387  1.00  0.00     0.278 C 
BRANCH  16  17
HETATM   17  N2  UNL     1      18.509   1.573  50.630  1.00  0.00     0.088 N 
HETATM   18  C12 UNL     1      17.057   1.415  50.376  1.00  0.00     0.274 C 
HETATM   19  C13 UNL     1      17.269  -0.041  50.231  1.00  0.00     0.060 C 
HETATM   20  C14 UNL     1      18.482   0.215  51.108  1.00  0.00     0.274 C 
ENDBRANCH  16  17
ENDBRANCH  12  16
ENDBRANCH   3  10
BRANCH   1  21
HETATM   21  C5  UNL     1      26.101   4.656  49.797  1.00  0.00    -0.022 C 
HETATM   22  C4  UNL     1      25.489   6.002  49.915  1.00  0.00     0.207 C 
HETATM   23  O1  UNL     1      26.276   7.057  49.581  1.00  0.00    -0.383 OA
HETATM   24  C3  UNL     1      26.450   7.289  48.217  1.00  0.00     0.195 C 
HETATM   25  C2  UNL     1      27.778   6.627  47.908  1.00  0.00    -0.001 C 
HETATM   26  C1  UNL     1      28.068   5.378  48.326  1.00  0.00    -0.001 C 
HETATM   27  C20 UNL     1      27.192   4.518  49.101  1.00  0.00     0.010 C 
ENDBRANCH   1  21
TORSDOF 4
ENDMDL
MODEL 7
REMARK VINA RESULT:      -7.1      4.749      7.858
REMARK  4 active torsions:
REMARK  status: ('A' for Active; 'I' for Inactive)
REMARK    1  A    between atoms: C5_6  and  C6_7 
REMARK    2  A    between atoms: N1_9  and  C8_10 
REMARK    3  A    between atoms: C10_12  and  C11_13 
REMARK    4  A    between atoms: C11_13  and  N2_14 
ROOT
HETATM    1  C6  UNL     1      26.585   5.948  48.669  1.00  0.00     0.003 A 
HETATM    2  C7  UNL     1      26.361   4.741  49.333  1.00  0.00     0.108 A 
HETATM    3  N1  UNL     1      25.056   4.463  49.416  1.00  0.00    -0.319 N 
HETATM    4  C16 UNL     1      24.339   5.459  48.819  1.00  0.00     0.145 A 
HETATM    5  N4  UNL     1      23.033   5.695  48.628  1.00  0.00    -0.223 NA
HETATM    6  C17 UNL     1      22.651   6.808  47.999  1.00  0.00     0.234 A 
HETATM    7  N5  UNL     1      23.587   7.700  47.556  1.00  0.00    -0.253 NA
HETATM    8  C18 UNL     1      24.894   7.467  47.746  1.00  0.00     0.134 A 
HETATM    9  C19 UNL     1      25.302   6.337  48.382  1.00  0.00     0.040 A 
ENDROOT
BRANCH   3  10
HETATM   10  C8  UNL     1      24.345   3.346  49.997  1.00  0.00     0.186 C 
HETATM   11  C9  UNL     1      25.191   2.564  51.000  1.00  0.00     0.054 C 
HETATM   12  C10 UNL     1      24.651   2.900  52.345  1.00  0.00     0.035 C 
HETATM   13  C15 UNL     1      23.640   4.049  52.083  1.00  0.00     0.122 C 
HETATM   14  N3  UNL     1      23.211   3.687  50.774  1.00  0.00    -0.401 N 
HETATM   15  H22 UNL     1      22.419   4.144  50.364  1.00  0.00     0.155 HD
BRANCH  12  16
HETATM   16  C11 UNL     1      23.889   1.880  53.101  1.00  0.00     0.278 C 
BRANCH  16  17
HETATM   17  N2  UNL     1      23.593   0.640  52.466  1.00  0.00     0.088 N 
HETATM   18  C12 UNL     1      23.677  -0.443  53.474  1.00  0.00     0.274 C 
HETATM   19  C13 UNL     1      22.240  -0.246  53.766  1.00  0.00     0.060 C 
HETATM   20  C14 UNL     1      22.198   0.301  52.349  1.00  0.00     0.274 C 
ENDBRANCH  16  17
ENDBRANCH  12  16
ENDBRANCH   3  10
BRANCH   1  21
HETATM   21  C5  UNL     1      27.915   6.474  48.483  1.00  0.00    -0.022 C 
HETATM   22  C4  UNL     1      28.959   5.451  48.228  1.00  0.00     0.207 C 
HETATM   23  O1  UNL     1      30.157   5.907  47.779  1.00  0.00    -0.383 OA
HETATM   24  C3  UNL     1      30.995   6.480  48.734  1.00  0.00     0.195 C 
HETATM   25  C2  UNL     1      30.747   7.969  48.580  1.00  0.00    -0.001 C 
HETATM   26  C1  UNL     1      29.503   8.482  48.516  1.00  0.00    -0.001 C 
HETATM   27  C20 UNL     1      28.267   7.723  48.582  1.00  0.00     0.010 C 
ENDBRANCH   1  21
TORSDOF 4
ENDMDL
MODEL 8
REMARK VINA RESULT:      -7.0      4.721      8.113
REMARK  4 active torsions:
REMARK  status: ('A' for Active; 'I' for Inactive)
REMARK    1  A    between atoms: C5_6  and  C6_7 
REMARK    2  A    between atoms: N1_9  and  C8_10 
REMARK    3  A    between atoms: C10_12  and  C11_13 
REMARK    4  A    between atoms: C11_13  and  N2_14 
ROOT
HETATM    1  C6  UNL     1      25.425   6.679  49.864  1.00  0.00     0.003 A 
HETATM    2  C7  UNL     1      25.556   5.306  50.077  1.00  0.00     0.108 A 
HETATM    3  N1  UNL     1      24.397   4.756  50.456  1.00  0.00    -0.319 N 
HETATM    4  C16 UNL     1      23.434   5.722  50.518  1.00  0.00     0.145 A 
HETATM    5  N4  UNL     1      22.133   5.735  50.842  1.00  0.00    -0.223 NA
HETATM    6  C17 UNL     1      21.460   6.886  50.814  1.00  0.00     0.234 A 
HETATM    7  N5  UNL     1      22.096   8.043  50.459  1.00  0.00    -0.253 NA
HETATM    8  C18 UNL     1      23.397   8.033  50.133  1.00  0.00     0.134 A 
HETATM    9  C19 UNL     1      24.098   6.869  50.154  1.00  0.00     0.040 A 
ENDROOT
BRANCH   3  10
HETATM   10  C8  UNL     1      24.038   3.394  50.780  1.00  0.00     0.186 C 
HETATM   11  C9  UNL     1      25.254   2.512  51.059  1.00  0.00     0.054 C 
HETATM   12  C10 UNL     1      25.267   2.280  52.528  1.00  0.00     0.035 C 
HETATM   13  C15 UNL     1      24.168   3.228  53.083  1.00  0.00     0.122 C 
HETATM   14  N3  UNL     1      23.283   3.233  51.968  1.00  0.00    -0.401 N 
HETATM   15  H22 UNL     1      22.368   3.631  52.058  1.00  0.00     0.155 HD
BRANCH  12  16
HETATM   16  C11 UNL     1      24.924   0.940  53.057  1.00  0.00     0.278 C 
BRANCH  16  17
HETATM   17  N2  UNL     1      25.840   0.301  53.941  1.00  0.00     0.088 N 
HETATM   18  C12 UNL     1      26.038  -1.098  53.490  1.00  0.00     0.274 C 
HETATM   19  C13 UNL     1      27.165  -0.639  52.650  1.00  0.00     0.060 C 
HETATM   20  C14 UNL     1      27.239   0.494  53.659  1.00  0.00     0.274 C 
ENDBRANCH  16  17
ENDBRANCH  12  16
ENDBRANCH   3  10
BRANCH   1  21
HETATM   21  C5  UNL     1      26.549   7.495  49.479  1.00  0.00    -0.022 C 
HETATM   22  C4  UNL     1      27.418   6.904  48.431  1.00  0.00     0.207 C 
HETATM   23  O1  UNL     1      28.315   7.738  47.846  1.00  0.00    -0.383 OA
HETATM   24  C3  UNL     1      29.459   8.030  48.586  1.00  0.00     0.195 C 
HETATM   25  C2  UNL     1      29.139   9.365  49.229  1.00  0.00    -0.001 C 
HETATM   26  C1  UNL     1      27.968   9.593  49.856  1.00  0.00    -0.001 C 
HETATM   27  C20 UNL     1      26.884   8.638  50.004  1.00  0.00     0.010 C 
ENDBRANCH   1  21
TORSDOF 4
ENDMDL
MODEL 9
REMARK VINA RESULT:      -6.9      3.827      5.364
REMARK  4 active torsions:
REMARK  status: ('A' for Active; 'I' for Inactive)
REMARK    1  A    between atoms: C5_6  and  C6_7 
REMARK    2  A    between atoms: N1_9  and  C8_10 
REMARK    3  A    between atoms: C10_12  and  C11_13 
REMARK    4  A    between atoms: C11_13  and  N2_14 
ROOT
HETATM    1  C6  UNL     1      23.603   2.950  51.481  1.00  0.00     0.003 A 
HETATM    2  C7  UNL     1      22.278   3.389  51.472  1.00  0.00     0.108 A 
HETATM    3  N1  UNL     1      21.479   2.550  52.140  1.00  0.00    -0.319 N 
HETATM    4  C16 UNL     1      22.218   1.511  52.629  1.00  0.00     0.145 A 
HETATM    5  N4  UNL     1      21.938   0.411  53.342  1.00  0.00    -0.223 NA
HETATM    6  C17 UNL     1      22.919  -0.439  53.652  1.00  0.00     0.234 A 
HETATM    7  N5  UNL     1      24.198  -0.187  53.242  1.00  0.00    -0.253 NA
HETATM    8  C18 UNL     1      24.481   0.914  52.529  1.00  0.00     0.134 A 
HETATM    9  C19 UNL     1      23.495   1.791  52.207  1.00  0.00     0.040 A 
ENDROOT
BRANCH   3  10
HETATM   10  C8  UNL     1      20.059   2.580  52.406  1.00  0.00     0.186 C 
HETATM   11  C9  UNL     1      19.342   3.707  51.665  1.00  0.00     0.054 C 
HETATM   12  C10 UNL     1      18.569   3.056  50.574  1.00  0.00     0.035 C 
HETATM   13  C15 UNL     1      19.045   1.577  50.587  1.00  0.00     0.122 C 
HETATM   14  N3  UNL     1      19.337   1.441  51.974  1.00  0.00    -0.401 N 
HETATM   15  H22 UNL     1      19.521   0.534  52.358  1.00  0.00     0.155 HD
BRANCH  12  16
HETATM   16  C11 UNL     1      17.093   2.987  50.667  1.00  0.00     0.278 C 
BRANCH  16  17
HETATM   17  N2  UNL     1      16.391   4.098  51.215  1.00  0.00     0.088 N 
HETATM   18  C12 UNL     1      15.095   4.238  50.508  1.00  0.00     0.274 C 
HETATM   19  C13 UNL     1      14.480   3.349  51.518  1.00  0.00     0.060 C 
HETATM   20  C14 UNL     1      15.615   3.841  52.400  1.00  0.00     0.274 C 
ENDBRANCH  16  17
ENDBRANCH  12  16
ENDBRANCH   3  10
BRANCH   1  21
HETATM   21  C5  UNL     1      24.645   3.675  50.798  1.00  0.00    -0.022 C 
HETATM   22  C4  UNL     1      24.420   5.139  50.694  1.00  0.00     0.207 C 
HETATM   23  O1  UNL     1      25.485   5.890  50.312  1.00  0.00    -0.383 OA
HETATM   24  C3  UNL     1      25.795   5.872  48.953  1.00  0.00     0.195 C 
HETATM   25  C2  UNL     1      26.906   4.846  48.853  1.00  0.00    -0.001 C 
HETATM   26  C1  UNL     1      26.818   3.637  49.444  1.00  0.00    -0.001 C 
HETATM   27  C20 UNL     1      25.695   3.157  50.230  1.00  0.00     0.010 C 
ENDBRANCH   1  21
TORSDOF 4
ENDMDL
