MODEL 1
REMARK VINA RESULT:      -8.6      0.000      0.000
REMARK  8 active torsions:
REMARK  status: ('A' for Active; 'I' for Inactive)
REMARK    1  A    between atoms: C2_2  and  C3_3 
REMARK    2  A    between atoms: C3_3  and  C4_4 
REMARK    3  A    between atoms: C3_3  and  N6_29 
REMARK    4  A    between atoms: C4_4  and  C5_5 
REMARK    5  A    between atoms: C6_6  and  C7_7 
REMARK       I    between atoms: C7_7  and  N1_9 
REMARK    6  A    between atoms: N1_9  and  C8_10 
REMARK    7  A    between atoms: C11_13  and  N2_14 
REMARK    8  A    between atoms: N2_14  and  C12_15 
ROOT
HETATM    1  C8  UNL     1      24.587   3.564  50.479  1.00  0.00     0.131 A 
HETATM    2  C9  UNL     1      24.856   2.822  51.597  1.00  0.00     0.068 A 
HETATM    3  C10 UNL     1      24.095   1.774  52.065  1.00  0.00     0.044 A 
HETATM    4  C11 UNL     1      24.364   1.029  53.190  1.00  0.00     0.142 A 
HETATM    5  N3  UNL     1      23.506   0.063  53.470  1.00  0.00    -0.224 NA
HETATM    6  C18 UNL     1      22.426  -0.210  52.733  1.00  0.00     0.236 A 
HETATM    7  N4  UNL     1      22.164   0.518  51.637  1.00  0.00    -0.240 NA
HETATM    8  C19 UNL     1      22.996   1.518  51.289  1.00  0.00     0.089 A 
HETATM    9  C20 UNL     1      22.671   2.216  50.168  1.00  0.00     0.151 A 
HETATM   10  N5  UNL     1      23.469   3.238  49.766  1.00  0.00    -0.241 NA
ENDROOT
BRANCH   1  11
HETATM   11  N1  UNL     1      25.449   4.647  50.069  1.00  0.00    -0.301 N 
HETATM   12  C7  UNL     1      26.553   4.096  49.344  1.00  0.00     0.302 C 
HETATM   13  O1  UNL     1      26.485   2.839  49.256  1.00  0.00    -0.258 OA
HETATM   14  H9  UNL     1      25.415   5.698  50.198  1.00  0.00     0.171 HD
BRANCH  12  15
HETATM   15  C6  UNL     1      27.612   4.883  48.784  1.00  0.00    -0.005 C 
HETATM   16  C5  UNL     1      28.518   5.530  48.315  1.00  0.00    -0.094 C 
BRANCH  16  17
HETATM   17  C4  UNL     1      29.607   6.306  47.725  1.00  0.00     0.130 C 
BRANCH  17  18
HETATM   18  C3  UNL     1      30.288   7.065  48.841  1.00  0.00     0.230 C 
BRANCH  18  19
HETATM   19  C2  UNL     1      31.300   8.007  48.187  1.00  0.00     0.032 C 
HETATM   20  C1  UNL     1      31.133   9.389  48.770  1.00  0.00     0.007 C 
ENDBRANCH  18  19
BRANCH  18  21
HETATM   21  N6  UNL     1      30.968   6.115  49.698  1.00  0.00     0.084 N 
HETATM   22  C21 UNL     1      32.252   5.809  49.122  1.00  0.00     0.307 C 
HETATM   23  H17 UNL     1      31.029   6.514  50.667  1.00  0.00     0.315 HD
ENDBRANCH  18  21
ENDBRANCH  17  18
ENDBRANCH  16  17
ENDBRANCH  12  15
ENDBRANCH   1  11
BRANCH   4  24
HETATM   24  N2  UNL     1      25.523   1.342  53.946  1.00  0.00    -0.340 N 
HETATM   25  H11 UNL     1      25.511   2.027  54.703  1.00  0.00     0.167 HD
BRANCH  24  26
HETATM   26  C12 UNL     1      26.841   0.821  53.833  1.00  0.00     0.035 A 
HETATM   27  C13 UNL     1      28.013   1.543  54.026  1.00  0.00     0.032 A 
HETATM   28  C14 UNL     1      29.262   1.011  53.914  1.00  0.00     0.046 A 
HETATM   29  C15 UNL     1      29.436  -0.310  53.595  1.00  0.00     0.138 A 
HETATM   30  F1  UNL     1      30.719  -0.734  53.510  1.00  0.00    -0.204 F 
HETATM   31  C16 UNL     1      28.313  -1.068  53.394  1.00  0.00     0.074 A 
HETATM   32 CL1  UNL     1      28.588  -2.750  52.989  1.00  0.00    -0.081 Cl
HETATM   33  C17 UNL     1      27.073  -0.489  53.517  1.00  0.00     0.056 A 
ENDBRANCH  24  26
ENDBRANCH   4  24
TORSDOF 8
ENDMDL
MODEL 2
REMARK VINA RESULT:      -8.6      2.155      3.082
REMARK  8 active torsions:
REMARK  status: ('A' for Active; 'I' for Inactive)
REMARK    1  A    between atoms: C2_2  and  C3_3 
REMARK    2  A    between atoms: C3_3  and  C4_4 
REMARK    3  A    between atoms: C3_3  and  N6_29 
REMARK    4  A    between atoms: C4_4  and  C5_5 
REMARK    5  A    between atoms: C6_6  and  C7_7 
REMARK       I    between atoms: C7_7  and  N1_9 
REMARK    6  A    between atoms: N1_9  and  C8_10 
REMARK    7  A    between atoms: C11_13  and  N2_14 
REMARK    8  A    between atoms: N2_14  and  C12_15 
ROOT
HETATM    1  C8  UNL     1      22.422   2.168  51.110  1.00  0.00     0.131 A 
HETATM    2  C9  UNL     1      23.184   1.253  51.784  1.00  0.00     0.068 A 
HETATM    3  C10 UNL     1      22.777   0.520  52.875  1.00  0.00     0.044 A 
HETATM    4  C11 UNL     1      23.544  -0.399  53.555  1.00  0.00     0.142 A 
HETATM    5  N3  UNL     1      22.965  -0.999  54.582  1.00  0.00    -0.224 NA
HETATM    6  C18 UNL     1      21.712  -0.758  54.973  1.00  0.00     0.236 A 
HETATM    7  N4  UNL     1      20.964   0.138  54.311  1.00  0.00    -0.240 NA
HETATM    8  C19 UNL     1      21.488   0.787  53.254  1.00  0.00     0.089 A 
HETATM    9  C20 UNL     1      20.677   1.682  52.629  1.00  0.00     0.151 A 
HETATM   10  N5  UNL     1      21.147   2.371  51.557  1.00  0.00    -0.241 NA
ENDROOT
BRANCH   1  11
HETATM   11  N1  UNL     1      22.941   2.889  49.973  1.00  0.00    -0.301 N 
HETATM   12  C7  UNL     1      23.623   4.054  50.450  1.00  0.00     0.302 C 
HETATM   13  O1  UNL     1      23.592   4.142  51.708  1.00  0.00    -0.258 OA
HETATM   14  H9  UNL     1      22.912   2.725  48.926  1.00  0.00     0.171 HD
BRANCH  12  15
HETATM   15  C6  UNL     1      24.267   5.008  49.595  1.00  0.00    -0.005 C 
HETATM   16  C5  UNL     1      24.819   5.820  48.893  1.00  0.00    -0.094 C 
BRANCH  16  17
HETATM   17  C4  UNL     1      25.505   6.786  48.036  1.00  0.00     0.130 C 
BRANCH  17  18
HETATM   18  C3  UNL     1      26.916   6.943  48.558  1.00  0.00     0.230 C 
BRANCH  18  19
HETATM   19  C2  UNL     1      27.558   5.556  48.533  1.00  0.00     0.032 C 
HETATM   20  C1  UNL     1      29.025   5.699  48.209  1.00  0.00     0.007 C 
ENDBRANCH  18  19
BRANCH  18  21
HETATM   21  N6  UNL     1      26.852   7.443  49.917  1.00  0.00     0.084 N 
HETATM   22  C21 UNL     1      27.142   8.853  49.904  1.00  0.00     0.307 C 
HETATM   23  H17 UNL     1      25.910   7.213  50.319  1.00  0.00     0.315 HD
ENDBRANCH  18  21
ENDBRANCH  17  18
ENDBRANCH  16  17
ENDBRANCH  12  15
ENDBRANCH   1  11
BRANCH   4  24
HETATM   24  N2  UNL     1      24.869  -0.635  53.107  1.00  0.00    -0.340 N 
HETATM   25  H11 UNL     1      25.109  -1.423  52.503  1.00  0.00     0.167 HD
BRANCH  24  26
HETATM   26  C12 UNL     1      26.054   0.103  53.372  1.00  0.00     0.035 A 
HETATM   27  C13 UNL     1      26.107   1.448  53.719  1.00  0.00     0.032 A 
HETATM   28  C14 UNL     1      27.263   2.125  53.971  1.00  0.00     0.046 A 
HETATM   29  C15 UNL     1      28.477   1.494  53.895  1.00  0.00     0.138 A 
HETATM   30  F1  UNL     1      29.559   2.260  54.165  1.00  0.00    -0.204 F 
HETATM   31  C16 UNL     1      28.482   0.166  53.557  1.00  0.00     0.074 A 
HETATM   32 CL1  UNL     1      30.057  -0.595  53.473  1.00  0.00    -0.081 Cl
HETATM   33  C17 UNL     1      27.292  -0.475  53.310  1.00  0.00     0.056 A 
ENDBRANCH  24  26
ENDBRANCH   4  24
TORSDOF 8
ENDMDL
MODEL 3
REMARK VINA RESULT:      -8.6      4.204      9.858
REMARK  8 active torsions:
REMARK  status: ('A' for Active; 'I' for Inactive)
REMARK    1  A    between atoms: C2_2  and  C3_3 
REMARK    2  A    between atoms: C3_3  and  C4_4 
REMARK    3  A    between atoms: C3_3  and  N6_29 
REMARK    4  A    between atoms: C4_4  and  C5_5 
REMARK    5  A    between atoms: C6_6  and  C7_7 
REMARK       I    between atoms: C7_7  and  N1_9 
REMARK    6  A    between atoms: N1_9  and  C8_10 
REMARK    7  A    between atoms: C11_13  and  N2_14 
REMARK    8  A    between atoms: N2_14  and  C12_15 
ROOT
HETATM    1  C8  UNL     1      24.330  -0.292  53.377  1.00  0.00     0.131 A 
HETATM    2  C9  UNL     1      25.048   0.496  52.519  1.00  0.00     0.068 A 
HETATM    3  C10 UNL     1      26.252   1.099  52.804  1.00  0.00     0.044 A 
HETATM    4  C11 UNL     1      26.974   1.893  51.941  1.00  0.00     0.142 A 
HETATM    5  N3  UNL     1      28.110   2.382  52.409  1.00  0.00    -0.224 NA
HETATM    6  C18 UNL     1      28.571   2.146  53.640  1.00  0.00     0.236 A 
HETATM    7  N4  UNL     1      27.866   1.372  54.480  1.00  0.00    -0.240 NA
HETATM    8  C19 UNL     1      26.699   0.840  54.072  1.00  0.00     0.089 A 
HETATM    9  C20 UNL     1      26.036   0.067  54.973  1.00  0.00     0.151 A 
HETATM   10  N5  UNL     1      24.852  -0.498  54.623  1.00  0.00    -0.241 NA
ENDROOT
BRANCH   1  11
HETATM   11  N1  UNL     1      23.073  -0.883  52.984  1.00  0.00    -0.301 N 
HETATM   12  C7  UNL     1      22.056   0.121  53.071  1.00  0.00     0.302 C 
HETATM   13  O1  UNL     1      22.514   1.231  53.458  1.00  0.00    -0.258 OA
HETATM   14  H9  UNL     1      22.788  -1.852  52.666  1.00  0.00     0.171 HD
BRANCH  12  15
HETATM   15  C6  UNL     1      20.677  -0.110  52.752  1.00  0.00    -0.005 C 
HETATM   16  C5  UNL     1      19.511  -0.300  52.505  1.00  0.00    -0.094 C 
BRANCH  16  17
HETATM   17  C4  UNL     1      18.098  -0.507  52.195  1.00  0.00     0.130 C 
BRANCH  17  18
HETATM   18  C3  UNL     1      17.456  -1.168  53.394  1.00  0.00     0.230 C 
BRANCH  18  19
HETATM   19  C2  UNL     1      18.107  -2.543  53.548  1.00  0.00     0.032 C 
HETATM   20  C1  UNL     1      17.029  -3.598  53.569  1.00  0.00     0.007 C 
ENDBRANCH  18  19
BRANCH  18  21
HETATM   21  N6  UNL     1      16.036  -1.310  53.137  1.00  0.00     0.084 N 
HETATM   22  C21 UNL     1      15.662  -0.396  52.089  1.00  0.00     0.307 C 
HETATM   23  H17 UNL     1      15.831  -2.314  52.908  1.00  0.00     0.315 HD
ENDBRANCH  18  21
ENDBRANCH  17  18
ENDBRANCH  16  17
ENDBRANCH  12  15
ENDBRANCH   1  11
BRANCH   4  24
HETATM   24  N2  UNL     1      26.459   2.117  50.639  1.00  0.00    -0.340 N 
HETATM   25  H11 UNL     1      26.317   1.358  49.970  1.00  0.00     0.167 HD
BRANCH  24  26
HETATM   26  C12 UNL     1      26.060   3.335  50.025  1.00  0.00     0.035 A 
HETATM   27  C13 UNL     1      24.755   3.805  49.937  1.00  0.00     0.032 A 
HETATM   28  C14 UNL     1      24.407   4.982  49.344  1.00  0.00     0.046 A 
HETATM   29  C15 UNL     1      25.359   5.794  48.785  1.00  0.00     0.138 A 
HETATM   30  F1  UNL     1      24.903   6.938  48.224  1.00  0.00    -0.204 F 
HETATM   31  C16 UNL     1      26.663   5.378  48.844  1.00  0.00     0.074 A 
HETATM   32 CL1  UNL     1      27.841   6.450  48.116  1.00  0.00    -0.081 Cl
HETATM   33  C17 UNL     1      26.966   4.183  49.451  1.00  0.00     0.056 A 
ENDBRANCH  24  26
ENDBRANCH   4  24
TORSDOF 8
ENDMDL
MODEL 4
REMARK VINA RESULT:      -8.0      2.168      2.712
REMARK  8 active torsions:
REMARK  status: ('A' for Active; 'I' for Inactive)
REMARK    1  A    between atoms: C2_2  and  C3_3 
REMARK    2  A    between atoms: C3_3  and  C4_4 
REMARK    3  A    between atoms: C3_3  and  N6_29 
REMARK    4  A    between atoms: C4_4  and  C5_5 
REMARK    5  A    between atoms: C6_6  and  C7_7 
REMARK       I    between atoms: C7_7  and  N1_9 
REMARK    6  A    between atoms: N1_9  and  C8_10 
REMARK    7  A    between atoms: C11_13  and  N2_14 
REMARK    8  A    between atoms: N2_14  and  C12_15 
ROOT
HETATM    1  C8  UNL     1      24.069   5.411  51.075  1.00  0.00     0.131 A 
HETATM    2  C9  UNL     1      23.926   4.064  51.273  1.00  0.00     0.068 A 
HETATM    3  C10 UNL     1      22.752   3.421  51.593  1.00  0.00     0.044 A 
HETATM    4  C11 UNL     1      22.609   2.067  51.793  1.00  0.00     0.142 A 
HETATM    5  N3  UNL     1      21.392   1.646  52.096  1.00  0.00    -0.224 NA
HETATM    6  C18 UNL     1      20.334   2.452  52.211  1.00  0.00     0.236 A 
HETATM    7  N4  UNL     1      20.474   3.772  52.015  1.00  0.00    -0.240 NA
HETATM    8  C19 UNL     1      21.684   4.272  51.704  1.00  0.00     0.089 A 
HETATM    9  C20 UNL     1      21.757   5.618  51.520  1.00  0.00     0.151 A 
HETATM   10  N5  UNL     1      22.950   6.184  51.206  1.00  0.00    -0.241 NA
ENDROOT
BRANCH   1  11
HETATM   11  N1  UNL     1      25.347   5.992  50.741  1.00  0.00    -0.301 N 
HETATM   12  C7  UNL     1      25.622   5.718  49.363  1.00  0.00     0.302 C 
HETATM   13  O1  UNL     1      24.697   5.057  48.816  1.00  0.00    -0.258 OA
HETATM   14  H9  UNL     1      26.065   6.544  51.291  1.00  0.00     0.171 HD
BRANCH  12  15
HETATM   15  C6  UNL     1      26.810   6.148  48.686  1.00  0.00    -0.005 C 
HETATM   16  C5  UNL     1      27.807   6.495  48.100  1.00  0.00    -0.094 C 
BRANCH  16  17
HETATM   17  C4  UNL     1      29.001   6.936  47.381  1.00  0.00     0.130 C 
BRANCH  17  18
HETATM   18  C3  UNL     1      30.031   7.347  48.409  1.00  0.00     0.230 C 
BRANCH  18  19
HETATM   19  C2  UNL     1      31.264   7.822  47.640  1.00  0.00     0.032 C 
HETATM   20  C1  UNL     1      30.910   7.961  46.180  1.00  0.00     0.007 C 
ENDBRANCH  18  19
BRANCH  18  21
HETATM   21  N6  UNL     1      30.359   6.192  49.221  1.00  0.00     0.084 N 
HETATM   22  C21 UNL     1      31.790   6.125  49.372  1.00  0.00     0.307 C 
HETATM   23  H17 UNL     1      29.846   6.262  50.134  1.00  0.00     0.315 HD
ENDBRANCH  18  21
ENDBRANCH  17  18
ENDBRANCH  16  17
ENDBRANCH  12  15
ENDBRANCH   1  11
BRANCH   4  24
HETATM   24  N2  UNL     1      23.753   1.240  51.657  1.00  0.00    -0.340 N 
HETATM   25  H11 UNL     1      23.963   0.737  50.792  1.00  0.00     0.167 HD
BRANCH  24  26
HETATM   26  C12 UNL     1      24.773   0.949  52.603  1.00  0.00     0.035 A 
HETATM   27  C13 UNL     1      24.741  -0.085  53.532  1.00  0.00     0.032 A 
HETATM   28  C14 UNL     1      25.740  -0.339  54.423  1.00  0.00     0.046 A 
HETATM   29  C15 UNL     1      26.870   0.436  54.451  1.00  0.00     0.138 A 
HETATM   30  F1  UNL     1      27.798   0.095  55.375  1.00  0.00    -0.204 F 
HETATM   31  C16 UNL     1      26.953   1.470  53.556  1.00  0.00     0.074 A 
HETATM   32 CL1  UNL     1      28.416   2.431  53.631  1.00  0.00    -0.081 Cl
HETATM   33  C17 UNL     1      25.921   1.689  52.676  1.00  0.00     0.056 A 
ENDBRANCH  24  26
ENDBRANCH   4  24
TORSDOF 8
ENDMDL
MODEL 5
REMARK VINA RESULT:      -7.9      3.243      8.060
REMARK  8 active torsions:
REMARK  status: ('A' for Active; 'I' for Inactive)
REMARK    1  A    between atoms: C2_2  and  C3_3 
REMARK    2  A    between atoms: C3_3  and  C4_4 
REMARK    3  A    between atoms: C3_3  and  N6_29 
REMARK    4  A    between atoms: C4_4  and  C5_5 
REMARK    5  A    between atoms: C6_6  and  C7_7 
REMARK       I    between atoms: C7_7  and  N1_9 
REMARK    6  A    between atoms: N1_9  and  C8_10 
REMARK    7  A    between atoms: C11_13  and  N2_14 
REMARK    8  A    between atoms: N2_14  and  C12_15 
ROOT
HETATM    1  C8  UNL     1      25.384   5.193  49.812  1.00  0.00     0.131 A 
HETATM    2  C9  UNL     1      26.542   5.850  49.496  1.00  0.00     0.068 A 
HETATM    3  C10 UNL     1      26.677   6.808  48.517  1.00  0.00     0.044 A 
HETATM    4  C11 UNL     1      27.841   7.469  48.198  1.00  0.00     0.142 A 
HETATM    5  N3  UNL     1      27.761   8.356  47.221  1.00  0.00    -0.224 NA
HETATM    6  C18 UNL     1      26.637   8.630  46.555  1.00  0.00     0.236 A 
HETATM    7  N4  UNL     1      25.502   7.985  46.867  1.00  0.00    -0.240 NA
HETATM    8  C19 UNL     1      25.508   7.068  47.852  1.00  0.00     0.089 A 
HETATM    9  C20 UNL     1      24.325   6.452  48.116  1.00  0.00     0.151 A 
HETATM   10  N5  UNL     1      24.266   5.515  49.097  1.00  0.00    -0.241 NA
ENDROOT
BRANCH   1  11
HETATM   11  N1  UNL     1      25.343   4.200  50.859  1.00  0.00    -0.301 N 
HETATM   12  C7  UNL     1      26.052   3.040  50.409  1.00  0.00     0.302 C 
HETATM   13  O1  UNL     1      26.515   3.187  49.245  1.00  0.00    -0.258 OA
HETATM   14  H9  UNL     1      24.916   4.175  51.829  1.00  0.00     0.171 HD
BRANCH  12  15
HETATM   15  C6  UNL     1      26.217   1.852  51.194  1.00  0.00    -0.005 C 
HETATM   16  C5  UNL     1      26.369   0.843  51.839  1.00  0.00    -0.094 C 
BRANCH  16  17
HETATM   17  C4  UNL     1      26.570  -0.367  52.634  1.00  0.00     0.130 C 
BRANCH  17  18
HETATM   18  C3  UNL     1      27.733  -0.116  53.568  1.00  0.00     0.230 C 
BRANCH  18  19
HETATM   19  C2  UNL     1      28.760  -1.219  53.309  1.00  0.00     0.032 C 
HETATM   20  C1  UNL     1      30.137  -0.694  53.633  1.00  0.00     0.007 C 
ENDBRANCH  18  19
BRANCH  18  21
HETATM   21  N6  UNL     1      27.252  -0.187  54.933  1.00  0.00     0.084 N 
HETATM   22  C21 UNL     1      25.833  -0.433  54.911  1.00  0.00     0.307 C 
HETATM   23  H17 UNL     1      27.796  -0.923  55.447  1.00  0.00     0.315 HD
ENDBRANCH  18  21
ENDBRANCH  17  18
ENDBRANCH  16  17
ENDBRANCH  12  15
ENDBRANCH   1  11
BRANCH   4  24
HETATM   24  N2  UNL     1      29.016   7.158  48.930  1.00  0.00    -0.340 N 
HETATM   25  H11 UNL     1      29.068   7.259  49.946  1.00  0.00     0.167 HD
BRANCH  24  26
HETATM   26  C12 UNL     1      30.270   6.681  48.463  1.00  0.00     0.035 A 
HETATM   27  C13 UNL     1      31.471   7.378  48.520  1.00  0.00     0.032 A 
HETATM   28  C14 UNL     1      32.659   6.889  48.066  1.00  0.00     0.046 A 
HETATM   29  C15 UNL     1      32.735   5.639  47.510  1.00  0.00     0.138 A 
HETATM   30  F1  UNL     1      33.963   5.252  47.092  1.00  0.00    -0.204 F 
HETATM   31  C16 UNL     1      31.580   4.907  47.429  1.00  0.00     0.074 A 
HETATM   32 CL1  UNL     1      31.730   3.317  46.711  1.00  0.00    -0.081 Cl
HETATM   33  C17 UNL     1      30.405   5.442  47.899  1.00  0.00     0.056 A 
ENDBRANCH  24  26
ENDBRANCH   4  24
TORSDOF 8
ENDMDL
MODEL 6
REMARK VINA RESULT:      -7.9      3.388      4.388
REMARK  8 active torsions:
REMARK  status: ('A' for Active; 'I' for Inactive)
REMARK    1  A    between atoms: C2_2  and  C3_3 
REMARK    2  A    between atoms: C3_3  and  C4_4 
REMARK    3  A    between atoms: C3_3  and  N6_29 
REMARK    4  A    between atoms: C4_4  and  C5_5 
REMARK    5  A    between atoms: C6_6  and  C7_7 
REMARK       I    between atoms: C7_7  and  N1_9 
REMARK    6  A    between atoms: N1_9  and  C8_10 
REMARK    7  A    between atoms: C11_13  and  N2_14 
REMARK    8  A    between atoms: N2_14  and  C12_15 
ROOT
HETATM    1  C8  UNL     1      21.575   2.547  51.906  1.00  0.00     0.131 A 
HETATM    2  C9  UNL     1      22.693   1.800  52.165  1.00  0.00     0.068 A 
HETATM    3  C10 UNL     1      22.775   0.770  53.075  1.00  0.00     0.044 A 
HETATM    4  C11 UNL     1      23.899   0.020  53.336  1.00  0.00     0.142 A 
HETATM    5  N3  UNL     1      23.770  -0.926  54.251  1.00  0.00    -0.224 NA
HETATM    6  C18 UNL     1      22.635  -1.176  54.909  1.00  0.00     0.236 A 
HETATM    7  N4  UNL     1      21.540  -0.444  54.653  1.00  0.00    -0.240 NA
HETATM    8  C19 UNL     1      21.596   0.537  53.733  1.00  0.00     0.089 A 
HETATM    9  C20 UNL     1      20.451   1.241  53.524  1.00  0.00     0.151 A 
HETATM   10  N5  UNL     1      20.444   2.245  52.610  1.00  0.00    -0.241 NA
ENDROOT
BRANCH   1  11
HETATM   11  N1  UNL     1      21.589   3.610  50.930  1.00  0.00    -0.301 N 
HETATM   12  C7  UNL     1      22.127   4.784  51.549  1.00  0.00     0.302 C 
HETATM   13  O1  UNL     1      22.440   4.585  52.755  1.00  0.00    -0.258 OA
HETATM   14  H9  UNL     1      21.296   3.674  49.914  1.00  0.00     0.171 HD
BRANCH  12  15
HETATM   15  C6  UNL     1      22.291   6.038  50.873  1.00  0.00    -0.005 C 
HETATM   16  C5  UNL     1      22.426   7.104  50.323  1.00  0.00    -0.094 C 
BRANCH  16  17
HETATM   17  C4  UNL     1      22.614   8.392  49.659  1.00  0.00     0.130 C 
BRANCH  17  18
HETATM   18  C3  UNL     1      24.079   8.515  49.301  1.00  0.00     0.230 C 
BRANCH  18  19
HETATM   19  C2  UNL     1      24.403   7.367  48.344  1.00  0.00     0.032 C 
HETATM   20  C1  UNL     1      24.085   7.798  46.934  1.00  0.00     0.007 C 
ENDBRANCH  18  19
BRANCH  18  21
HETATM   21  N6  UNL     1      24.862   8.395  50.514  1.00  0.00     0.084 N 
HETATM   22  C21 UNL     1      26.182   7.934  50.168  1.00  0.00     0.307 C 
HETATM   23  H17 UNL     1      24.859   9.318  51.013  1.00  0.00     0.315 HD
ENDBRANCH  18  21
ENDBRANCH  17  18
ENDBRANCH  16  17
ENDBRANCH  12  15
ENDBRANCH   1  11
BRANCH   4  24
HETATM   24  N2  UNL     1      25.085   0.308  52.615  1.00  0.00    -0.340 N 
HETATM   25  H11 UNL     1      25.071   0.780  51.709  1.00  0.00     0.167 HD
BRANCH  24  26
HETATM   26  C12 UNL     1      26.437   0.032  52.956  1.00  0.00     0.035 A 
HETATM   27  C13 UNL     1      27.086  -1.182  52.764  1.00  0.00     0.032 A 
HETATM   28  C14 UNL     1      28.387  -1.411  53.099  1.00  0.00     0.046 A 
HETATM   29  C15 UNL     1      29.152  -0.423  53.661  1.00  0.00     0.138 A 
HETATM   30  F1  UNL     1      30.430  -0.759  53.954  1.00  0.00    -0.204 F 
HETATM   31  C16 UNL     1      28.561   0.795  53.872  1.00  0.00     0.074 A 
HETATM   32 CL1  UNL     1      29.579   2.025  54.592  1.00  0.00    -0.081 Cl
HETATM   33  C17 UNL     1      27.246   0.981  53.519  1.00  0.00     0.056 A 
ENDBRANCH  24  26
ENDBRANCH   4  24
TORSDOF 8
ENDMDL
MODEL 7
REMARK VINA RESULT:      -7.8      2.148      3.131
REMARK  8 active torsions:
REMARK  status: ('A' for Active; 'I' for Inactive)
REMARK    1  A    between atoms: C2_2  and  C3_3 
REMARK    2  A    between atoms: C3_3  and  C4_4 
REMARK    3  A    between atoms: C3_3  and  N6_29 
REMARK    4  A    between atoms: C4_4  and  C5_5 
REMARK    5  A    between atoms: C6_6  and  C7_7 
REMARK       I    between atoms: C7_7  and  N1_9 
REMARK    6  A    between atoms: N1_9  and  C8_10 
REMARK    7  A    between atoms: C11_13  and  N2_14 
REMARK    8  A    between atoms: N2_14  and  C12_15 
ROOT
HETATM    1  C8  UNL     1      25.768   5.564  49.348  1.00  0.00     0.131 A 
HETATM    2  C9  UNL     1      25.609   4.679  50.380  1.00  0.00     0.068 A 
HETATM    3  C10 UNL     1      24.447   4.008  50.688  1.00  0.00     0.044 A 
HETATM    4  C11 UNL     1      24.286   3.119  51.726  1.00  0.00     0.142 A 
HETATM    5  N3  UNL     1      23.085   2.580  51.854  1.00  0.00    -0.224 NA
HETATM    6  C18 UNL     1      22.058   2.853  51.045  1.00  0.00     0.236 A 
HETATM    7  N4  UNL     1      22.215   3.720  50.034  1.00  0.00    -0.240 NA
HETATM    8  C19 UNL     1      23.412   4.308  49.843  1.00  0.00     0.089 A 
HETATM    9  C20 UNL     1      23.502   5.176  48.800  1.00  0.00     0.151 A 
HETATM   10  N5  UNL     1      24.682   5.803  48.556  1.00  0.00    -0.241 NA
ENDROOT
BRANCH   1  11
HETATM   11  N1  UNL     1      27.032   6.219  49.106  1.00  0.00    -0.301 N 
HETATM   12  C7  UNL     1      27.966   5.240  48.641  1.00  0.00     0.302 C 
HETATM   13  O1  UNL     1      27.453   4.089  48.566  1.00  0.00    -0.258 OA
HETATM   14  H9  UNL     1      27.368   7.219  49.204  1.00  0.00     0.171 HD
BRANCH  12  15
HETATM   15  C6  UNL     1      29.327   5.535  48.298  1.00  0.00    -0.005 C 
HETATM   16  C5  UNL     1      30.477   5.762  48.011  1.00  0.00    -0.094 C 
BRANCH  16  17
HETATM   17  C4  UNL     1      31.863   6.039  47.638  1.00  0.00     0.130 C 
BRANCH  17  18
HETATM   18  C3  UNL     1      32.297   4.974  46.656  1.00  0.00     0.230 C 
BRANCH  18  19
HETATM   19  C2  UNL     1      32.459   3.675  47.446  1.00  0.00     0.032 C 
HETATM   20  C1  UNL     1      31.929   2.528  46.621  1.00  0.00     0.007 C 
ENDBRANCH  18  19
BRANCH  18  21
HETATM   21  N6  UNL     1      33.564   5.370  46.075  1.00  0.00     0.084 N 
HETATM   22  C21 UNL     1      34.624   4.972  46.965  1.00  0.00     0.307 C 
HETATM   23  H17 UNL     1      33.644   4.952  45.116  1.00  0.00     0.315 HD
ENDBRANCH  18  21
ENDBRANCH  17  18
ENDBRANCH  16  17
ENDBRANCH  12  15
ENDBRANCH   1  11
BRANCH   4  24
HETATM   24  N2  UNL     1      25.401   2.847  52.561  1.00  0.00    -0.340 N 
HETATM   25  H11 UNL     1      25.782   3.543  53.204  1.00  0.00     0.167 HD
BRANCH  24  26
HETATM   26  C12 UNL     1      26.168   1.657  52.681  1.00  0.00     0.035 A 
HETATM   27  C13 UNL     1      25.771   0.395  52.257  1.00  0.00     0.032 A 
HETATM   28  C14 UNL     1      26.534  -0.727  52.384  1.00  0.00     0.046 A 
HETATM   29  C15 UNL     1      27.779  -0.667  52.954  1.00  0.00     0.138 A 
HETATM   30  F1  UNL     1      28.451  -1.840  53.030  1.00  0.00    -0.204 F 
HETATM   31  C16 UNL     1      28.220   0.554  53.390  1.00  0.00     0.074 A 
HETATM   32 CL1  UNL     1      29.816   0.578  54.111  1.00  0.00    -0.081 Cl
HETATM   33  C17 UNL     1      27.415   1.658  53.242  1.00  0.00     0.056 A 
ENDBRANCH  24  26
ENDBRANCH   4  24
TORSDOF 8
ENDMDL
MODEL 8
REMARK VINA RESULT:      -7.7      1.904      2.206
REMARK  8 active torsions:
REMARK  status: ('A' for Active; 'I' for Inactive)
REMARK    1  A    between atoms: C2_2  and  C3_3 
REMARK    2  A    between atoms: C3_3  and  C4_4 
REMARK    3  A    between atoms: C3_3  and  N6_29 
REMARK    4  A    between atoms: C4_4  and  C5_5 
REMARK    5  A    between atoms: C6_6  and  C7_7 
REMARK       I    between atoms: C7_7  and  N1_9 
REMARK    6  A    between atoms: N1_9  and  C8_10 
REMARK    7  A    between atoms: C11_13  and  N2_14 
REMARK    8  A    between atoms: N2_14  and  C12_15 
ROOT
HETATM    1  C8  UNL     1      25.324   4.785  49.690  1.00  0.00     0.131 A 
HETATM    2  C9  UNL     1      25.442   4.017  50.816  1.00  0.00     0.068 A 
HETATM    3  C10 UNL     1      24.491   3.144  51.295  1.00  0.00     0.044 A 
HETATM    4  C11 UNL     1      24.610   2.373  52.428  1.00  0.00     0.142 A 
HETATM    5  N3  UNL     1      23.579   1.598  52.719  1.00  0.00    -0.224 NA
HETATM    6  C18 UNL     1      22.466   1.534  51.984  1.00  0.00     0.236 A 
HETATM    7  N4  UNL     1      22.351   2.287  50.879  1.00  0.00    -0.240 NA
HETATM    8  C19 UNL     1      23.362   3.100  50.521  1.00  0.00     0.089 A 
HETATM    9  C20 UNL     1      23.180   3.836  49.391  1.00  0.00     0.151 A 
HETATM   10  N5  UNL     1      24.163   4.677  48.978  1.00  0.00    -0.241 NA
ENDROOT
BRANCH   1  11
HETATM   11  N1  UNL     1      26.381   5.673  49.268  1.00  0.00    -0.301 N 
HETATM   12  C7  UNL     1      26.103   6.980  49.781  1.00  0.00     0.302 C 
HETATM   13  O1  UNL     1      25.034   7.012  50.450  1.00  0.00    -0.258 OA
HETATM   14  H9  UNL     1      27.260   5.542  48.692  1.00  0.00     0.171 HD
BRANCH  12  15
HETATM   15  C6  UNL     1      26.945   8.119  49.559  1.00  0.00    -0.005 C 
HETATM   16  C5  UNL     1      27.671   9.067  49.382  1.00  0.00    -0.094 C 
BRANCH  16  17
HETATM   17  C4  UNL     1      28.553  10.208  49.142  1.00  0.00     0.130 C 
BRANCH  17  18
HETATM   18  C3  UNL     1      29.907   9.666  48.742  1.00  0.00     0.230 C 
BRANCH  18  19
HETATM   19  C2  UNL     1      29.714   8.902  47.432  1.00  0.00     0.032 C 
HETATM   20  C1  UNL     1      29.795   9.872  46.279  1.00  0.00     0.007 C 
ENDBRANCH  18  19
BRANCH  18  21
HETATM   21  N6  UNL     1      30.372   8.771  49.782  1.00  0.00     0.084 N 
HETATM   22  C21 UNL     1      31.589   8.140  49.340  1.00  0.00     0.307 C 
HETATM   23  H17 UNL     1      30.484   9.315  50.673  1.00  0.00     0.315 HD
ENDBRANCH  18  21
ENDBRANCH  17  18
ENDBRANCH  16  17
ENDBRANCH  12  15
ENDBRANCH   1  11
BRANCH   4  24
HETATM   24  N2  UNL     1      25.809   2.461  53.182  1.00  0.00    -0.340 N 
HETATM   25  H11 UNL     1      26.025   3.268  53.769  1.00  0.00     0.167 HD
BRANCH  24  26
HETATM   26  C12 UNL     1      26.880   1.533  53.283  1.00  0.00     0.035 A 
HETATM   27  C13 UNL     1      28.175   1.836  53.684  1.00  0.00     0.032 A 
HETATM   28  C14 UNL     1      29.180   0.919  53.773  1.00  0.00     0.046 A 
HETATM   29  C15 UNL     1      28.958  -0.397  53.463  1.00  0.00     0.138 A 
HETATM   30  F1  UNL     1      30.024  -1.221  53.587  1.00  0.00    -0.204 F 
HETATM   31  C16 UNL     1      27.697  -0.751  53.062  1.00  0.00     0.074 A 
HETATM   32 CL1  UNL     1      27.464  -2.444  52.677  1.00  0.00    -0.081 Cl
HETATM   33  C17 UNL     1      26.716   0.208  52.985  1.00  0.00     0.056 A 
ENDBRANCH  24  26
ENDBRANCH   4  24
TORSDOF 8
ENDMDL
MODEL 9
REMARK VINA RESULT:      -7.7      3.963      5.958
REMARK  8 active torsions:
REMARK  status: ('A' for Active; 'I' for Inactive)
REMARK    1  A    between atoms: C2_2  and  C3_3 
REMARK    2  A    between atoms: C3_3  and  C4_4 
REMARK    3  A    between atoms: C3_3  and  N6_29 
REMARK    4  A    between atoms: C4_4  and  C5_5 
REMARK    5  A    between atoms: C6_6  and  C7_7 
REMARK       I    between atoms: C7_7  and  N1_9 
REMARK    6  A    between atoms: N1_9  and  C8_10 
REMARK    7  A    between atoms: C11_13  and  N2_14 
REMARK    8  A    between atoms: N2_14  and  C12_15 
ROOT
HETATM    1  C8  UNL     1      25.895   1.189  52.253  1.00  0.00     0.131 A 
HETATM    2  C9  UNL     1      24.664   0.604  52.372  1.00  0.00     0.068 A 
HETATM    3  C10 UNL     1      24.239  -0.158  53.438  1.00  0.00     0.044 A 
HETATM    4  C11 UNL     1      23.001  -0.748  53.557  1.00  0.00     0.142 A 
HETATM    5  N3  UNL     1      22.789  -1.443  54.662  1.00  0.00    -0.224 NA
HETATM    6  C18 UNL     1      23.694  -1.590  55.633  1.00  0.00     0.236 A 
HETATM    7  N4  UNL     1      24.901  -1.015  55.516  1.00  0.00    -0.240 NA
HETATM    8  C19 UNL     1      25.187  -0.292  54.417  1.00  0.00     0.089 A 
HETATM    9  C20 UNL     1      26.428   0.263  54.361  1.00  0.00     0.151 A 
HETATM   10  N5  UNL     1      26.778   1.003  53.278  1.00  0.00    -0.241 NA
ENDROOT
BRANCH   1  11
HETATM   11  N1  UNL     1      26.247   1.972  51.092  1.00  0.00    -0.301 N 
HETATM   12  C7  UNL     1      25.515   3.201  51.138  1.00  0.00     0.302 C 
HETATM   13  O1  UNL     1      24.773   3.276  52.155  1.00  0.00    -0.258 OA
HETATM   14  H9  UNL     1      26.901   1.813  50.274  1.00  0.00     0.171 HD
BRANCH  12  15
HETATM   15  C6  UNL     1      25.617   4.227  50.141  1.00  0.00    -0.005 C 
HETATM   16  C5  UNL     1      25.695   5.106  49.317  1.00  0.00    -0.094 C 
BRANCH  16  17
HETATM   17  C4  UNL     1      25.816   6.171  48.324  1.00  0.00     0.130 C 
BRANCH  17  18
HETATM   18  C3  UNL     1      27.222   6.724  48.410  1.00  0.00     0.230 C 
BRANCH  18  19
HETATM   19  C2  UNL     1      28.176   5.532  48.324  1.00  0.00     0.032 C 
HETATM   20  C1  UNL     1      29.583   6.042  48.129  1.00  0.00     0.007 C 
ENDBRANCH  18  19
BRANCH  18  21
HETATM   21  N6  UNL     1      27.375   7.400  49.683  1.00  0.00     0.084 N 
HETATM   22  C21 UNL     1      27.376   8.822  49.453  1.00  0.00     0.307 C 
HETATM   23  H17 UNL     1      26.612   7.082  50.330  1.00  0.00     0.315 HD
ENDBRANCH  18  21
ENDBRANCH  17  18
ENDBRANCH  16  17
ENDBRANCH  12  15
ENDBRANCH   1  11
BRANCH   4  24
HETATM   24  N2  UNL     1      22.062  -0.565  52.510  1.00  0.00    -0.340 N 
HETATM   25  H11 UNL     1      21.982  -1.219  51.730  1.00  0.00     0.167 HD
BRANCH  24  26
HETATM   26  C12 UNL     1      21.108   0.472  52.326  1.00  0.00     0.035 A 
HETATM   27  C13 UNL     1      21.278   1.801  52.698  1.00  0.00     0.032 A 
HETATM   28  C14 UNL     1      20.343   2.772  52.503  1.00  0.00     0.046 A 
HETATM   29  C15 UNL     1      19.144   2.482  51.906  1.00  0.00     0.138 A 
HETATM   30  F1  UNL     1      18.289   3.522  51.761  1.00  0.00    -0.204 F 
HETATM   31  C16 UNL     1      18.924   1.187  51.519  1.00  0.00     0.074 A 
HETATM   32 CL1  UNL     1      17.378   0.867  50.761  1.00  0.00    -0.081 Cl
HETATM   33  C17 UNL     1      19.895   0.240  51.737  1.00  0.00     0.056 A 
ENDBRANCH  24  26
ENDBRANCH   4  24
TORSDOF 8
ENDMDL
