MODEL 1
REMARK VINA RESULT:      -7.7      0.000      0.000
REMARK  8 active torsions:
REMARK  status: ('A' for Active; 'I' for Inactive)
REMARK    1  A    between atoms: O1_2  and  C2_3 
REMARK       I    between atoms: C2_3  and  N1_5 
REMARK    2  A    between atoms: N1_5  and  C3_6 
REMARK    3  A    between atoms: C6_9  and  N2_10 
REMARK    4  A    between atoms: N2_10  and  C7_11 
REMARK    5  A    between atoms: N3_12  and  C8_13 
REMARK    6  A    between atoms: N4_14  and  C9_15 
REMARK    7  A    between atoms: C14_20  and  O3_21 
REMARK    8  A    between atoms: C16_23  and  O4_24 
ROOT
HETATM    1  C7  UNL     1      21.927   3.319  51.247  1.00  0.00     0.208 C 
HETATM    2  N3  UNL     1      22.813   4.176  51.706  1.00  0.00    -0.237 NA
ENDROOT
BRANCH   1   3
HETATM    3  N2  UNL     1      22.046   2.148  52.054  1.00  0.00    -0.351 N 
HETATM    4  H7  UNL     1      21.300   1.584  52.572  1.00  0.00     0.166 HD
BRANCH   3   5
HETATM    5  C6  UNL     1      23.173   1.368  52.429  1.00  0.00     0.033 A 
HETATM    6  C5  UNL     1      23.045   0.422  53.418  1.00  0.00     0.031 A 
HETATM    7  C4  UNL     1      24.070  -0.386  53.857  1.00  0.00     0.032 A 
HETATM    8  C3  UNL     1      25.302  -0.226  53.252  1.00  0.00     0.036 A 
HETATM    9  C19 UNL     1      25.472   0.726  52.241  1.00  0.00     0.032 A 
HETATM   10  C18 UNL     1      24.389   1.517  51.842  1.00  0.00     0.031 A 
BRANCH   8  11
HETATM   11  N1  UNL     1      26.570  -0.878  53.438  1.00  0.00    -0.303 N 
HETATM   12  C2  UNL     1      27.442  -0.195  54.338  1.00  0.00     0.364 C 
HETATM   13  O2  UNL     1      27.169   0.895  54.945  1.00  0.00    -0.238 OA
HETATM   14  H4  UNL     1      27.010  -1.745  53.064  1.00  0.00     0.171 HD
BRANCH  12  15
HETATM   15  O1  UNL     1      28.715  -0.530  54.745  1.00  0.00    -0.309 OA
HETATM   16  C1  UNL     1      29.694  -0.916  53.795  1.00  0.00     0.215 C 
ENDBRANCH  12  15
ENDBRANCH   8  11
ENDBRANCH   3   5
ENDBRANCH   1   3
BRANCH   2  17
HETATM   17  C8  UNL     1      22.897   5.458  51.053  1.00  0.00     0.233 C 
HETATM   18  N4  UNL     1      23.779   5.861  50.203  1.00  0.00    -0.253 NA
BRANCH  18  19
HETATM   19  C9  UNL     1      24.857   5.042  49.766  1.00  0.00     0.132 C 
HETATM   20  C10 UNL     1      26.009   5.511  49.310  1.00  0.00     0.017 A 
HETATM   21  C11 UNL     1      27.088   4.639  48.870  1.00  0.00     0.012 A 
HETATM   22  C16 UNL     1      26.255   6.965  49.218  1.00  0.00     0.109 A 
HETATM   23  C12 UNL     1      28.228   5.108  48.409  1.00  0.00    -0.019 A 
HETATM   24  C13 UNL     1      28.503   6.545  48.302  1.00  0.00     0.094 A 
HETATM   25  C14 UNL     1      27.409   7.418  48.751  1.00  0.00     0.083 A 
BRANCH  25  26
HETATM   26  O3  UNL     1      27.560   8.792  48.696  1.00  0.00    -0.357 OA
HETATM   27  C15 UNL     1      28.464   9.398  49.608  1.00  0.00     0.209 C 
ENDBRANCH  25  26
BRANCH  22  28
HETATM   28  O4  UNL     1      25.201   7.758  49.651  1.00  0.00    -0.353 OA
HETATM   29  C17 UNL     1      24.591   8.775  48.900  1.00  0.00     0.210 C 
ENDBRANCH  22  28
ENDBRANCH  18  19
ENDBRANCH   2  17
TORSDOF 8
ENDMDL
MODEL 2
REMARK VINA RESULT:      -7.5      1.400      1.483
REMARK  8 active torsions:
REMARK  status: ('A' for Active; 'I' for Inactive)
REMARK    1  A    between atoms: O1_2  and  C2_3 
REMARK       I    between atoms: C2_3  and  N1_5 
REMARK    2  A    between atoms: N1_5  and  C3_6 
REMARK    3  A    between atoms: C6_9  and  N2_10 
REMARK    4  A    between atoms: N2_10  and  C7_11 
REMARK    5  A    between atoms: N3_12  and  C8_13 
REMARK    6  A    between atoms: N4_14  and  C9_15 
REMARK    7  A    between atoms: C14_20  and  O3_21 
REMARK    8  A    between atoms: C16_23  and  O4_24 
ROOT
HETATM    1  C7  UNL     1      23.133   4.777  51.932  1.00  0.00     0.208 C 
HETATM    2  N3  UNL     1      23.136   4.825  50.618  1.00  0.00    -0.237 NA
ENDROOT
BRANCH   1   3
HETATM    3  N2  UNL     1      22.824   3.428  52.283  1.00  0.00    -0.351 N 
HETATM    4  H7  UNL     1      21.893   2.904  52.265  1.00  0.00     0.166 HD
BRANCH   3   5
HETATM    5  C6  UNL     1      23.635   2.366  52.767  1.00  0.00     0.033 A 
HETATM    6  C5  UNL     1      23.136   1.086  52.787  1.00  0.00     0.031 A 
HETATM    7  C4  UNL     1      23.836  -0.013  53.233  1.00  0.00     0.032 A 
HETATM    8  C3  UNL     1      25.123   0.202  53.687  1.00  0.00     0.036 A 
HETATM    9  C19 UNL     1      25.666   1.490  53.683  1.00  0.00     0.032 A 
HETATM   10  C18 UNL     1      24.902   2.565  53.217  1.00  0.00     0.031 A 
BRANCH   8  11
HETATM   11  N1  UNL     1      26.131  -0.681  54.209  1.00  0.00    -0.303 N 
HETATM   12  C2  UNL     1      27.009  -1.207  53.213  1.00  0.00     0.364 C 
HETATM   13  O2  UNL     1      26.944  -0.949  51.964  1.00  0.00    -0.238 OA
HETATM   14  H4  UNL     1      26.376  -1.034  55.158  1.00  0.00     0.171 HD
BRANCH  12  15
HETATM   15  O1  UNL     1      28.074  -2.068  53.353  1.00  0.00    -0.309 OA
HETATM   16  C1  UNL     1      29.404  -1.577  53.316  1.00  0.00     0.215 C 
ENDBRANCH  12  15
ENDBRANCH   8  11
ENDBRANCH   3   5
ENDBRANCH   1   3
BRANCH   2  17
HETATM   17  C8  UNL     1      23.424   6.095  50.000  1.00  0.00     0.233 C 
HETATM   18  N4  UNL     1      24.471   6.433  49.329  1.00  0.00    -0.253 NA
BRANCH  18  19
HETATM   19  C9  UNL     1      25.553   5.541  49.090  1.00  0.00     0.132 C 
HETATM   20  C10 UNL     1      26.780   5.929  48.775  1.00  0.00     0.017 A 
HETATM   21  C11 UNL     1      27.861   4.984  48.537  1.00  0.00     0.012 A 
HETATM   22  C16 UNL     1      27.114   7.362  48.642  1.00  0.00     0.109 A 
HETATM   23  C12 UNL     1      29.077   5.372  48.216  1.00  0.00    -0.019 A 
HETATM   24  C13 UNL     1      29.441   6.785  48.073  1.00  0.00     0.094 A 
HETATM   25  C14 UNL     1      28.344   7.733  48.318  1.00  0.00     0.083 A 
BRANCH  25  26
HETATM   26  O3  UNL     1      28.575   9.092  48.213  1.00  0.00    -0.357 OA
HETATM   27  C15 UNL     1      29.922   9.532  48.116  1.00  0.00     0.209 C 
ENDBRANCH  25  26
BRANCH  22  28
HETATM   28  O4  UNL     1      26.055   8.227  48.882  1.00  0.00    -0.353 OA
HETATM   29  C17 UNL     1      26.011   9.192  49.901  1.00  0.00     0.210 C 
ENDBRANCH  22  28
ENDBRANCH  18  19
ENDBRANCH   2  17
TORSDOF 8
ENDMDL
MODEL 3
REMARK VINA RESULT:      -7.4      2.912      7.968
REMARK  8 active torsions:
REMARK  status: ('A' for Active; 'I' for Inactive)
REMARK    1  A    between atoms: O1_2  and  C2_3 
REMARK       I    between atoms: C2_3  and  N1_5 
REMARK    2  A    between atoms: N1_5  and  C3_6 
REMARK    3  A    between atoms: C6_9  and  N2_10 
REMARK    4  A    between atoms: N2_10  and  C7_11 
REMARK    5  A    between atoms: N3_12  and  C8_13 
REMARK    6  A    between atoms: N4_14  and  C9_15 
REMARK    7  A    between atoms: C14_20  and  O3_21 
REMARK    8  A    between atoms: C16_23  and  O4_24 
ROOT
HETATM    1  C7  UNL     1      24.468   5.799  49.464  1.00  0.00     0.208 C 
HETATM    2  N3  UNL     1      24.511   5.631  50.767  1.00  0.00    -0.237 NA
ENDROOT
BRANCH   1   3
HETATM    3  N2  UNL     1      25.494   6.740  49.146  1.00  0.00    -0.351 N 
HETATM    4  H7  UNL     1      25.465   7.807  49.103  1.00  0.00     0.166 HD
BRANCH   3   5
HETATM    5  C6  UNL     1      26.858   6.567  48.786  1.00  0.00     0.033 A 
HETATM    6  C5  UNL     1      27.365   5.299  48.638  1.00  0.00     0.031 A 
HETATM    7  C4  UNL     1      28.668   5.019  48.292  1.00  0.00     0.032 A 
HETATM    8  C3  UNL     1      29.508   6.095  48.079  1.00  0.00     0.036 A 
HETATM    9  C19 UNL     1      29.028   7.402  48.219  1.00  0.00     0.032 A 
HETATM   10  C18 UNL     1      27.693   7.617  48.575  1.00  0.00     0.031 A 
BRANCH   8  11
HETATM   11  N1  UNL     1      30.894   6.190  47.708  1.00  0.00    -0.303 N 
HETATM   12  C2  UNL     1      31.798   5.897  48.774  1.00  0.00     0.364 C 
HETATM   13  O2  UNL     1      31.457   5.577  49.962  1.00  0.00    -0.238 OA
HETATM   14  H4  UNL     1      31.403   6.426  46.830  1.00  0.00     0.171 HD
BRANCH  12  15
HETATM   15  O1  UNL     1      33.175   5.889  48.775  1.00  0.00    -0.309 OA
HETATM   16  C1  UNL     1      33.900   7.082  48.527  1.00  0.00     0.215 C 
ENDBRANCH  12  15
ENDBRANCH   8  11
ENDBRANCH   3   5
ENDBRANCH   1   3
BRANCH   2  17
HETATM   17  C8  UNL     1      23.562   4.717  51.351  1.00  0.00     0.233 C 
HETATM   18  N4  UNL     1      23.736   3.476  51.653  1.00  0.00    -0.253 NA
BRANCH  18  19
HETATM   19  C9  UNL     1      24.967   2.797  51.438  1.00  0.00     0.132 C 
HETATM   20  C10 UNL     1      25.277   1.628  51.980  1.00  0.00     0.017 A 
HETATM   21  C11 UNL     1      26.550   0.966  51.737  1.00  0.00     0.012 A 
HETATM   22  C16 UNL     1      24.331   0.933  52.878  1.00  0.00     0.109 A 
HETATM   23  C12 UNL     1      26.856  -0.191  52.283  1.00  0.00    -0.019 A 
HETATM   24  C13 UNL     1      25.943  -0.906  53.180  1.00  0.00     0.094 A 
HETATM   25  C14 UNL     1      24.658  -0.231  53.418  1.00  0.00     0.083 A 
BRANCH  25  26
HETATM   26  O3  UNL     1      23.719  -0.817  54.247  1.00  0.00    -0.357 OA
HETATM   27  C15 UNL     1      24.148  -1.267  55.524  1.00  0.00     0.209 C 
ENDBRANCH  25  26
BRANCH  22  28
HETATM   28  O4  UNL     1      23.129   1.598  53.078  1.00  0.00    -0.353 OA
HETATM   29  C17 UNL     1      21.860   1.097  52.747  1.00  0.00     0.210 C 
ENDBRANCH  22  28
ENDBRANCH  18  19
ENDBRANCH   2  17
TORSDOF 8
ENDMDL
MODEL 4
REMARK VINA RESULT:      -7.1      3.236      4.255
REMARK  8 active torsions:
REMARK  status: ('A' for Active; 'I' for Inactive)
REMARK    1  A    between atoms: O1_2  and  C2_3 
REMARK       I    between atoms: C2_3  and  N1_5 
REMARK    2  A    between atoms: N1_5  and  C3_6 
REMARK    3  A    between atoms: C6_9  and  N2_10 
REMARK    4  A    between atoms: N2_10  and  C7_11 
REMARK    5  A    between atoms: N3_12  and  C8_13 
REMARK    6  A    between atoms: N4_14  and  C9_15 
REMARK    7  A    between atoms: C14_20  and  O3_21 
REMARK    8  A    between atoms: C16_23  and  O4_24 
ROOT
HETATM    1  C7  UNL     1      19.935   1.412  52.262  1.00  0.00     0.208 C 
HETATM    2  N3  UNL     1      19.899   2.690  52.569  1.00  0.00    -0.237 NA
ENDROOT
BRANCH   1   3
HETATM    3  N2  UNL     1      20.601   0.758  53.343  1.00  0.00    -0.351 N 
HETATM    4  H7  UNL     1      20.228   0.434  54.291  1.00  0.00     0.166 HD
BRANCH   3   5
HETATM    5  C6  UNL     1      21.949   0.341  53.511  1.00  0.00     0.033 A 
HETATM    6  C5  UNL     1      22.914   0.800  52.647  1.00  0.00     0.031 A 
HETATM    7  C4  UNL     1      24.246   0.460  52.720  1.00  0.00     0.032 A 
HETATM    8  C3  UNL     1      24.622  -0.399  53.734  1.00  0.00     0.036 A 
HETATM    9  C19 UNL     1      23.669  -0.888  54.633  1.00  0.00     0.032 A 
HETATM   10  C18 UNL     1      22.330  -0.504  54.503  1.00  0.00     0.031 A 
BRANCH   8  11
HETATM   11  N1  UNL     1      25.891  -0.956  54.118  1.00  0.00    -0.303 N 
HETATM   12  C2  UNL     1      26.799  -0.000  54.665  1.00  0.00     0.364 C 
HETATM   13  O2  UNL     1      26.555   1.244  54.818  1.00  0.00    -0.238 OA
HETATM   14  H4  UNL     1      26.311  -1.909  54.091  1.00  0.00     0.171 HD
BRANCH  12  15
HETATM   15  O1  UNL     1      28.082  -0.180  55.132  1.00  0.00    -0.309 OA
HETATM   16  C1  UNL     1      29.153  -0.392  54.226  1.00  0.00     0.215 C 
ENDBRANCH  12  15
ENDBRANCH   8  11
ENDBRANCH   3   5
ENDBRANCH   1   3
BRANCH   2  17
HETATM   17  C8  UNL     1      19.270   3.581  51.627  1.00  0.00     0.233 C 
HETATM   18  N4  UNL     1      19.787   4.600  51.030  1.00  0.00    -0.253 NA
BRANCH  18  19
HETATM   19  C9  UNL     1      21.135   5.008  51.231  1.00  0.00     0.132 C 
HETATM   20  C10 UNL     1      21.660   6.116  50.729  1.00  0.00     0.017 A 
HETATM   21  C11 UNL     1      23.046   6.498  50.958  1.00  0.00     0.012 A 
HETATM   22  C16 UNL     1      20.852   7.029  49.894  1.00  0.00     0.109 A 
HETATM   23  C12 UNL     1      23.566   7.595  50.451  1.00  0.00    -0.019 A 
HETATM   24  C13 UNL     1      22.793   8.520  49.616  1.00  0.00     0.094 A 
HETATM   25  C14 UNL     1      21.393   8.129  49.393  1.00  0.00     0.083 A 
BRANCH  25  26
HETATM   26  O3  UNL     1      20.571   8.929  48.621  1.00  0.00    -0.357 OA
HETATM   27  C15 UNL     1      20.055  10.114  49.210  1.00  0.00     0.209 C 
ENDBRANCH  25  26
BRANCH  22  28
HETATM   28  O4  UNL     1      19.536   6.628  49.706  1.00  0.00    -0.353 OA
HETATM   29  C17 UNL     1      18.948   6.336  48.465  1.00  0.00     0.210 C 
ENDBRANCH  22  28
ENDBRANCH  18  19
ENDBRANCH   2  17
TORSDOF 8
ENDMDL
MODEL 5
REMARK VINA RESULT:      -7.1      3.540      4.967
REMARK  8 active torsions:
REMARK  status: ('A' for Active; 'I' for Inactive)
REMARK    1  A    between atoms: O1_2  and  C2_3 
REMARK       I    between atoms: C2_3  and  N1_5 
REMARK    2  A    between atoms: N1_5  and  C3_6 
REMARK    3  A    between atoms: C6_9  and  N2_10 
REMARK    4  A    between atoms: N2_10  and  C7_11 
REMARK    5  A    between atoms: N3_12  and  C8_13 
REMARK    6  A    between atoms: N4_14  and  C9_15 
REMARK    7  A    between atoms: C14_20  and  O3_21 
REMARK    8  A    between atoms: C16_23  and  O4_24 
ROOT
HETATM    1  C7  UNL     1      25.941   6.270  48.901  1.00  0.00     0.208 C 
HETATM    2  N3  UNL     1      27.183   6.002  48.564  1.00  0.00    -0.237 NA
ENDROOT
BRANCH   1   3
HETATM    3  N2  UNL     1      25.291   5.011  49.075  1.00  0.00    -0.351 N 
HETATM    4  H7  UNL     1      24.539   4.532  48.484  1.00  0.00     0.166 HD
BRANCH   3   5
HETATM    5  C6  UNL     1      25.423   4.007  50.071  1.00  0.00     0.033 A 
HETATM    6  C5  UNL     1      24.515   3.949  51.101  1.00  0.00     0.031 A 
HETATM    7  C4  UNL     1      24.550   3.018  52.115  1.00  0.00     0.032 A 
HETATM    8  C3  UNL     1      25.570   2.088  52.082  1.00  0.00     0.036 A 
HETATM    9  C19 UNL     1      26.514   2.114  51.050  1.00  0.00     0.032 A 
HETATM   10  C18 UNL     1      26.422   3.087  50.049  1.00  0.00     0.031 A 
BRANCH   8  11
HETATM   11  N1  UNL     1      25.915   0.990  52.944  1.00  0.00    -0.303 N 
HETATM   12  C2  UNL     1      26.823   1.341  53.989  1.00  0.00     0.364 C 
HETATM   13  O2  UNL     1      27.311   2.506  54.180  1.00  0.00    -0.238 OA
HETATM   14  H4  UNL     1      25.655  -0.018  52.988  1.00  0.00     0.171 HD
BRANCH  12  15
HETATM   15  O1  UNL     1      27.358   0.553  54.983  1.00  0.00    -0.309 OA
HETATM   16  C1  UNL     1      28.670   0.030  54.857  1.00  0.00     0.215 C 
ENDBRANCH  12  15
ENDBRANCH   8  11
ENDBRANCH   3   5
ENDBRANCH   1   3
BRANCH   2  17
HETATM   17  C8  UNL     1      28.063   7.118  48.326  1.00  0.00     0.233 C 
HETATM   18  N4  UNL     1      29.305   7.092  47.984  1.00  0.00    -0.253 NA
BRANCH  18  19
HETATM   19  C9  UNL     1      30.022   5.880  47.780  1.00  0.00     0.132 C 
HETATM   20  C10 UNL     1      31.336   5.765  47.898  1.00  0.00     0.017 A 
HETATM   21  C11 UNL     1      32.033   4.506  47.679  1.00  0.00     0.012 A 
HETATM   22  C16 UNL     1      32.172   6.929  48.259  1.00  0.00     0.109 A 
HETATM   23  C12 UNL     1      33.340   4.396  47.790  1.00  0.00    -0.019 A 
HETATM   24  C13 UNL     1      34.198   5.531  48.143  1.00  0.00     0.094 A 
HETATM   25  C14 UNL     1      33.486   6.799  48.365  1.00  0.00     0.083 A 
BRANCH  25  26
HETATM   26  O3  UNL     1      34.197   7.935  48.704  1.00  0.00    -0.357 OA
HETATM   27  C15 UNL     1      35.527   8.056  48.221  1.00  0.00     0.209 C 
ENDBRANCH  25  26
BRANCH  22  28
HETATM   28  O4  UNL     1      31.466   8.106  48.462  1.00  0.00    -0.353 OA
HETATM   29  C17 UNL     1      31.643   9.293  47.733  1.00  0.00     0.210 C 
ENDBRANCH  22  28
ENDBRANCH  18  19
ENDBRANCH   2  17
TORSDOF 8
ENDMDL
MODEL 6
REMARK VINA RESULT:      -7.1      6.256     10.269
REMARK  8 active torsions:
REMARK  status: ('A' for Active; 'I' for Inactive)
REMARK    1  A    between atoms: O1_2  and  C2_3 
REMARK       I    between atoms: C2_3  and  N1_5 
REMARK    2  A    between atoms: N1_5  and  C3_6 
REMARK    3  A    between atoms: C6_9  and  N2_10 
REMARK    4  A    between atoms: N2_10  and  C7_11 
REMARK    5  A    between atoms: N3_12  and  C8_13 
REMARK    6  A    between atoms: N4_14  and  C9_15 
REMARK    7  A    between atoms: C14_20  and  O3_21 
REMARK    8  A    between atoms: C16_23  and  O4_24 
ROOT
HETATM    1  C7  UNL     1      20.607   0.894  52.303  1.00  0.00     0.208 C 
HETATM    2  N3  UNL     1      19.788   0.280  51.479  1.00  0.00    -0.237 NA
ENDROOT
BRANCH   1   3
HETATM    3  N2  UNL     1      21.924   0.478  51.944  1.00  0.00    -0.351 N 
HETATM    4  H7  UNL     1      22.289   0.037  51.040  1.00  0.00     0.166 HD
BRANCH   3   5
HETATM    5  C6  UNL     1      23.154   0.507  52.655  1.00  0.00     0.033 A 
HETATM    6  C5  UNL     1      23.429  -0.478  53.574  1.00  0.00     0.031 A 
HETATM    7  C4  UNL     1      24.588  -0.545  54.315  1.00  0.00     0.032 A 
HETATM    8  C3  UNL     1      25.526   0.448  54.110  1.00  0.00     0.036 A 
HETATM    9  C19 UNL     1      25.282   1.467  53.184  1.00  0.00     0.032 A 
HETATM   10  C18 UNL     1      24.083   1.479  52.463  1.00  0.00     0.031 A 
BRANCH   8  11
HETATM   11  N1  UNL     1      26.821   0.697  54.682  1.00  0.00    -0.303 N 
HETATM   12  C2  UNL     1      27.826  -0.224  54.256  1.00  0.00     0.364 C 
HETATM   13  O2  UNL     1      27.641  -1.194  53.446  1.00  0.00    -0.238 OA
HETATM   14  H4  UNL     1      27.207   1.402  55.345  1.00  0.00     0.171 HD
BRANCH  12  15
HETATM   15  O1  UNL     1      29.159  -0.282  54.596  1.00  0.00    -0.309 OA
HETATM   16  C1  UNL     1      30.153  -0.384  53.590  1.00  0.00     0.215 C 
ENDBRANCH  12  15
ENDBRANCH   8  11
ENDBRANCH   3   5
ENDBRANCH   1   3
BRANCH   2  17
HETATM   17  C8  UNL     1      18.377   0.532  51.634  1.00  0.00     0.233 C 
HETATM   18  N4  UNL     1      17.505  -0.185  52.255  1.00  0.00    -0.253 NA
BRANCH  18  19
HETATM   19  C9  UNL     1      17.837  -1.401  52.914  1.00  0.00     0.132 C 
HETATM   20  C10 UNL     1      17.024  -2.443  53.007  1.00  0.00     0.017 A 
HETATM   21  C11 UNL     1      17.402  -3.670  53.693  1.00  0.00     0.012 A 
HETATM   22  C16 UNL     1      15.671  -2.406  52.414  1.00  0.00     0.109 A 
HETATM   23  C12 UNL     1      16.589  -4.700  53.790  1.00  0.00    -0.019 A 
HETATM   24  C13 UNL     1      15.239  -4.696  53.216  1.00  0.00     0.094 A 
HETATM   25  C14 UNL     1      14.867  -3.454  52.522  1.00  0.00     0.083 A 
BRANCH  25  26
HETATM   26  O3  UNL     1      13.618  -3.340  51.942  1.00  0.00    -0.357 OA
HETATM   27  C15 UNL     1      13.317  -4.185  50.841  1.00  0.00     0.209 C 
ENDBRANCH  25  26
BRANCH  22  28
HETATM   28  O4  UNL     1      15.355  -1.220  51.767  1.00  0.00    -0.353 OA
HETATM   29  C17 UNL     1      15.168  -1.076  50.383  1.00  0.00     0.210 C 
ENDBRANCH  22  28
ENDBRANCH  18  19
ENDBRANCH   2  17
TORSDOF 8
ENDMDL
MODEL 7
REMARK VINA RESULT:      -7.0      1.794      2.639
REMARK  8 active torsions:
REMARK  status: ('A' for Active; 'I' for Inactive)
REMARK    1  A    between atoms: O1_2  and  C2_3 
REMARK       I    between atoms: C2_3  and  N1_5 
REMARK    2  A    between atoms: N1_5  and  C3_6 
REMARK    3  A    between atoms: C6_9  and  N2_10 
REMARK    4  A    between atoms: N2_10  and  C7_11 
REMARK    5  A    between atoms: N3_12  and  C8_13 
REMARK    6  A    between atoms: N4_14  and  C9_15 
REMARK    7  A    between atoms: C14_20  and  O3_21 
REMARK    8  A    between atoms: C16_23  and  O4_24 
ROOT
HETATM    1  C7  UNL     1      23.445   5.604  50.119  1.00  0.00     0.208 C 
HETATM    2  N3  UNL     1      24.298   6.454  50.648  1.00  0.00    -0.237 NA
ENDROOT
BRANCH   1   3
HETATM    3  N2  UNL     1      23.287   4.551  51.069  1.00  0.00    -0.351 N 
HETATM    4  H7  UNL     1      22.424   4.235  51.615  1.00  0.00     0.166 HD
BRANCH   3   5
HETATM    5  C6  UNL     1      24.206   3.602  51.593  1.00  0.00     0.033 A 
HETATM    6  C5  UNL     1      25.178   3.077  50.775  1.00  0.00     0.031 A 
HETATM    7  C4  UNL     1      26.117   2.155  51.180  1.00  0.00     0.032 A 
HETATM    8  C3  UNL     1      26.068   1.742  52.497  1.00  0.00     0.036 A 
HETATM    9  C19 UNL     1      25.095   2.254  53.360  1.00  0.00     0.032 A 
HETATM   10  C18 UNL     1      24.167   3.189  52.886  1.00  0.00     0.031 A 
BRANCH   8  11
HETATM   11  N1  UNL     1      26.868   0.822  53.259  1.00  0.00    -0.303 N 
HETATM   12  C2  UNL     1      28.202   1.273  53.493  1.00  0.00     0.364 C 
HETATM   13  O2  UNL     1      28.688   2.380  53.082  1.00  0.00    -0.238 OA
HETATM   14  H4  UNL     1      26.701  -0.113  53.690  1.00  0.00     0.171 HD
BRANCH  12  15
HETATM   15  O1  UNL     1      29.227   0.657  54.177  1.00  0.00    -0.309 OA
HETATM   16  C1  UNL     1      30.085  -0.257  53.514  1.00  0.00     0.215 C 
ENDBRANCH  12  15
ENDBRANCH   8  11
ENDBRANCH   3   5
ENDBRANCH   1   3
BRANCH   2  17
HETATM   17  C8  UNL     1      24.634   7.624  49.877  1.00  0.00     0.233 C 
HETATM   18  N4  UNL     1      25.563   7.754  48.993  1.00  0.00    -0.253 NA
BRANCH  18  19
HETATM   19  C9  UNL     1      26.439   6.692  48.636  1.00  0.00     0.132 C 
HETATM   20  C10 UNL     1      27.758   6.801  48.580  1.00  0.00     0.017 A 
HETATM   21  C11 UNL     1      28.620   5.689  48.208  1.00  0.00     0.012 A 
HETATM   22  C16 UNL     1      28.428   8.081  48.894  1.00  0.00     0.109 A 
HETATM   23  C12 UNL     1      29.930   5.804  48.146  1.00  0.00    -0.019 A 
HETATM   24  C13 UNL     1      30.625   7.060  48.447  1.00  0.00     0.094 A 
HETATM   25  C14 UNL     1      29.748   8.177  48.826  1.00  0.00     0.083 A 
BRANCH  25  26
HETATM   26  O3  UNL     1      30.297   9.408  49.132  1.00  0.00    -0.357 OA
HETATM   27  C15 UNL     1      31.231   9.965  48.219  1.00  0.00     0.209 C 
ENDBRANCH  25  26
BRANCH  22  28
HETATM   28  O4  UNL     1      27.568   9.112  49.247  1.00  0.00    -0.353 OA
HETATM   29  C17 UNL     1      27.426  10.322  48.551  1.00  0.00     0.210 C 
ENDBRANCH  22  28
ENDBRANCH  18  19
ENDBRANCH   2  17
TORSDOF 8
ENDMDL
MODEL 8
REMARK VINA RESULT:      -6.9      5.956      9.342
REMARK  8 active torsions:
REMARK  status: ('A' for Active; 'I' for Inactive)
REMARK    1  A    between atoms: O1_2  and  C2_3 
REMARK       I    between atoms: C2_3  and  N1_5 
REMARK    2  A    between atoms: N1_5  and  C3_6 
REMARK    3  A    between atoms: C6_9  and  N2_10 
REMARK    4  A    between atoms: N2_10  and  C7_11 
REMARK    5  A    between atoms: N3_12  and  C8_13 
REMARK    6  A    between atoms: N4_14  and  C9_15 
REMARK    7  A    between atoms: C14_20  and  O3_21 
REMARK    8  A    between atoms: C16_23  and  O4_24 
ROOT
HETATM    1  C7  UNL     1      20.193   0.903  53.068  1.00  0.00     0.208 C 
HETATM    2  N3  UNL     1      19.653   0.276  52.046  1.00  0.00    -0.237 NA
ENDROOT
BRANCH   1   3
HETATM    3  N2  UNL     1      21.434   1.433  52.602  1.00  0.00    -0.351 N 
HETATM    4  H7  UNL     1      21.643   2.327  52.055  1.00  0.00     0.166 HD
BRANCH   3   5
HETATM    5  C6  UNL     1      22.767   0.953  52.706  1.00  0.00     0.033 A 
HETATM    6  C5  UNL     1      23.775   1.595  52.027  1.00  0.00     0.031 A 
HETATM    7  C4  UNL     1      25.098   1.214  52.059  1.00  0.00     0.032 A 
HETATM    8  C3  UNL     1      25.418   0.114  52.830  1.00  0.00     0.036 A 
HETATM    9  C19 UNL     1      24.421  -0.566  53.537  1.00  0.00     0.032 A 
HETATM   10  C18 UNL     1      23.094  -0.128  53.461  1.00  0.00     0.031 A 
BRANCH   8  11
HETATM   11  N1  UNL     1      26.661  -0.555  53.103  1.00  0.00    -0.303 N 
HETATM   12  C2  UNL     1      27.389   0.005  54.197  1.00  0.00     0.364 C 
HETATM   13  O2  UNL     1      27.014   1.006  54.895  1.00  0.00    -0.238 OA
HETATM   14  H4  UNL     1      27.165  -1.366  52.686  1.00  0.00     0.171 HD
BRANCH  12  15
HETATM   15  O1  UNL     1      28.600  -0.378  54.729  1.00  0.00    -0.309 OA
HETATM   16  C1  UNL     1      29.619  -0.899  53.892  1.00  0.00     0.215 C 
ENDBRANCH  12  15
ENDBRANCH   8  11
ENDBRANCH   3   5
ENDBRANCH   1   3
BRANCH   2  17
HETATM   17  C8  UNL     1      18.375  -0.358  52.256  1.00  0.00     0.233 C 
HETATM   18  N4  UNL     1      17.204   0.105  51.983  1.00  0.00    -0.253 NA
BRANCH  18  19
HETATM   19  C9  UNL     1      17.000   1.386  51.399  1.00  0.00     0.132 C 
HETATM   20  C10 UNL     1      15.940   2.147  51.628  1.00  0.00     0.017 A 
HETATM   21  C11 UNL     1      15.767   3.453  51.009  1.00  0.00     0.012 A 
HETATM   22  C16 UNL     1      14.862   1.697  52.534  1.00  0.00     0.109 A 
HETATM   23  C12 UNL     1      14.709   4.204  51.233  1.00  0.00    -0.019 A 
HETATM   24  C13 UNL     1      13.621   3.786  52.123  1.00  0.00     0.094 A 
HETATM   25  C14 UNL     1      13.805   2.467  52.747  1.00  0.00     0.083 A 
BRANCH  25  26
HETATM   26  O3  UNL     1      12.841   1.973  53.606  1.00  0.00    -0.357 OA
HETATM   27  C15 UNL     1      12.083   2.907  54.361  1.00  0.00     0.209 C 
ENDBRANCH  25  26
BRANCH  22  28
HETATM   28  O4  UNL     1      15.071   0.449  53.104  1.00  0.00    -0.353 OA
HETATM   29  C17 UNL     1      14.289  -0.692  52.864  1.00  0.00     0.210 C 
ENDBRANCH  22  28
ENDBRANCH  18  19
ENDBRANCH   2  17
TORSDOF 8
ENDMDL
MODEL 9
REMARK VINA RESULT:      -6.7      2.880      3.836
REMARK  8 active torsions:
REMARK  status: ('A' for Active; 'I' for Inactive)
REMARK    1  A    between atoms: O1_2  and  C2_3 
REMARK       I    between atoms: C2_3  and  N1_5 
REMARK    2  A    between atoms: N1_5  and  C3_6 
REMARK    3  A    between atoms: C6_9  and  N2_10 
REMARK    4  A    between atoms: N2_10  and  C7_11 
REMARK    5  A    between atoms: N3_12  and  C8_13 
REMARK    6  A    between atoms: N4_14  and  C9_15 
REMARK    7  A    between atoms: C14_20  and  O3_21 
REMARK    8  A    between atoms: C16_23  and  O4_24 
ROOT
HETATM    1  C7  UNL     1      22.429   7.386  50.679  1.00  0.00     0.208 C 
HETATM    2  N3  UNL     1      23.737   7.524  50.715  1.00  0.00    -0.237 NA
ENDROOT
BRANCH   1   3
HETATM    3  N2  UNL     1      22.102   6.405  51.663  1.00  0.00    -0.351 N 
HETATM    4  H7  UNL     1      21.504   6.482  52.545  1.00  0.00     0.166 HD
BRANCH   3   5
HETATM    5  C6  UNL     1      22.462   5.036  51.791  1.00  0.00     0.033 A 
HETATM    6  C5  UNL     1      23.411   4.668  52.714  1.00  0.00     0.031 A 
HETATM    7  C4  UNL     1      23.831   3.372  52.920  1.00  0.00     0.032 A 
HETATM    8  C3  UNL     1      23.250   2.390  52.142  1.00  0.00     0.036 A 
HETATM    9  C19 UNL     1      22.280   2.726  51.192  1.00  0.00     0.032 A 
HETATM   10  C18 UNL     1      21.898   4.062  51.031  1.00  0.00     0.031 A 
BRANCH   8  11
HETATM   11  N1  UNL     1      23.428   0.965  52.081  1.00  0.00    -0.303 N 
HETATM   12  C2  UNL     1      22.594   0.241  52.986  1.00  0.00     0.364 C 
HETATM   13  O2  UNL     1      21.755   0.764  53.794  1.00  0.00    -0.238 OA
HETATM   14  H4  UNL     1      24.031   0.324  51.523  1.00  0.00     0.171 HD
BRANCH  12  15
HETATM   15  O1  UNL     1      22.499  -1.118  53.192  1.00  0.00    -0.309 OA
HETATM   16  C1  UNL     1      21.856  -1.625  54.349  1.00  0.00     0.215 C 
ENDBRANCH  12  15
ENDBRANCH   8  11
ENDBRANCH   3   5
ENDBRANCH   1   3
BRANCH   2  17
HETATM   17  C8  UNL     1      24.330   8.470  49.804  1.00  0.00     0.233 C 
HETATM   18  N4  UNL     1      25.263   8.262  48.940  1.00  0.00    -0.253 NA
BRANCH  18  19
HETATM   19  C9  UNL     1      25.872   6.990  48.755  1.00  0.00     0.132 C 
HETATM   20  C10 UNL     1      27.176   6.804  48.607  1.00  0.00     0.017 A 
HETATM   21  C11 UNL     1      27.760   5.484  48.418  1.00  0.00     0.012 A 
HETATM   22  C16 UNL     1      28.113   7.946  48.621  1.00  0.00     0.109 A 
HETATM   23  C12 UNL     1      29.054   5.303  48.263  1.00  0.00    -0.019 A 
HETATM   24  C13 UNL     1      30.011   6.414  48.268  1.00  0.00     0.094 A 
HETATM   25  C14 UNL     1      29.413   7.743  48.463  1.00  0.00     0.083 A 
BRANCH  25  26
HETATM   26  O3  UNL     1      30.223   8.864  48.486  1.00  0.00    -0.357 OA
HETATM   27  C15 UNL     1      31.434   8.824  47.746  1.00  0.00     0.209 C 
ENDBRANCH  25  26
BRANCH  22  28
HETATM   28  O4  UNL     1      27.513   9.184  48.807  1.00  0.00    -0.353 OA
HETATM   29  C17 UNL     1      27.576  10.258  47.905  1.00  0.00     0.210 C 
ENDBRANCH  22  28
ENDBRANCH  18  19
ENDBRANCH   2  17
TORSDOF 8
ENDMDL
