MODEL 1
REMARK VINA RESULT:      -8.7      0.000      0.000
REMARK  3 active torsions:
REMARK  status: ('A' for Active; 'I' for Inactive)
REMARK    1  A    between atoms: O1_2  and  C2_3 
REMARK    2  A    between atoms: C6_7  and  O2_8 
REMARK    3  A    between atoms: C12_17  and  C13_18 
ROOT
HETATM    1  C2  UNL     1      26.738  -0.756  53.125  1.00  0.00     0.100 A 
HETATM    2  C3  UNL     1      26.744   0.017  52.051  1.00  0.00     0.057 A 
HETATM    3  C4  UNL     1      26.072   1.341  52.269  1.00  0.00     0.126 A 
HETATM    4  C5  UNL     1      25.672   1.179  53.705  1.00  0.00     0.057 A 
HETATM    5  C6  UNL     1      26.054  -0.002  54.168  1.00  0.00     0.100 A 
HETATM    6  C8  UNL     1      26.986   2.488  52.059  1.00  0.00     0.167 C 
HETATM    7  N1  UNL     1      26.692   3.285  50.887  1.00  0.00    -0.381 N 
HETATM    8  C9  UNL     1      25.313   3.466  50.529  1.00  0.00     0.111 A 
HETATM    9  C10 UNL     1      24.423   2.442  50.869  1.00  0.00     0.196 A 
HETATM   10  N2  UNL     1      23.119   2.612  50.532  1.00  0.00    -0.216 NA
HETATM   11  C11 UNL     1      22.762   3.752  49.892  1.00  0.00     0.236 A 
HETATM   12  N3  UNL     1      23.625   4.755  49.556  1.00  0.00    -0.239 NA
HETATM   13  C12 UNL     1      24.937   4.625  49.877  1.00  0.00     0.099 A 
HETATM   14  O3  UNL     1      24.899   1.320  51.523  1.00  0.00    -0.311 OA
HETATM   15  H11 UNL     1      27.380   3.754  50.255  1.00  0.00     0.160 HD
ENDROOT
BRANCH   1  16
HETATM   16  O1  UNL     1      27.326  -2.010  53.062  1.00  0.00    -0.353 OA
HETATM   17  C1  UNL     1      28.701  -2.242  53.034  1.00  0.00     0.210 C 
ENDBRANCH   1  16
BRANCH   5  18
HETATM   18  O2  UNL     1      25.897  -0.571  55.423  1.00  0.00    -0.353 OA
HETATM   19  C7  UNL     1      24.778  -1.277  55.867  1.00  0.00     0.210 C 
ENDBRANCH   5  18
BRANCH  13  20
HETATM   20  C13 UNL     1      25.866   5.671  49.532  1.00  0.00    -0.003 A 
HETATM   21  C14 UNL     1      25.550   6.857  50.206  1.00  0.00     0.017 A 
HETATM   22  C15 UNL     1      26.319   8.013  50.029  1.00  0.00     0.045 A 
HETATM   23  C16 UNL     1      27.407   8.000  49.180  1.00  0.00     0.138 A 
HETATM   24  F1  UNL     1      28.214   9.049  48.933  1.00  0.00    -0.204 F 
HETATM   25  C17 UNL     1      27.705   6.816  48.520  1.00  0.00     0.073 A 
HETATM   26 CL1  UNL     1      29.059   6.626  47.400  1.00  0.00    -0.081 Cl
HETATM   27  C18 UNL     1      26.955   5.670  48.686  1.00  0.00     0.041 A 
ENDBRANCH  13  20
TORSDOF 3
ENDMDL
MODEL 2
REMARK VINA RESULT:      -8.2      4.361      6.939
REMARK  3 active torsions:
REMARK  status: ('A' for Active; 'I' for Inactive)
REMARK    1  A    between atoms: O1_2  and  C2_3 
REMARK    2  A    between atoms: C6_7  and  O2_8 
REMARK    3  A    between atoms: C12_17  and  C13_18 
ROOT
HETATM    1  C2  UNL     1      19.635   1.529  50.921  1.00  0.00     0.100 A 
HETATM    2  C3  UNL     1      20.866   1.100  50.693  1.00  0.00     0.057 A 
HETATM    3  C4  UNL     1      21.920   1.944  51.350  1.00  0.00     0.126 A 
HETATM    4  C5  UNL     1      21.040   2.960  52.015  1.00  0.00     0.057 A 
HETATM    5  C6  UNL     1      19.763   2.712  51.764  1.00  0.00     0.100 A 
HETATM    6  C8  UNL     1      22.741   1.181  52.319  1.00  0.00     0.167 C 
HETATM    7  N1  UNL     1      24.113   0.968  51.909  1.00  0.00    -0.381 N 
HETATM    8  C9  UNL     1      24.762   2.018  51.175  1.00  0.00     0.111 A 
HETATM    9  C10 UNL     1      23.956   2.837  50.378  1.00  0.00     0.196 A 
HETATM   10  N2  UNL     1      24.569   3.830  49.684  1.00  0.00    -0.216 NA
HETATM   11  C11 UNL     1      25.912   3.967  49.805  1.00  0.00     0.236 A 
HETATM   12  N3  UNL     1      26.705   3.172  50.581  1.00  0.00    -0.239 NA
HETATM   13  C12 UNL     1      26.131   2.168  51.292  1.00  0.00     0.099 A 
HETATM   14  O3  UNL     1      22.593   2.604  50.330  1.00  0.00    -0.311 OA
HETATM   15  H11 UNL     1      24.699   0.121  52.086  1.00  0.00     0.160 HD
ENDROOT
BRANCH   1  16
HETATM   16  O1  UNL     1      18.564   0.842  50.372  1.00  0.00    -0.353 OA
HETATM   17  C1  UNL     1      17.802  -0.113  51.046  1.00  0.00     0.210 C 
ENDBRANCH   1  16
BRANCH   5  18
HETATM   18  O2  UNL     1      18.619   3.383  52.169  1.00  0.00    -0.353 OA
HETATM   19  C7  UNL     1      17.697   4.007  51.329  1.00  0.00     0.210 C 
ENDBRANCH   5  18
BRANCH  13  20
HETATM   20  C13 UNL     1      26.950   1.316  52.117  1.00  0.00    -0.003 A 
HETATM   21  C14 UNL     1      27.726   2.077  53.000  1.00  0.00     0.017 A 
HETATM   22  C15 UNL     1      28.599   1.463  53.904  1.00  0.00     0.045 A 
HETATM   23  C16 UNL     1      28.710   0.088  53.938  1.00  0.00     0.138 A 
HETATM   24  F1  UNL     1      29.515  -0.608  54.761  1.00  0.00    -0.204 F 
HETATM   25  C17 UNL     1      27.934  -0.651  53.056  1.00  0.00     0.073 A 
HETATM   26 CL1  UNL     1      27.952  -2.416  52.966  1.00  0.00    -0.081 Cl
HETATM   27  C18 UNL     1      27.069  -0.058  52.160  1.00  0.00     0.041 A 
ENDBRANCH  13  20
TORSDOF 3
ENDMDL
MODEL 3
REMARK VINA RESULT:      -8.1      4.580      7.710
REMARK  3 active torsions:
REMARK  status: ('A' for Active; 'I' for Inactive)
REMARK    1  A    between atoms: O1_2  and  C2_3 
REMARK    2  A    between atoms: C6_7  and  O2_8 
REMARK    3  A    between atoms: C12_17  and  C13_18 
ROOT
HETATM    1  C2  UNL     1      21.064   3.948  50.044  1.00  0.00     0.100 A 
HETATM    2  C3  UNL     1      21.922   3.698  51.020  1.00  0.00     0.057 A 
HETATM    3  C4  UNL     1      22.322   2.253  51.103  1.00  0.00     0.126 A 
HETATM    4  C5  UNL     1      21.515   1.710  49.962  1.00  0.00     0.057 A 
HETATM    5  C6  UNL     1      20.816   2.674  49.380  1.00  0.00     0.100 A 
HETATM    6  C8  UNL     1      23.778   2.052  50.916  1.00  0.00     0.167 C 
HETATM    7  N1  UNL     1      24.484   1.625  52.106  1.00  0.00    -0.381 N 
HETATM    8  C9  UNL     1      23.804   0.735  53.004  1.00  0.00     0.111 A 
HETATM    9  C10 UNL     1      22.409   0.825  53.063  1.00  0.00     0.196 A 
HETATM   10  N2  UNL     1      21.766  -0.017  53.911  1.00  0.00    -0.216 NA
HETATM   11  C11 UNL     1      22.505  -0.884  54.644  1.00  0.00     0.236 A 
HETATM   12  N3  UNL     1      23.866  -0.978  54.592  1.00  0.00    -0.239 NA
HETATM   13  C12 UNL     1      24.548  -0.155  53.755  1.00  0.00     0.099 A 
HETATM   14  O3  UNL     1      21.757   1.750  52.268  1.00  0.00    -0.311 OA
HETATM   15  H11 UNL     1      25.451   1.896  52.396  1.00  0.00     0.160 HD
ENDROOT
BRANCH   1  16
HETATM   16  O1  UNL     1      20.610   5.244  49.855  1.00  0.00    -0.353 OA
HETATM   17  C1  UNL     1      21.186   6.379  50.424  1.00  0.00     0.210 C 
ENDBRANCH   1  16
BRANCH   5  18
HETATM   18  O2  UNL     1      19.944   2.629  48.303  1.00  0.00    -0.353 OA
HETATM   19  C7  UNL     1      20.142   3.240  47.065  1.00  0.00     0.210 C 
ENDBRANCH   5  18
BRANCH  13  20
HETATM   20  C13 UNL     1      25.985  -0.236  53.685  1.00  0.00    -0.003 A 
HETATM   21  C14 UNL     1      26.385  -1.399  53.016  1.00  0.00     0.017 A 
HETATM   22  C15 UNL     1      27.740  -1.690  52.825  1.00  0.00     0.045 A 
HETATM   23  C16 UNL     1      28.709  -0.828  53.297  1.00  0.00     0.138 A 
HETATM   24  F1  UNL     1      30.037  -1.007  53.171  1.00  0.00    -0.204 F 
HETATM   25  C17 UNL     1      28.295   0.320  53.957  1.00  0.00     0.073 A 
HETATM   26 CL1  UNL     1      29.401   1.527  54.623  1.00  0.00    -0.081 Cl
HETATM   27  C18 UNL     1      26.963   0.618  54.153  1.00  0.00     0.041 A 
ENDBRANCH  13  20
TORSDOF 3
ENDMDL
MODEL 4
REMARK VINA RESULT:      -8.0      4.155      7.502
REMARK  3 active torsions:
REMARK  status: ('A' for Active; 'I' for Inactive)
REMARK    1  A    between atoms: O1_2  and  C2_3 
REMARK    2  A    between atoms: C6_7  and  O2_8 
REMARK    3  A    between atoms: C12_17  and  C13_18 
ROOT
HETATM    1  C2  UNL     1      22.622   5.092  49.261  1.00  0.00     0.100 A 
HETATM    2  C3  UNL     1      23.201   4.650  50.367  1.00  0.00     0.057 A 
HETATM    3  C4  UNL     1      23.599   3.204  50.291  1.00  0.00     0.126 A 
HETATM    4  C5  UNL     1      23.129   2.894  48.901  1.00  0.00     0.057 A 
HETATM    5  C6  UNL     1      22.585   3.963  48.339  1.00  0.00     0.100 A 
HETATM    6  C8  UNL     1      25.057   3.003  50.457  1.00  0.00     0.167 C 
HETATM    7  N1  UNL     1      25.438   2.353  51.693  1.00  0.00    -0.381 N 
HETATM    8  C9  UNL     1      24.567   1.334  52.210  1.00  0.00     0.111 A 
HETATM    9  C10 UNL     1      23.204   1.447  51.918  1.00  0.00     0.196 A 
HETATM   10  N2  UNL     1      22.381   0.484  52.405  1.00  0.00    -0.216 NA
HETATM   11  C11 UNL     1      22.923  -0.518  53.138  1.00  0.00     0.236 A 
HETATM   12  N3  UNL     1      24.252  -0.635  53.427  1.00  0.00    -0.239 NA
HETATM   13  C12 UNL     1      25.110   0.306  52.957  1.00  0.00     0.099 A 
HETATM   14  O3  UNL     1      22.761   2.516  51.159  1.00  0.00    -0.311 OA
HETATM   15  H11 UNL     1      26.290   2.543  52.268  1.00  0.00     0.160 HD
ENDROOT
BRANCH   1  16
HETATM   16  O1  UNL     1      22.204   6.412  49.195  1.00  0.00    -0.353 OA
HETATM   17  C1  UNL     1      21.950   7.221  50.302  1.00  0.00     0.210 C 
ENDBRANCH   1  16
BRANCH   5  18
HETATM   18  O2  UNL     1      22.025   4.133  47.082  1.00  0.00    -0.353 OA
HETATM   19  C7  UNL     1      20.668   4.042  46.772  1.00  0.00     0.210 C 
ENDBRANCH   5  18
BRANCH  13  20
HETATM   20  C13 UNL     1      26.517   0.203  53.251  1.00  0.00    -0.003 A 
HETATM   21  C14 UNL     1      27.013  -1.050  52.869  1.00  0.00     0.017 A 
HETATM   22  C15 UNL     1      28.361  -1.378  53.055  1.00  0.00     0.045 A 
HETATM   23  C16 UNL     1      29.226  -0.465  53.623  1.00  0.00     0.138 A 
HETATM   24  F1  UNL     1      30.537  -0.672  53.850  1.00  0.00    -0.204 F 
HETATM   25  C17 UNL     1      28.718   0.772  53.995  1.00  0.00     0.073 A 
HETATM   26 CL1  UNL     1      29.685   2.053  54.733  1.00  0.00    -0.081 Cl
HETATM   27  C18 UNL     1      27.391   1.108  53.817  1.00  0.00     0.041 A 
ENDBRANCH  13  20
TORSDOF 3
ENDMDL
MODEL 5
REMARK VINA RESULT:      -8.0      4.803      6.059
REMARK  3 active torsions:
REMARK  status: ('A' for Active; 'I' for Inactive)
REMARK    1  A    between atoms: O1_2  and  C2_3 
REMARK    2  A    between atoms: C6_7  and  O2_8 
REMARK    3  A    between atoms: C12_17  and  C13_18 
ROOT
HETATM    1  C2  UNL     1      27.721  -0.386  53.193  1.00  0.00     0.100 A 
HETATM    2  C3  UNL     1      26.545  -0.547  52.607  1.00  0.00     0.057 A 
HETATM    3  C4  UNL     1      25.456   0.281  53.227  1.00  0.00     0.126 A 
HETATM    4  C5  UNL     1      26.249   0.963  54.302  1.00  0.00     0.057 A 
HETATM    5  C6  UNL     1      27.516   0.577  54.268  1.00  0.00     0.100 A 
HETATM    6  C8  UNL     1      24.852   1.239  52.271  1.00  0.00     0.167 C 
HETATM    7  N1  UNL     1      23.489   0.933  51.894  1.00  0.00    -0.381 N 
HETATM    8  C9  UNL     1      22.628   0.366  52.894  1.00  0.00     0.111 A 
HETATM    9  C10 UNL     1      23.228  -0.415  53.888  1.00  0.00     0.196 A 
HETATM   10  N2  UNL     1      22.414  -0.950  54.834  1.00  0.00    -0.216 NA
HETATM   11  C11 UNL     1      21.085  -0.698  54.760  1.00  0.00     0.236 A 
HETATM   12  N3  UNL     1      20.493   0.063  53.794  1.00  0.00    -0.239 NA
HETATM   13  C12 UNL     1      21.271   0.617  52.829  1.00  0.00     0.099 A 
HETATM   14  O3  UNL     1      24.597  -0.605  53.865  1.00  0.00    -0.311 OA
HETATM   15  H11 UNL     1      23.047   1.077  50.957  1.00  0.00     0.160 HD
ENDROOT
BRANCH   1  16
HETATM   16  O1  UNL     1      28.816  -1.093  52.720  1.00  0.00    -0.353 OA
HETATM   17  C1  UNL     1      29.525  -2.044  53.454  1.00  0.00     0.210 C 
ENDBRANCH   1  16
BRANCH   5  18
HETATM   18  O2  UNL     1      28.591   0.943  55.064  1.00  0.00    -0.353 OA
HETATM   19  C7  UNL     1      29.558   1.896  54.745  1.00  0.00     0.210 C 
ENDBRANCH   5  18
BRANCH  13  20
HETATM   20  C13 UNL     1      20.667   1.424  51.798  1.00  0.00    -0.003 A 
HETATM   21  C14 UNL     1      19.988   0.620  50.874  1.00  0.00     0.017 A 
HETATM   22  C15 UNL     1      19.319   1.187  49.783  1.00  0.00     0.045 A 
HETATM   23  C16 UNL     1      19.320   2.554  49.601  1.00  0.00     0.138 A 
HETATM   24  F1  UNL     1      18.714   3.205  48.591  1.00  0.00    -0.204 F 
HETATM   25  C17 UNL     1      19.998   3.335  50.526  1.00  0.00     0.073 A 
HETATM   26 CL1  UNL     1      20.100   5.098  50.444  1.00  0.00    -0.081 Cl
HETATM   27  C18 UNL     1      20.661   2.790  51.606  1.00  0.00     0.041 A 
ENDBRANCH  13  20
TORSDOF 3
ENDMDL
MODEL 6
REMARK VINA RESULT:      -7.6      4.752      8.408
REMARK  3 active torsions:
REMARK  status: ('A' for Active; 'I' for Inactive)
REMARK    1  A    between atoms: O1_2  and  C2_3 
REMARK    2  A    between atoms: C6_7  and  O2_8 
REMARK    3  A    between atoms: C12_17  and  C13_18 
ROOT
HETATM    1  C2  UNL     1      24.212   6.821  48.676  1.00  0.00     0.100 A 
HETATM    2  C3  UNL     1      24.032   5.517  48.815  1.00  0.00     0.057 A 
HETATM    3  C4  UNL     1      24.322   5.023  50.202  1.00  0.00     0.126 A 
HETATM    4  C5  UNL     1      24.710   6.319  50.848  1.00  0.00     0.057 A 
HETATM    5  C6  UNL     1      24.643   7.316  49.978  1.00  0.00     0.100 A 
HETATM    6  C8  UNL     1      23.143   4.397  50.845  1.00  0.00     0.167 C 
HETATM    7  N1  UNL     1      23.248   2.966  51.031  1.00  0.00    -0.381 N 
HETATM    8  C9  UNL     1      24.539   2.425  51.352  1.00  0.00     0.111 A 
HETATM    9  C10 UNL     1      25.659   3.110  50.869  1.00  0.00     0.196 A 
HETATM   10  N2  UNL     1      26.880   2.600  51.174  1.00  0.00    -0.216 NA
HETATM   11  C11 UNL     1      26.940   1.470  51.918  1.00  0.00     0.236 A 
HETATM   12  N3  UNL     1      25.851   0.796  52.392  1.00  0.00    -0.239 NA
HETATM   13  C12 UNL     1      24.612   1.273  52.112  1.00  0.00     0.099 A 
HETATM   14  O3  UNL     1      25.479   4.257  50.117  1.00  0.00    -0.311 OA
HETATM   15  H11 UNL     1      22.478   2.262  50.956  1.00  0.00     0.160 HD
ENDROOT
BRANCH   1  16
HETATM   16  O1  UNL     1      23.980   7.411  47.443  1.00  0.00    -0.353 OA
HETATM   17  C1  UNL     1      24.960   8.006  46.650  1.00  0.00     0.210 C 
ENDBRANCH   1  16
BRANCH   5  18
HETATM   18  O2  UNL     1      24.910   8.668  50.135  1.00  0.00    -0.353 OA
HETATM   19  C7  UNL     1      26.147   9.284  49.948  1.00  0.00     0.210 C 
ENDBRANCH   5  18
BRANCH  13  20
HETATM   20  C13 UNL     1      23.449   0.577  52.602  1.00  0.00    -0.003 A 
HETATM   21  C14 UNL     1      23.777  -0.224  53.703  1.00  0.00     0.017 A 
HETATM   22  C15 UNL     1      22.803  -0.993  54.349  1.00  0.00     0.045 A 
HETATM   23  C16 UNL     1      21.496  -0.973  53.907  1.00  0.00     0.138 A 
HETATM   24  F1  UNL     1      20.480  -1.671  54.449  1.00  0.00    -0.204 F 
HETATM   25  C17 UNL     1      21.189  -0.174  52.814  1.00  0.00     0.073 A 
HETATM   26 CL1  UNL     1      19.569  -0.033  52.121  1.00  0.00    -0.081 Cl
HETATM   27  C18 UNL     1      22.139   0.589  52.168  1.00  0.00     0.041 A 
ENDBRANCH  13  20
TORSDOF 3
ENDMDL
MODEL 7
REMARK VINA RESULT:      -7.3      6.007      8.350
REMARK  3 active torsions:
REMARK  status: ('A' for Active; 'I' for Inactive)
REMARK    1  A    between atoms: O1_2  and  C2_3 
REMARK    2  A    between atoms: C6_7  and  O2_8 
REMARK    3  A    between atoms: C12_17  and  C13_18 
ROOT
HETATM    1  C2  UNL     1      33.885   6.319  47.897  1.00  0.00     0.100 A 
HETATM    2  C3  UNL     1      32.767   6.811  48.407  1.00  0.00     0.057 A 
HETATM    3  C4  UNL     1      31.534   6.361  47.679  1.00  0.00     0.126 A 
HETATM    4  C5  UNL     1      32.170   5.496  46.632  1.00  0.00     0.057 A 
HETATM    5  C6  UNL     1      33.487   5.485  46.769  1.00  0.00     0.100 A 
HETATM    6  C8  UNL     1      30.599   5.608  48.548  1.00  0.00     0.167 C 
HETATM    7  N1  UNL     1      29.363   6.301  48.844  1.00  0.00    -0.381 N 
HETATM    8  C9  UNL     1      28.791   7.120  47.813  1.00  0.00     0.111 A 
HETATM    9  C10 UNL     1      29.671   7.707  46.898  1.00  0.00     0.196 A 
HETATM   10  N2  UNL     1      29.130   8.481  45.923  1.00  0.00    -0.216 NA
HETATM   11  C11 UNL     1      27.785   8.637  45.895  1.00  0.00     0.236 A 
HETATM   12  N3  UNL     1      26.920   8.068  46.784  1.00  0.00    -0.239 NA
HETATM   13  C12 UNL     1      27.419   7.286  47.774  1.00  0.00     0.099 A 
HETATM   14  O3  UNL     1      31.029   7.478  47.023  1.00  0.00    -0.311 OA
HETATM   15  H11 UNL     1      28.826   6.275  49.741  1.00  0.00     0.160 HD
ENDROOT
BRANCH   1  16
HETATM   16  O1  UNL     1      35.100   6.655  48.473  1.00  0.00    -0.353 OA
HETATM   17  C1  UNL     1      35.850   5.813  49.294  1.00  0.00     0.210 C 
ENDBRANCH   1  16
BRANCH   5  18
HETATM   18  O2  UNL     1      34.463   4.831  46.033  1.00  0.00    -0.353 OA
HETATM   19  C7  UNL     1      35.002   3.577  46.320  1.00  0.00     0.210 C 
ENDBRANCH   5  18
BRANCH  13  20
HETATM   20  C13 UNL     1      26.524   6.675  48.725  1.00  0.00    -0.003 A 
HETATM   21  C14 UNL     1      26.002   7.634  49.601  1.00  0.00     0.017 A 
HETATM   22  C15 UNL     1      25.104   7.273  50.612  1.00  0.00     0.045 A 
HETATM   23  C16 UNL     1      24.719   5.957  50.761  1.00  0.00     0.138 A 
HETATM   24  F1  UNL     1      23.865   5.496  51.694  1.00  0.00    -0.204 F 
HETATM   25  C17 UNL     1      25.246   5.019  49.884  1.00  0.00     0.073 A 
HETATM   26 CL1  UNL     1      24.860   3.295  49.934  1.00  0.00    -0.081 Cl
HETATM   27  C18 UNL     1      26.132   5.362  48.883  1.00  0.00     0.041 A 
ENDBRANCH  13  20
TORSDOF 3
ENDMDL
MODEL 8
REMARK VINA RESULT:      -7.2      4.568      8.036
REMARK  3 active torsions:
REMARK  status: ('A' for Active; 'I' for Inactive)
REMARK    1  A    between atoms: O1_2  and  C2_3 
REMARK    2  A    between atoms: C6_7  and  O2_8 
REMARK    3  A    between atoms: C12_17  and  C13_18 
ROOT
HETATM    1  C2  UNL     1      22.013   4.956  47.191  1.00  0.00     0.100 A 
HETATM    2  C3  UNL     1      22.213   4.713  48.476  1.00  0.00     0.057 A 
HETATM    3  C4  UNL     1      22.464   3.263  48.774  1.00  0.00     0.126 A 
HETATM    4  C5  UNL     1      22.369   2.708  47.385  1.00  0.00     0.057 A 
HETATM    5  C6  UNL     1      22.116   3.671  46.510  1.00  0.00     0.100 A 
HETATM    6  C8  UNL     1      23.790   3.028  49.392  1.00  0.00     0.167 C 
HETATM    7  N1  UNL     1      23.743   2.617  50.779  1.00  0.00    -0.381 N 
HETATM    8  C9  UNL     1      22.662   1.764  51.188  1.00  0.00     0.111 A 
HETATM    9  C10 UNL     1      21.453   1.884  50.496  1.00  0.00     0.196 A 
HETATM   10  N2  UNL     1      20.432   1.077  50.882  1.00  0.00    -0.216 NA
HETATM   11  C11 UNL     1      20.642   0.214  51.905  1.00  0.00     0.236 A 
HETATM   12  N3  UNL     1      21.820   0.091  52.585  1.00  0.00    -0.239 NA
HETATM   13  C12 UNL     1      22.867   0.878  52.230  1.00  0.00     0.099 A 
HETATM   14  O3  UNL     1      21.351   2.802  49.466  1.00  0.00    -0.311 OA
HETATM   15  H11 UNL     1      24.417   2.875  51.536  1.00  0.00     0.160 HD
ENDROOT
BRANCH   1  16
HETATM   16  O1  UNL     1      21.768   6.256  46.776  1.00  0.00    -0.353 OA
HETATM   17  C1  UNL     1      20.636   6.998  47.111  1.00  0.00     0.210 C 
ENDBRANCH   1  16
BRANCH   5  18
HETATM   18  O2  UNL     1      21.947   3.617  45.135  1.00  0.00    -0.353 OA
HETATM   19  C7  UNL     1      20.781   3.936  44.441  1.00  0.00     0.210 C 
ENDBRANCH   5  18
BRANCH  13  20
HETATM   20  C13 UNL     1      24.118   0.766  52.935  1.00  0.00    -0.003 A 
HETATM   21  C14 UNL     1      24.129  -0.372  53.750  1.00  0.00     0.017 A 
HETATM   22  C15 UNL     1      25.246  -0.689  54.530  1.00  0.00     0.045 A 
HETATM   23  C16 UNL     1      26.362   0.122  54.508  1.00  0.00     0.138 A 
HETATM   24  F1  UNL     1      27.489  -0.083  55.215  1.00  0.00    -0.204 F 
HETATM   25  C17 UNL     1      26.335   1.247  53.694  1.00  0.00     0.073 A 
HETATM   26 CL1  UNL     1      27.675   2.390  53.547  1.00  0.00    -0.081 Cl
HETATM   27  C18 UNL     1      25.239   1.570  52.920  1.00  0.00     0.041 A 
ENDBRANCH  13  20
TORSDOF 3
ENDMDL
MODEL 9
REMARK VINA RESULT:      -7.1      3.216      3.707
REMARK  3 active torsions:
REMARK  status: ('A' for Active; 'I' for Inactive)
REMARK    1  A    between atoms: O1_2  and  C2_3 
REMARK    2  A    between atoms: C6_7  and  O2_8 
REMARK    3  A    between atoms: C12_17  and  C13_18 
ROOT
HETATM    1  C2  UNL     1      27.377  -0.240  53.053  1.00  0.00     0.100 A 
HETATM    2  C3  UNL     1      26.425  -0.050  52.153  1.00  0.00     0.057 A 
HETATM    3  C4  UNL     1      25.696   1.250  52.326  1.00  0.00     0.126 A 
HETATM    4  C5  UNL     1      26.426   1.784  53.522  1.00  0.00     0.057 A 
HETATM    5  C6  UNL     1      27.365   0.936  53.916  1.00  0.00     0.100 A 
HETATM    6  C8  UNL     1      25.816   2.136  51.144  1.00  0.00     0.167 C 
HETATM    7  N1  UNL     1      24.589   2.313  50.398  1.00  0.00    -0.381 N 
HETATM    8  C9  UNL     1      23.358   2.360  51.135  1.00  0.00     0.111 A 
HETATM    9  C10 UNL     1      23.301   1.642  52.334  1.00  0.00     0.196 A 
HETATM   10  N2  UNL     1      22.137   1.687  53.032  1.00  0.00    -0.216 NA
HETATM   11  C11 UNL     1      21.111   2.416  52.530  1.00  0.00     0.236 A 
HETATM   12  N3  UNL     1      21.159   3.118  51.360  1.00  0.00    -0.239 NA
HETATM   13  C12 UNL     1      22.305   3.101  50.632  1.00  0.00     0.099 A 
HETATM   14  O3  UNL     1      24.411   0.932  52.751  1.00  0.00    -0.311 OA
HETATM   15  H11 UNL     1      24.491   2.411  49.361  1.00  0.00     0.160 HD
ENDROOT
BRANCH   1  16
HETATM   16  O1  UNL     1      28.131  -1.402  53.009  1.00  0.00    -0.353 OA
HETATM   17  C1  UNL     1      29.474  -1.493  53.373  1.00  0.00     0.210 C 
ENDBRANCH   1  16
BRANCH   5  18
HETATM   18  O2  UNL     1      28.268   1.015  54.965  1.00  0.00    -0.353 OA
HETATM   19  C7  UNL     1      29.474   1.716  54.954  1.00  0.00     0.210 C 
ENDBRANCH   5  18
BRANCH  13  20
HETATM   20  C13 UNL     1      22.378   3.835  49.394  1.00  0.00    -0.003 A 
HETATM   21  C14 UNL     1      22.773   5.158  49.624  1.00  0.00     0.017 A 
HETATM   22  C15 UNL     1      22.915   6.062  48.565  1.00  0.00     0.045 A 
HETATM   23  C16 UNL     1      22.666   5.658  47.269  1.00  0.00     0.138 A 
HETATM   24  F1  UNL     1      22.769   6.438  46.177  1.00  0.00    -0.204 F 
HETATM   25  C17 UNL     1      22.275   4.343  47.059  1.00  0.00     0.073 A 
HETATM   26 CL1  UNL     1      21.918   3.663  45.468  1.00  0.00    -0.081 Cl
HETATM   27  C18 UNL     1      22.131   3.442  48.095  1.00  0.00     0.041 A 
ENDBRANCH  13  20
TORSDOF 3
ENDMDL
