MODEL 1
REMARK VINA RESULT:      -8.8      0.000      0.000
REMARK  4 active torsions:
REMARK  status: ('A' for Active; 'I' for Inactive)
REMARK    1  A    between atoms: C2_2  and  O1_3 
REMARK    2  A    between atoms: O1_3  and  O2_4 
REMARK    3  A    between atoms: O2_4  and  C3_5 
REMARK    4  A    between atoms: C3_5  and  C4_7 
ROOT
HETATM    1  C4  UNL     1      26.545   0.882  53.295  1.00  0.00     0.053 A 
HETATM    2  C5  UNL     1      25.268   0.549  53.263  1.00  0.00     0.018 A 
HETATM    3  C6  UNL     1      24.903  -0.389  54.345  1.00  0.00     0.074 A 
HETATM    4  N1  UNL     1      25.986  -0.584  54.993  1.00  0.00    -0.283 NA
HETATM    5  C7  UNL     1      27.107   0.147  54.455  1.00  0.00     0.195 A 
HETATM    6  C8  UNL     1      23.484  -0.706  54.238  1.00  0.00     0.005 A 
HETATM    7  C9  UNL     1      22.610  -1.498  54.947  1.00  0.00     0.014 A 
HETATM    8  C10 UNL     1      21.283  -1.531  54.506  1.00  0.00     0.002 A 
HETATM    9  C11 UNL     1      20.849  -0.809  53.411  1.00  0.00     0.012 A 
HETATM   10  C12 UNL     1      21.723  -0.002  52.683  1.00  0.00    -0.024 A 
HETATM   11  C13 UNL     1      21.369   0.748  51.581  1.00  0.00     0.012 A 
HETATM   12  C14 UNL     1      22.381   1.495  50.981  1.00  0.00     0.002 A 
HETATM   13  C15 UNL     1      23.670   1.482  51.468  1.00  0.00     0.013 A 
HETATM   14  C16 UNL     1      24.007   0.730  52.566  1.00  0.00    -0.011 A 
HETATM   15  C17 UNL     1      23.006  -0.004  53.152  1.00  0.00    -0.002 A 
ENDROOT
BRANCH   1  16
HETATM   16  C3  UNL     1      27.310   1.767  52.427  1.00  0.00     0.321 C 
HETATM   17  O3  UNL     1      28.351   2.283  52.902  1.00  0.00    -0.257 OA
BRANCH  16  18
HETATM   18  O2  UNL     1      27.083   2.147  51.139  1.00  0.00    -0.154 OA
BRANCH  18  19
HETATM   19  O1  UNL     1      27.133   3.357  50.665  1.00  0.00    -0.233 OA
BRANCH  19  20
HETATM   20  C2  UNL     1      26.513   3.643  49.486  1.00  0.00     0.206 C 
HETATM   21  C1  UNL     1      27.328   4.745  48.803  1.00  0.00     0.036 C 
ENDBRANCH  19  20
ENDBRANCH  18  19
ENDBRANCH  16  18
ENDBRANCH   1  16
TORSDOF 4
ENDMDL
MODEL 2
REMARK VINA RESULT:      -8.7      2.327      3.953
REMARK  4 active torsions:
REMARK  status: ('A' for Active; 'I' for Inactive)
REMARK    1  A    between atoms: C2_2  and  O1_3 
REMARK    2  A    between atoms: O1_3  and  O2_4 
REMARK    3  A    between atoms: O2_4  and  C3_5 
REMARK    4  A    between atoms: C3_5  and  C4_7 
ROOT
HETATM    1  C4  UNL     1      25.532   0.846  53.186  1.00  0.00     0.053 A 
HETATM    2  C5  UNL     1      24.252   0.677  52.911  1.00  0.00     0.018 A 
HETATM    3  C6  UNL     1      23.840   1.392  51.684  1.00  0.00     0.074 A 
HETATM    4  N1  UNL     1      24.900   1.969  51.267  1.00  0.00    -0.283 NA
HETATM    5  C7  UNL     1      26.048   1.721  52.105  1.00  0.00     0.195 A 
HETATM    6  C8  UNL     1      22.420   1.156  51.452  1.00  0.00     0.005 A 
HETATM    7  C9  UNL     1      21.514   1.552  50.495  1.00  0.00     0.014 A 
HETATM    8  C10 UNL     1      20.200   1.092  50.636  1.00  0.00     0.002 A 
HETATM    9  C11 UNL     1      19.810   0.276  51.681  1.00  0.00     0.012 A 
HETATM   10  C12 UNL     1      20.717  -0.132  52.658  1.00  0.00    -0.024 A 
HETATM   11  C13 UNL     1      20.408  -0.944  53.730  1.00  0.00     0.012 A 
HETATM   12  C14 UNL     1      21.448  -1.248  54.607  1.00  0.00     0.002 A 
HETATM   13  C15 UNL     1      22.722  -0.760  54.407  1.00  0.00     0.013 A 
HETATM   14  C16 UNL     1      23.015   0.047  53.336  1.00  0.00    -0.011 A 
HETATM   15  C17 UNL     1      21.985   0.342  52.477  1.00  0.00    -0.002 A 
ENDROOT
BRANCH   1  16
HETATM   16  C3  UNL     1      26.335   0.326  54.284  1.00  0.00     0.321 C 
HETATM   17  O3  UNL     1      26.172  -0.879  54.597  1.00  0.00    -0.257 OA
BRANCH  16  18
HETATM   18  O2  UNL     1      27.268   0.942  55.062  1.00  0.00    -0.154 OA
BRANCH  18  19
HETATM   19  O1  UNL     1      28.542   0.688  55.096  1.00  0.00    -0.233 OA
BRANCH  19  20
HETATM   20  C2  UNL     1      29.280   0.794  53.957  1.00  0.00     0.206 C 
HETATM   21  C1  UNL     1      29.819  -0.602  53.635  1.00  0.00     0.036 C 
ENDBRANCH  19  20
ENDBRANCH  18  19
ENDBRANCH  16  18
ENDBRANCH   1  16
TORSDOF 4
ENDMDL
MODEL 3
REMARK VINA RESULT:      -8.6      2.019      3.888
REMARK  4 active torsions:
REMARK  status: ('A' for Active; 'I' for Inactive)
REMARK    1  A    between atoms: C2_2  and  O1_3 
REMARK    2  A    between atoms: O1_3  and  O2_4 
REMARK    3  A    between atoms: O2_4  and  C3_5 
REMARK    4  A    between atoms: C3_5  and  C4_7 
ROOT
HETATM    1  C4  UNL     1      26.951   1.609  52.876  1.00  0.00     0.053 A 
HETATM    2  C5  UNL     1      25.747   1.086  53.013  1.00  0.00     0.018 A 
HETATM    3  C6  UNL     1      24.821   1.512  51.943  1.00  0.00     0.074 A 
HETATM    4  N1  UNL     1      25.513   2.283  51.196  1.00  0.00    -0.283 NA
HETATM    5  C7  UNL     1      26.873   2.442  51.651  1.00  0.00     0.195 A 
HETATM    6  C8  UNL     1      23.520   0.895  52.167  1.00  0.00     0.005 A 
HETATM    7  C9  UNL     1      22.307   0.924  51.518  1.00  0.00     0.014 A 
HETATM    8  C10 UNL     1      21.271   0.166  52.075  1.00  0.00     0.002 A 
HETATM    9  C11 UNL     1      21.438  -0.583  53.224  1.00  0.00     0.012 A 
HETATM   10  C12 UNL     1      22.661  -0.621  53.893  1.00  0.00    -0.024 A 
HETATM   11  C13 UNL     1      22.908  -1.343  55.042  1.00  0.00     0.012 A 
HETATM   12  C14 UNL     1      24.195  -1.259  55.570  1.00  0.00     0.002 A 
HETATM   13  C15 UNL     1      25.170  -0.492  54.969  1.00  0.00     0.013 A 
HETATM   14  C16 UNL     1      24.909   0.220  53.825  1.00  0.00    -0.011 A 
HETATM   15  C17 UNL     1      23.639   0.134  53.311  1.00  0.00    -0.002 A 
ENDROOT
BRANCH   1  16
HETATM   16  C3  UNL     1      28.144   1.453  53.696  1.00  0.00     0.321 C 
HETATM   17  O3  UNL     1      28.594   2.480  54.261  1.00  0.00    -0.257 OA
BRANCH  16  18
HETATM   18  O2  UNL     1      28.887   0.344  53.969  1.00  0.00    -0.154 OA
BRANCH  18  19
HETATM   19  O1  UNL     1      28.447  -0.873  54.099  1.00  0.00    -0.233 OA
BRANCH  19  20
HETATM   20  C2  UNL     1      28.702  -1.789  53.124  1.00  0.00     0.206 C 
HETATM   21  C1  UNL     1      27.350  -2.291  52.611  1.00  0.00     0.036 C 
ENDBRANCH  19  20
ENDBRANCH  18  19
ENDBRANCH  16  18
ENDBRANCH   1  16
TORSDOF 4
ENDMDL
MODEL 4
REMARK VINA RESULT:      -8.5      2.584      3.743
REMARK  4 active torsions:
REMARK  status: ('A' for Active; 'I' for Inactive)
REMARK    1  A    between atoms: C2_2  and  O1_3 
REMARK    2  A    between atoms: O1_3  and  O2_4 
REMARK    3  A    between atoms: O2_4  and  C3_5 
REMARK    4  A    between atoms: C3_5  and  C4_7 
ROOT
HETATM    1  C4  UNL     1      24.027  -0.578  54.336  1.00  0.00     0.053 A 
HETATM    2  C5  UNL     1      22.928  -0.371  53.633  1.00  0.00     0.018 A 
HETATM    3  C6  UNL     1      21.740  -1.003  54.245  1.00  0.00     0.074 A 
HETATM    4  N1  UNL     1      22.176  -1.573  55.301  1.00  0.00    -0.283 NA
HETATM    5  C7  UNL     1      23.595  -1.395  55.497  1.00  0.00     0.195 A 
HETATM    6  C8  UNL     1      20.576  -0.729  53.412  1.00  0.00     0.005 A 
HETATM    7  C9  UNL     1      19.239  -1.050  53.475  1.00  0.00     0.014 A 
HETATM    8  C10 UNL     1      18.423  -0.577  52.442  1.00  0.00     0.002 A 
HETATM    9  C11 UNL     1      18.916   0.180  51.398  1.00  0.00     0.012 A 
HETATM   10  C12 UNL     1      20.268   0.513  51.320  1.00  0.00    -0.024 A 
HETATM   11  C13 UNL     1      20.838   1.264  50.312  1.00  0.00     0.012 A 
HETATM   12  C14 UNL     1      22.209   1.496  50.403  1.00  0.00     0.002 A 
HETATM   13  C15 UNL     1      22.955   0.999  51.450  1.00  0.00     0.013 A 
HETATM   14  C16 UNL     1      22.374   0.254  52.446  1.00  0.00    -0.011 A 
HETATM   15  C17 UNL     1      21.023   0.028  52.350  1.00  0.00    -0.002 A 
ENDROOT
BRANCH   1  16
HETATM   16  C3  UNL     1      25.394  -0.140  54.095  1.00  0.00     0.321 C 
HETATM   17  O3  UNL     1      25.557   1.026  53.659  1.00  0.00    -0.257 OA
BRANCH  16  18
HETATM   18  O2  UNL     1      26.574  -0.799  54.268  1.00  0.00    -0.154 OA
BRANCH  18  19
HETATM   19  O1  UNL     1      27.547  -0.458  55.060  1.00  0.00    -0.233 OA
BRANCH  19  20
HETATM   20  C2  UNL     1      28.738  -0.064  54.531  1.00  0.00     0.206 C 
HETATM   21  C1  UNL     1      29.138  -1.112  53.488  1.00  0.00     0.036 C 
ENDBRANCH  19  20
ENDBRANCH  18  19
ENDBRANCH  16  18
ENDBRANCH   1  16
TORSDOF 4
ENDMDL
MODEL 5
REMARK VINA RESULT:      -8.4      2.348      4.837
REMARK  4 active torsions:
REMARK  status: ('A' for Active; 'I' for Inactive)
REMARK    1  A    between atoms: C2_2  and  O1_3 
REMARK    2  A    between atoms: O1_3  and  O2_4 
REMARK    3  A    between atoms: O2_4  and  C3_5 
REMARK    4  A    between atoms: C3_5  and  C4_7 
ROOT
HETATM    1  C4  UNL     1      24.175  -0.367  53.825  1.00  0.00     0.053 A 
HETATM    2  C5  UNL     1      24.140   0.493  52.825  1.00  0.00     0.018 A 
HETATM    3  C6  UNL     1      22.784   0.638  52.254  1.00  0.00     0.074 A 
HETATM    4  N1  UNL     1      22.051  -0.149  52.940  1.00  0.00    -0.283 NA
HETATM    5  C7  UNL     1      22.780  -0.852  53.968  1.00  0.00     0.195 A 
HETATM    6  C8  UNL     1      22.832   1.601  51.159  1.00  0.00     0.005 A 
HETATM    7  C9  UNL     1      21.907   2.121  50.284  1.00  0.00     0.014 A 
HETATM    8  C10 UNL     1      22.371   3.053  49.349  1.00  0.00     0.002 A 
HETATM    9  C11 UNL     1      23.694   3.446  49.292  1.00  0.00     0.012 A 
HETATM   10  C12 UNL     1      24.643   2.926  50.172  1.00  0.00    -0.024 A 
HETATM   11  C13 UNL     1      25.980   3.266  50.180  1.00  0.00     0.012 A 
HETATM   12  C14 UNL     1      26.780   2.643  51.135  1.00  0.00     0.002 A 
HETATM   13  C15 UNL     1      26.256   1.732  52.028  1.00  0.00     0.013 A 
HETATM   14  C16 UNL     1      24.923   1.404  52.008  1.00  0.00    -0.011 A 
HETATM   15  C17 UNL     1      24.141   2.022  51.064  1.00  0.00    -0.002 A 
ENDROOT
BRANCH   1  16
HETATM   16  C3  UNL     1      25.291  -0.800  54.656  1.00  0.00     0.321 C 
HETATM   17  O3  UNL     1      25.018  -1.273  55.786  1.00  0.00    -0.257 OA
BRANCH  16  18
HETATM   18  O2  UNL     1      26.631  -0.779  54.411  1.00  0.00    -0.154 OA
BRANCH  18  19
HETATM   19  O1  UNL     1      27.541  -0.175  55.116  1.00  0.00    -0.233 OA
BRANCH  19  20
HETATM   20  C2  UNL     1      28.740   0.130  54.547  1.00  0.00     0.206 C 
HETATM   21  C1  UNL     1      28.973  -0.876  53.416  1.00  0.00     0.036 C 
ENDBRANCH  19  20
ENDBRANCH  18  19
ENDBRANCH  16  18
ENDBRANCH   1  16
TORSDOF 4
ENDMDL
MODEL 6
REMARK VINA RESULT:      -7.9      1.892      3.725
REMARK  4 active torsions:
REMARK  status: ('A' for Active; 'I' for Inactive)
REMARK    1  A    between atoms: C2_2  and  O1_3 
REMARK    2  A    between atoms: O1_3  and  O2_4 
REMARK    3  A    between atoms: O2_4  and  C3_5 
REMARK    4  A    between atoms: C3_5  and  C4_7 
ROOT
HETATM    1  C4  UNL     1      24.878   2.177  51.300  1.00  0.00     0.053 A 
HETATM    2  C5  UNL     1      24.125   1.385  52.041  1.00  0.00     0.018 A 
HETATM    3  C6  UNL     1      22.708   1.401  51.622  1.00  0.00     0.074 A 
HETATM    4  N1  UNL     1      22.663   2.211  50.636  1.00  0.00    -0.283 NA
HETATM    5  C7  UNL     1      23.949   2.781  50.313  1.00  0.00     0.195 A 
HETATM    6  C8  UNL     1      21.949   0.505  52.487  1.00  0.00     0.005 A 
HETATM    7  C9  UNL     1      20.629   0.126  52.572  1.00  0.00     0.014 A 
HETATM    8  C10 UNL     1      20.294  -0.788  53.577  1.00  0.00     0.002 A 
HETATM    9  C11 UNL     1      21.232  -1.298  54.454  1.00  0.00     0.012 A 
HETATM   10  C12 UNL     1      22.573  -0.922  54.380  1.00  0.00    -0.024 A 
HETATM   11  C13 UNL     1      23.568  -1.385  55.216  1.00  0.00     0.012 A 
HETATM   12  C14 UNL     1      24.853  -0.897  54.991  1.00  0.00     0.002 A 
HETATM   13  C15 UNL     1      25.113   0.004  53.980  1.00  0.00     0.013 A 
HETATM   14  C16 UNL     1      24.113   0.456  53.156  1.00  0.00    -0.011 A 
HETATM   15  C17 UNL     1      22.848  -0.029  53.384  1.00  0.00    -0.002 A 
ENDROOT
BRANCH   1  16
HETATM   16  C3  UNL     1      26.306   2.454  51.369  1.00  0.00     0.321 C 
HETATM   17  O3  UNL     1      26.855   2.915  50.338  1.00  0.00    -0.257 OA
BRANCH  16  18
HETATM   18  O2  UNL     1      27.185   2.293  52.397  1.00  0.00    -0.154 OA
BRANCH  18  19
HETATM   19  O1  UNL     1      27.879   1.227  52.667  1.00  0.00    -0.233 OA
BRANCH  19  20
HETATM   20  C2  UNL     1      28.926   1.309  53.533  1.00  0.00     0.206 C 
HETATM   21  C1  UNL     1      29.409  -0.121  53.796  1.00  0.00     0.036 C 
ENDBRANCH  19  20
ENDBRANCH  18  19
ENDBRANCH  16  18
ENDBRANCH   1  16
TORSDOF 4
ENDMDL
MODEL 7
REMARK VINA RESULT:      -7.7      3.291      5.264
REMARK  4 active torsions:
REMARK  status: ('A' for Active; 'I' for Inactive)
REMARK    1  A    between atoms: C2_2  and  O1_3 
REMARK    2  A    between atoms: O1_3  and  O2_4 
REMARK    3  A    between atoms: O2_4  and  C3_5 
REMARK    4  A    between atoms: C3_5  and  C4_7 
ROOT
HETATM    1  C4  UNL     1      21.214   0.965  52.952  1.00  0.00     0.053 A 
HETATM    2  C5  UNL     1      22.522   0.942  52.772  1.00  0.00     0.018 A 
HETATM    3  C6  UNL     1      23.178  -0.131  53.548  1.00  0.00     0.074 A 
HETATM    4  N1  UNL     1      22.229  -0.717  54.170  1.00  0.00    -0.283 NA
HETATM    5  C7  UNL     1      20.934  -0.143  53.897  1.00  0.00     0.195 A 
HETATM    6  C8  UNL     1      24.614  -0.088  53.296  1.00  0.00     0.005 A 
HETATM    7  C9  UNL     1      25.697  -0.818  53.728  1.00  0.00     0.014 A 
HETATM    8  C10 UNL     1      26.952  -0.444  53.234  1.00  0.00     0.002 A 
HETATM    9  C11 UNL     1      27.116   0.607  52.353  1.00  0.00     0.012 A 
HETATM   10  C12 UNL     1      26.027   1.356  51.907  1.00  0.00    -0.024 A 
HETATM   11  C13 UNL     1      26.108   2.418  51.030  1.00  0.00     0.012 A 
HETATM   12  C14 UNL     1      24.910   3.048  50.698  1.00  0.00     0.002 A 
HETATM   13  C15 UNL     1      23.707   2.627  51.222  1.00  0.00     0.013 A 
HETATM   14  C16 UNL     1      23.642   1.569  52.094  1.00  0.00    -0.011 A 
HETATM   15  C17 UNL     1      24.826   0.953  52.417  1.00  0.00    -0.002 A 
ENDROOT
BRANCH   1  16
HETATM   16  C3  UNL     1      20.202   1.847  52.386  1.00  0.00     0.321 C 
HETATM   17  O3  UNL     1      20.120   3.008  52.858  1.00  0.00    -0.257 OA
BRANCH  16  18
HETATM   18  O2  UNL     1      19.293   1.623  51.397  1.00  0.00    -0.154 OA
BRANCH  18  19
HETATM   19  O1  UNL     1      19.530   1.111  50.225  1.00  0.00    -0.233 OA
BRANCH  19  20
HETATM   20  C2  UNL     1      20.201   1.843  49.294  1.00  0.00     0.206 C 
HETATM   21  C1  UNL     1      21.432   1.031  48.881  1.00  0.00     0.036 C 
ENDBRANCH  19  20
ENDBRANCH  18  19
ENDBRANCH  16  18
ENDBRANCH   1  16
TORSDOF 4
ENDMDL
MODEL 8
REMARK VINA RESULT:      -7.7      2.989      6.065
REMARK  4 active torsions:
REMARK  status: ('A' for Active; 'I' for Inactive)
REMARK    1  A    between atoms: C2_2  and  O1_3 
REMARK    2  A    between atoms: O1_3  and  O2_4 
REMARK    3  A    between atoms: O2_4  and  C3_5 
REMARK    4  A    between atoms: C3_5  and  C4_7 
ROOT
HETATM    1  C4  UNL     1      23.761   1.401  52.334  1.00  0.00     0.053 A 
HETATM    2  C5  UNL     1      25.003   1.082  52.646  1.00  0.00     0.018 A 
HETATM    3  C6  UNL     1      25.768   2.236  53.163  1.00  0.00     0.074 A 
HETATM    4  N1  UNL     1      24.948   3.214  53.141  1.00  0.00    -0.283 NA
HETATM    5  C7  UNL     1      23.643   2.847  52.645  1.00  0.00     0.195 A 
HETATM    6  C8  UNL     1      27.123   1.802  53.481  1.00  0.00     0.005 A 
HETATM    7  C9  UNL     1      28.248   2.417  53.981  1.00  0.00     0.014 A 
HETATM    8  C10 UNL     1      29.387   1.622  54.146  1.00  0.00     0.002 A 
HETATM    9  C11 UNL     1      29.402   0.278  53.827  1.00  0.00     0.012 A 
HETATM   10  C12 UNL     1      28.271  -0.360  53.319  1.00  0.00    -0.024 A 
HETATM   11  C13 UNL     1      28.205  -1.695  52.978  1.00  0.00     0.012 A 
HETATM   12  C14 UNL     1      26.986  -2.156  52.485  1.00  0.00     0.002 A 
HETATM   13  C15 UNL     1      25.902  -1.316  52.349  1.00  0.00     0.013 A 
HETATM   14  C16 UNL     1      25.982   0.010  52.693  1.00  0.00    -0.011 A 
HETATM   15  C17 UNL     1      27.186   0.458  53.177  1.00  0.00    -0.002 A 
ENDROOT
BRANCH   1  16
HETATM   16  C3  UNL     1      22.684   0.579  51.799  1.00  0.00     0.321 C 
HETATM   17  O3  UNL     1      22.217   0.898  50.678  1.00  0.00    -0.257 OA
BRANCH  16  18
HETATM   18  O2  UNL     1      22.070  -0.518  52.323  1.00  0.00    -0.154 OA
BRANCH  18  19
HETATM   19  O1  UNL     1      22.510  -1.266  53.293  1.00  0.00    -0.233 OA
BRANCH  19  20
HETATM   20  C2  UNL     1      21.704  -1.526  54.359  1.00  0.00     0.206 C 
HETATM   21  C1  UNL     1      21.270  -0.177  54.938  1.00  0.00     0.036 C 
ENDBRANCH  19  20
ENDBRANCH  18  19
ENDBRANCH  16  18
ENDBRANCH   1  16
TORSDOF 4
ENDMDL
MODEL 9
REMARK VINA RESULT:      -7.6      3.440      6.039
REMARK  4 active torsions:
REMARK  status: ('A' for Active; 'I' for Inactive)
REMARK    1  A    between atoms: C2_2  and  O1_3 
REMARK    2  A    between atoms: O1_3  and  O2_4 
REMARK    3  A    between atoms: O2_4  and  C3_5 
REMARK    4  A    between atoms: C3_5  and  C4_7 
ROOT
HETATM    1  C4  UNL     1      21.336   0.516  53.169  1.00  0.00     0.053 A 
HETATM    2  C5  UNL     1      22.633   0.606  52.937  1.00  0.00     0.018 A 
HETATM    3  C6  UNL     1      23.417  -0.356  53.739  1.00  0.00     0.074 A 
HETATM    4  N1  UNL     1      22.553  -0.994  54.429  1.00  0.00    -0.283 NA
HETATM    5  C7  UNL     1      21.199  -0.560  54.181  1.00  0.00     0.195 A 
HETATM    6  C8  UNL     1      24.832  -0.191  53.426  1.00  0.00     0.005 A 
HETATM    7  C9  UNL     1      25.996  -0.791  53.849  1.00  0.00     0.014 A 
HETATM    8  C10 UNL     1      27.190  -0.328  53.285  1.00  0.00     0.002 A 
HETATM    9  C11 UNL     1      27.219   0.683  52.344  1.00  0.00     0.012 A 
HETATM   10  C12 UNL     1      26.048   1.301  51.906  1.00  0.00    -0.024 A 
HETATM   11  C13 UNL     1      25.993   2.315  50.973  1.00  0.00     0.012 A 
HETATM   12  C14 UNL     1      24.729   2.810  50.659  1.00  0.00     0.002 A 
HETATM   13  C15 UNL     1      23.592   2.307  51.254  1.00  0.00     0.013 A 
HETATM   14  C16 UNL     1      23.662   1.297  52.181  1.00  0.00    -0.011 A 
HETATM   15  C17 UNL     1      24.911   0.814  52.486  1.00  0.00    -0.002 A 
ENDROOT
BRANCH   1  16
HETATM   16  C3  UNL     1      20.224   1.265  52.602  1.00  0.00     0.321 C 
HETATM   17  O3  UNL     1      20.071   2.450  52.987  1.00  0.00    -0.257 OA
BRANCH  16  18
HETATM   18  O2  UNL     1      19.284   0.890  51.690  1.00  0.00    -0.154 OA
BRANCH  18  19
HETATM   19  O1  UNL     1      18.665  -0.252  51.636  1.00  0.00    -0.233 OA
BRANCH  19  20
HETATM   20  C2  UNL     1      17.563  -0.457  52.410  1.00  0.00     0.206 C 
HETATM   21  C1  UNL     1      17.816  -1.726  53.230  1.00  0.00     0.036 C 
ENDBRANCH  19  20
ENDBRANCH  18  19
ENDBRANCH  16  18
ENDBRANCH   1  16
TORSDOF 4
ENDMDL
