MODEL 1
REMARK VINA RESULT:      -7.6      0.000      0.000
REMARK  2 active torsions:
REMARK  status: ('A' for Active; 'I' for Inactive)
REMARK    1  A    between atoms: C2_2  and  C3_3 
REMARK    2  A    between atoms: C4_4  and  N1_5 
ROOT
HETATM    1  C3  UNL     1      25.707   0.371  52.310  1.00  0.00    -0.051 C 
HETATM    2  C4  UNL     1      24.417   0.744  52.700  1.00  0.00     0.044 C 
HETATM    3  C8  UNL     1      23.907   2.086  52.315  1.00  0.00     0.115 C 
HETATM    4  C9  UNL     1      25.292   2.633  52.660  1.00  0.00     0.020 C 
HETATM    5  C10 UNL     1      25.729   2.480  51.318  1.00  0.00    -0.047 C 
HETATM    6  C11 UNL     1      26.601   1.319  51.469  1.00  0.00     0.075 C 
HETATM    7  C12 UNL     1      25.035   3.519  50.500  1.00  0.00    -0.028 C 
HETATM    8  C13 UNL     1      24.689   4.830  50.538  1.00  0.00     0.091 C 
HETATM    9  N2  UNL     1      24.040   5.128  51.859  1.00  0.00    -0.398 N 
HETATM   10  C14 UNL     1      23.637   4.485  53.141  1.00  0.00     0.122 C 
HETATM   11  C15 UNL     1      23.145   3.051  53.014  1.00  0.00     0.063 C 
HETATM   12  C16 UNL     1      24.240   3.166  49.244  1.00  0.00     0.056 C 
HETATM   13  C17 UNL     1      23.421   4.201  48.675  1.00  0.00     0.020 C 
HETATM   14  C18 UNL     1      23.099   2.315  49.901  1.00  0.00     0.094 C 
HETATM   15  N3  UNL     1      23.358   1.848  51.114  1.00  0.00    -0.284 NA
HETATM   16  H16 UNL     1      23.836   6.174  51.722  1.00  0.00     0.158 HD
ENDROOT
BRANCH   2  17
HETATM   17  N1  UNL     1      23.665  -0.200  53.451  1.00  0.00    -0.381 N 
HETATM   18  C5  UNL     1      23.515  -0.911  54.729  1.00  0.00     0.124 C 
HETATM   19  C6  UNL     1      22.006  -0.774  54.489  1.00  0.00     0.040 C 
HETATM   20  C7  UNL     1      22.470  -0.953  53.040  1.00  0.00     0.124 C 
ENDBRANCH   2  17
BRANCH   1  21
HETATM   21  C2  UNL     1      26.224  -0.949  52.715  1.00  0.00     0.032 C 
HETATM   22  C1  UNL     1      27.708  -0.864  53.093  1.00  0.00     0.010 C 
ENDBRANCH   1  21
TORSDOF 2
ENDMDL
MODEL 2
REMARK VINA RESULT:      -7.2      1.326      1.619
REMARK  2 active torsions:
REMARK  status: ('A' for Active; 'I' for Inactive)
REMARK    1  A    between atoms: C2_2  and  C3_3 
REMARK    2  A    between atoms: C4_4  and  N1_5 
ROOT
HETATM    1  C3  UNL     1      24.445   0.709  52.622  1.00  0.00    -0.051 C 
HETATM    2  C4  UNL     1      23.051   0.824  52.660  1.00  0.00     0.044 C 
HETATM    3  C8  UNL     1      22.401   1.945  51.934  1.00  0.00     0.115 C 
HETATM    4  C9  UNL     1      23.529   2.839  52.448  1.00  0.00     0.020 C 
HETATM    5  C10 UNL     1      24.298   2.607  51.278  1.00  0.00    -0.047 C 
HETATM    6  C11 UNL     1      25.315   1.711  51.820  1.00  0.00     0.075 C 
HETATM    7  C12 UNL     1      23.635   3.335  50.155  1.00  0.00    -0.028 C 
HETATM    8  C13 UNL     1      23.043   4.523  49.873  1.00  0.00     0.091 C 
HETATM    9  N2  UNL     1      22.050   4.842  50.953  1.00  0.00    -0.398 N 
HETATM   10  C14 UNL     1      21.481   4.307  52.222  1.00  0.00     0.122 C 
HETATM   11  C15 UNL     1      21.320   2.795  52.267  1.00  0.00     0.063 C 
HETATM   12  C16 UNL     1      23.251   2.637  48.850  1.00  0.00     0.056 C 
HETATM   13  C17 UNL     1      22.409   3.366  47.941  1.00  0.00     0.020 C 
HETATM   14  C18 UNL     1      22.172   1.644  49.406  1.00  0.00     0.094 C 
HETATM   15  N3  UNL     1      22.215   1.422  50.712  1.00  0.00    -0.284 NA
HETATM   16  H16 UNL     1      21.687   5.783  50.583  1.00  0.00     0.158 HD
ENDROOT
BRANCH   2  17
HETATM   17  N1  UNL     1      22.337  -0.155  53.404  1.00  0.00    -0.381 N 
HETATM   18  C5  UNL     1      21.941  -1.566  53.510  1.00  0.00     0.124 C 
HETATM   19  C6  UNL     1      22.091  -1.368  55.024  1.00  0.00     0.040 C 
HETATM   20  C7  UNL     1      21.568   0.021  54.646  1.00  0.00     0.124 C 
ENDBRANCH   2  17
BRANCH   1  21
HETATM   21  C2  UNL     1      25.094  -0.387  53.364  1.00  0.00     0.032 C 
HETATM   22  C1  UNL     1      26.363  -0.860  52.645  1.00  0.00     0.010 C 
ENDBRANCH   1  21
TORSDOF 2
ENDMDL
MODEL 3
REMARK VINA RESULT:      -7.1      8.990     11.566
REMARK  2 active torsions:
REMARK  status: ('A' for Active; 'I' for Inactive)
REMARK    1  A    between atoms: C2_2  and  C3_3 
REMARK    2  A    between atoms: C4_4  and  N1_5 
ROOT
HETATM    1  C3  UNL     1      30.732   6.428  47.590  1.00  0.00    -0.051 C 
HETATM    2  C4  UNL     1      31.908   7.185  47.572  1.00  0.00     0.044 C 
HETATM    3  C8  UNL     1      33.216   6.488  47.674  1.00  0.00     0.115 C 
HETATM    4  C9  UNL     1      32.575   5.595  48.737  1.00  0.00     0.020 C 
HETATM    5  C10 UNL     1      32.207   4.632  47.762  1.00  0.00    -0.047 C 
HETATM    6  C11 UNL     1      30.770   4.882  47.693  1.00  0.00     0.075 C 
HETATM    7  C12 UNL     1      33.457   3.952  47.309  1.00  0.00    -0.028 C 
HETATM    8  C13 UNL     1      34.609   3.430  47.800  1.00  0.00     0.091 C 
HETATM    9  N2  UNL     1      35.231   4.420  48.743  1.00  0.00    -0.398 N 
HETATM   10  C14 UNL     1      35.030   5.778  49.322  1.00  0.00     0.122 C 
HETATM   11  C15 UNL     1      34.405   6.793  48.377  1.00  0.00     0.063 C 
HETATM   12  C16 UNL     1      33.840   3.856  45.832  1.00  0.00     0.056 C 
HETATM   13  C17 UNL     1      35.168   3.398  45.529  1.00  0.00     0.020 C 
HETATM   14  C18 UNL     1      34.054   5.379  45.529  1.00  0.00     0.094 C 
HETATM   15  N3  UNL     1      33.497   6.219  46.390  1.00  0.00    -0.284 NA
HETATM   16  H16 UNL     1      36.104   3.863  49.029  1.00  0.00     0.158 HD
ENDROOT
BRANCH   2  17
HETATM   17  N1  UNL     1      31.773   8.596  47.453  1.00  0.00    -0.381 N 
HETATM   18  C5  UNL     1      31.511   9.865  48.146  1.00  0.00     0.124 C 
HETATM   19  C6  UNL     1      32.535  10.466  47.174  1.00  0.00     0.040 C 
HETATM   20  C7  UNL     1      31.897   9.428  46.246  1.00  0.00     0.124 C 
ENDBRANCH   2  17
BRANCH   1  21
HETATM   21  C2  UNL     1      29.433   7.121  47.516  1.00  0.00     0.032 C 
HETATM   22  C1  UNL     1      28.317   6.262  48.123  1.00  0.00     0.010 C 
ENDBRANCH   1  21
TORSDOF 2
ENDMDL
MODEL 4
REMARK VINA RESULT:      -7.1      2.608      4.719
REMARK  2 active torsions:
REMARK  status: ('A' for Active; 'I' for Inactive)
REMARK    1  A    between atoms: C2_2  and  C3_3 
REMARK    2  A    between atoms: C4_4  and  N1_5 
ROOT
HETATM    1  C3  UNL     1      22.087   0.087  53.048  1.00  0.00    -0.051 C 
HETATM    2  C4  UNL     1      22.778   0.945  52.187  1.00  0.00     0.044 C 
HETATM    3  C8  UNL     1      22.044   1.585  51.065  1.00  0.00     0.115 C 
HETATM    4  C9  UNL     1      21.346   0.242  50.850  1.00  0.00     0.020 C 
HETATM    5  C10 UNL     1      20.269   0.622  51.692  1.00  0.00    -0.047 C 
HETATM    6  C11 UNL     1      20.572  -0.188  52.868  1.00  0.00     0.075 C 
HETATM    7  C12 UNL     1      19.474   1.655  50.963  1.00  0.00    -0.028 C 
HETATM    8  C13 UNL     1      18.977   1.926  49.730  1.00  0.00     0.091 C 
HETATM    9  N2  UNL     1      20.064   1.733  48.712  1.00  0.00    -0.398 N 
HETATM   10  C14 UNL     1      21.500   1.356  48.583  1.00  0.00     0.122 C 
HETATM   11  C15 UNL     1      22.394   1.834  49.718  1.00  0.00     0.063 C 
HETATM   12  C16 UNL     1      19.145   3.013  51.583  1.00  0.00     0.056 C 
HETATM   13  C17 UNL     1      18.588   4.012  50.713  1.00  0.00     0.020 C 
HETATM   14  C18 UNL     1      20.597   3.597  51.692  1.00  0.00     0.094 C 
HETATM   15  N3  UNL     1      21.578   2.708  51.635  1.00  0.00    -0.284 NA
HETATM   16  H16 UNL     1      19.515   1.981  47.822  1.00  0.00     0.158 HD
ENDROOT
BRANCH   2  17
HETATM   17  N1  UNL     1      24.161   1.152  52.446  1.00  0.00    -0.381 N 
HETATM   18  C5  UNL     1      25.523   0.612  52.336  1.00  0.00     0.124 C 
HETATM   19  C6  UNL     1      25.948   2.066  52.089  1.00  0.00     0.040 C 
HETATM   20  C7  UNL     1      24.809   2.309  53.083  1.00  0.00     0.124 C 
ENDBRANCH   2  17
BRANCH   1  21
HETATM   21  C2  UNL     1      22.820  -0.571  54.146  1.00  0.00     0.032 C 
HETATM   22  C1  UNL     1      21.954  -1.642  54.820  1.00  0.00     0.010 C 
ENDBRANCH   1  21
TORSDOF 2
ENDMDL
MODEL 5
REMARK VINA RESULT:      -6.9      1.719      3.628
REMARK  2 active torsions:
REMARK  status: ('A' for Active; 'I' for Inactive)
REMARK    1  A    between atoms: C2_2  and  C3_3 
REMARK    2  A    between atoms: C4_4  and  N1_5 
ROOT
HETATM    1  C3  UNL     1      22.990   0.580  52.943  1.00  0.00    -0.051 C 
HETATM    2  C4  UNL     1      24.106   1.237  52.414  1.00  0.00     0.044 C 
HETATM    3  C8  UNL     1      23.898   2.349  51.451  1.00  0.00     0.115 C 
HETATM    4  C9  UNL     1      22.798   1.499  50.815  1.00  0.00     0.020 C 
HETATM    5  C10 UNL     1      21.807   2.101  51.633  1.00  0.00    -0.047 C 
HETATM    6  C11 UNL     1      21.549   1.006  52.562  1.00  0.00     0.075 C 
HETATM    7  C12 UNL     1      21.617   3.501  51.148  1.00  0.00    -0.028 C 
HETATM    8  C13 UNL     1      21.506   4.212  49.998  1.00  0.00     0.091 C 
HETATM    9  N2  UNL     1      22.611   3.809  49.065  1.00  0.00    -0.398 N 
HETATM   10  C14 UNL     1      23.793   2.907  48.964  1.00  0.00     0.122 C 
HETATM   11  C15 UNL     1      24.567   2.714  50.259  1.00  0.00     0.063 C 
HETATM   12  C16 UNL     1      21.716   4.704  52.085  1.00  0.00     0.056 C 
HETATM   13  C17 UNL     1      21.757   6.006  51.478  1.00  0.00     0.020 C 
HETATM   14  C18 UNL     1      23.231   4.593  52.476  1.00  0.00     0.094 C 
HETATM   15  N3  UNL     1      23.793   3.413  52.263  1.00  0.00    -0.284 NA
HETATM   16  H16 UNL     1      22.378   4.447  48.233  1.00  0.00     0.158 HD
ENDROOT
BRANCH   2  17
HETATM   17  N1  UNL     1      25.387   0.790  52.839  1.00  0.00    -0.381 N 
HETATM   18  C5  UNL     1      26.344   0.689  53.949  1.00  0.00     0.124 C 
HETATM   19  C6  UNL     1      26.712  -0.673  53.348  1.00  0.00     0.040 C 
HETATM   20  C7  UNL     1      26.420   0.094  52.056  1.00  0.00     0.124 C 
ENDBRANCH   2  17
BRANCH   1  21
HETATM   21  C2  UNL     1      23.195  -0.541  53.877  1.00  0.00     0.032 C 
HETATM   22  C1  UNL     1      21.902  -0.869  54.634  1.00  0.00     0.010 C 
ENDBRANCH   1  21
TORSDOF 2
ENDMDL
MODEL 6
REMARK VINA RESULT:      -6.8      1.843      5.410
REMARK  2 active torsions:
REMARK  status: ('A' for Active; 'I' for Inactive)
REMARK    1  A    between atoms: C2_2  and  C3_3 
REMARK    2  A    between atoms: C4_4  and  N1_5 
ROOT
HETATM    1  C3  UNL     1      23.767   2.015  52.177  1.00  0.00    -0.051 C 
HETATM    2  C4  UNL     1      24.985   2.359  51.582  1.00  0.00     0.044 C 
HETATM    3  C8  UNL     1      26.247   1.846  52.175  1.00  0.00     0.115 C 
HETATM    4  C9  UNL     1      25.642   2.146  53.546  1.00  0.00     0.020 C 
HETATM    5  C10 UNL     1      25.127   0.828  53.650  1.00  0.00    -0.047 C 
HETATM    6  C11 UNL     1      23.710   1.093  53.422  1.00  0.00     0.075 C 
HETATM    7  C12 UNL     1      26.285  -0.089  53.870  1.00  0.00    -0.028 C 
HETATM    8  C13 UNL     1      27.437  -0.179  54.581  1.00  0.00     0.091 C 
HETATM    9  N2  UNL     1      28.203   1.105  54.434  1.00  0.00    -0.398 N 
HETATM   10  C14 UNL     1      28.144   2.439  53.773  1.00  0.00     0.122 C 
HETATM   11  C15 UNL     1      27.510   2.445  52.391  1.00  0.00     0.063 C 
HETATM   12  C16 UNL     1      26.531  -1.312  52.987  1.00  0.00     0.056 C 
HETATM   13  C17 UNL     1      27.794  -1.981  53.134  1.00  0.00     0.020 C 
HETATM   14  C18 UNL     1      26.820  -0.584  51.628  1.00  0.00     0.094 C 
HETATM   15  N3  UNL     1      26.397   0.668  51.547  1.00  0.00    -0.284 NA
HETATM   16  H16 UNL     1      29.058   0.867  55.039  1.00  0.00     0.158 HD
ENDROOT
BRANCH   2  17
HETATM   17  N1  UNL     1      24.935   3.192  50.430  1.00  0.00    -0.381 N 
HETATM   18  C5  UNL     1      24.474   3.339  49.043  1.00  0.00     0.124 C 
HETATM   19  C6  UNL     1      24.251   4.814  49.402  1.00  0.00     0.040 C 
HETATM   20  C7  UNL     1      25.496   4.540  50.251  1.00  0.00     0.124 C 
ENDBRANCH   2  17
BRANCH   1  21
HETATM   21  C2  UNL     1      22.516   2.546  51.606  1.00  0.00     0.032 C 
HETATM   22  C1  UNL     1      22.100   3.845  52.308  1.00  0.00     0.010 C 
ENDBRANCH   1  21
TORSDOF 2
ENDMDL
MODEL 7
REMARK VINA RESULT:      -6.8      8.170     10.271
REMARK  2 active torsions:
REMARK  status: ('A' for Active; 'I' for Inactive)
REMARK    1  A    between atoms: C2_2  and  C3_3 
REMARK    2  A    between atoms: C4_4  and  N1_5 
ROOT
HETATM    1  C3  UNL     1      32.392   5.901  45.699  1.00  0.00    -0.051 C 
HETATM    2  C4  UNL     1      32.473   5.437  47.016  1.00  0.00     0.044 C 
HETATM    3  C8  UNL     1      31.680   6.120  48.071  1.00  0.00     0.115 C 
HETATM    4  C9  UNL     1      32.074   7.442  47.411  1.00  0.00     0.020 C 
HETATM    5  C10 UNL     1      30.900   7.438  46.614  1.00  0.00    -0.047 C 
HETATM    6  C11 UNL     1      31.476   7.093  45.319  1.00  0.00     0.075 C 
HETATM    7  C12 UNL     1      29.744   7.723  47.517  1.00  0.00    -0.028 C 
HETATM    8  C13 UNL     1      29.386   8.531  48.546  1.00  0.00     0.091 C 
HETATM    9  N2  UNL     1      30.471   8.514  49.584  1.00  0.00    -0.398 N 
HETATM   10  C14 UNL     1      31.801   7.912  49.882  1.00  0.00     0.122 C 
HETATM   11  C15 UNL     1      31.980   6.478  49.406  1.00  0.00     0.063 C 
HETATM   12  C16 UNL     1      28.519   6.811  47.580  1.00  0.00     0.056 C 
HETATM   13  C17 UNL     1      27.584   7.043  48.646  1.00  0.00     0.020 C 
HETATM   14  C18 UNL     1      29.197   5.519  48.154  1.00  0.00     0.094 C 
HETATM   15  N3  UNL     1      30.514   5.456  48.023  1.00  0.00    -0.284 NA
HETATM   16  H16 UNL     1      30.037   9.184  50.302  1.00  0.00     0.158 HD
ENDROOT
BRANCH   2  17
HETATM   17  N1  UNL     1      33.323   4.325  47.264  1.00  0.00    -0.381 N 
HETATM   18  C5  UNL     1      33.495   2.868  47.171  1.00  0.00     0.124 C 
HETATM   19  C6  UNL     1      34.966   3.183  46.869  1.00  0.00     0.040 C 
HETATM   20  C7  UNL     1      34.671   4.317  47.856  1.00  0.00     0.124 C 
ENDBRANCH   2  17
BRANCH   1  21
HETATM   21  C2  UNL     1      33.200   5.242  44.657  1.00  0.00     0.032 C 
HETATM   22  C1  UNL     1      34.141   6.244  43.976  1.00  0.00     0.010 C 
ENDBRANCH   1  21
TORSDOF 2
ENDMDL
MODEL 8
REMARK VINA RESULT:      -6.7      2.436      4.713
REMARK  2 active torsions:
REMARK  status: ('A' for Active; 'I' for Inactive)
REMARK    1  A    between atoms: C2_2  and  C3_3 
REMARK    2  A    between atoms: C4_4  and  N1_5 
ROOT
HETATM    1  C3  UNL     1      23.788   1.578  52.536  1.00  0.00    -0.051 C 
HETATM    2  C4  UNL     1      23.848   2.265  51.318  1.00  0.00     0.044 C 
HETATM    3  C8  UNL     1      22.616   2.379  50.495  1.00  0.00     0.115 C 
HETATM    4  C9  UNL     1      22.329   0.921  50.849  1.00  0.00     0.020 C 
HETATM    5  C10 UNL     1      21.545   1.306  51.966  1.00  0.00    -0.047 C 
HETATM    6  C11 UNL     1      22.461   0.960  53.048  1.00  0.00     0.075 C 
HETATM    7  C12 UNL     1      20.275   1.892  51.442  1.00  0.00    -0.028 C 
HETATM    8  C13 UNL     1      19.329   1.677  50.493  1.00  0.00     0.091 C 
HETATM    9  N2  UNL     1      20.005   1.416  49.178  1.00  0.00    -0.398 N 
HETATM   10  C14 UNL     1      21.352   1.319  48.549  1.00  0.00     0.122 C 
HETATM   11  C15 UNL     1      22.391   2.283  49.101  1.00  0.00     0.063 C 
HETATM   12  C16 UNL     1      19.783   3.276  51.865  1.00  0.00     0.056 C 
HETATM   13  C17 UNL     1      18.687   3.836  51.124  1.00  0.00     0.020 C 
HETATM   14  C18 UNL     1      20.934   4.147  51.254  1.00  0.00     0.094 C 
HETATM   15  N3  UNL     1      22.057   3.501  50.975  1.00  0.00    -0.284 NA
HETATM   16  H16 UNL     1      19.138   1.272  48.561  1.00  0.00     0.158 HD
ENDROOT
BRANCH   2  17
HETATM   17  N1  UNL     1      25.103   2.816  50.943  1.00  0.00    -0.381 N 
HETATM   18  C5  UNL     1      26.549   2.592  50.804  1.00  0.00     0.124 C 
HETATM   19  C6  UNL     1      26.443   3.479  49.556  1.00  0.00     0.040 C 
HETATM   20  C7  UNL     1      25.394   4.166  50.436  1.00  0.00     0.124 C 
ENDBRANCH   2  17
BRANCH   1  21
HETATM   21  C2  UNL     1      25.014   1.440  53.342  1.00  0.00     0.032 C 
HETATM   22  C1  UNL     1      25.207  -0.009  53.804  1.00  0.00     0.010 C 
ENDBRANCH   1  21
TORSDOF 2
ENDMDL
MODEL 9
REMARK VINA RESULT:      -6.5      2.500      5.932
REMARK  2 active torsions:
REMARK  status: ('A' for Active; 'I' for Inactive)
REMARK    1  A    between atoms: C2_2  and  C3_3 
REMARK    2  A    between atoms: C4_4  and  N1_5 
ROOT
HETATM    1  C3  UNL     1      25.558   4.956  49.342  1.00  0.00    -0.051 C 
HETATM    2  C4  UNL     1      24.277   5.468  49.576  1.00  0.00     0.044 C 
HETATM    3  C8  UNL     1      23.189   4.534  49.967  1.00  0.00     0.115 C 
HETATM    4  C9  UNL     1      23.742   3.565  48.923  1.00  0.00     0.020 C 
HETATM    5  C10 UNL     1      24.558   2.925  49.893  1.00  0.00    -0.047 C 
HETATM    6  C11 UNL     1      25.865   3.445  49.505  1.00  0.00     0.075 C 
HETATM    7  C12 UNL     1      23.656   2.141  50.789  1.00  0.00    -0.028 C 
HETATM    8  C13 UNL     1      22.577   1.320  50.740  1.00  0.00     0.091 C 
HETATM    9  N2  UNL     1      21.525   1.946  49.870  1.00  0.00    -0.398 N 
HETATM   10  C14 UNL     1      21.249   3.157  49.047  1.00  0.00     0.122 C 
HETATM   11  C15 UNL     1      21.826   4.453  49.596  1.00  0.00     0.063 C 
HETATM   12  C16 UNL     1      23.682   2.302  52.309  1.00  0.00     0.056 C 
HETATM   13  C17 UNL     1      22.617   1.684  53.051  1.00  0.00     0.020 C 
HETATM   14  C18 UNL     1      23.192   3.788  52.411  1.00  0.00     0.094 C 
HETATM   15  N3  UNL     1      23.305   4.507  51.304  1.00  0.00    -0.284 NA
HETATM   16  H16 UNL     1      20.767   1.188  49.940  1.00  0.00     0.158 HD
ENDROOT
BRANCH   2  17
HETATM   17  N1  UNL     1      24.097   6.869  49.423  1.00  0.00    -0.381 N 
HETATM   18  C5  UNL     1      23.868   7.982  48.490  1.00  0.00     0.124 C 
HETATM   19  C6  UNL     1      23.006   8.582  49.608  1.00  0.00     0.040 C 
HETATM   20  C7  UNL     1      24.084   7.909  50.464  1.00  0.00     0.124 C 
ENDBRANCH   2  17
BRANCH   1  21
HETATM   21  C2  UNL     1      26.632   5.877  48.928  1.00  0.00     0.032 C 
HETATM   22  C1  UNL     1      27.893   5.103  48.526  1.00  0.00     0.010 C 
ENDBRANCH   1  21
TORSDOF 2
ENDMDL
