MODEL 1
REMARK VINA RESULT:      -8.3      0.000      0.000
REMARK  7 active torsions:
REMARK  status: ('A' for Active; 'I' for Inactive)
REMARK    1  A    between atoms: C1_2  and  S1_3 
REMARK    2  A    between atoms: C1_2  and  C15_21 
REMARK    3  A    between atoms: S1_3  and  C2_4 
REMARK    4  A    between atoms: C6_8  and  N1_9 
REMARK    5  A    between atoms: N1_9  and  C7_10 
REMARK    6  A    between atoms: C10_14  and  C11_15 
REMARK    7  A    between atoms: S3_25  and  C19_26 
ROOT
HETATM    1  C2  UNL     1      23.476   4.299  50.333  1.00  0.00     0.036 A 
HETATM    2  C3  UNL     1      22.449   5.130  50.270  1.00  0.00     0.022 A 
HETATM    3  C4  UNL     1      21.962   5.566  51.565  1.00  0.00     0.016 A 
HETATM    4  C5  UNL     1      22.715   4.903  52.398  1.00  0.00     0.005 A 
HETATM    5  C6  UNL     1      23.665   4.193  51.802  1.00  0.00     0.077 A 
ENDROOT
BRANCH   5   6
HETATM    6  N1  UNL     1      24.433   3.653  52.866  1.00  0.00    -0.186 N 
HETATM    7  H3  UNL     1      24.907   4.314  53.505  1.00  0.00     0.184 HD
BRANCH   6   8
HETATM    8  C7  UNL     1      24.551   2.249  53.055  1.00  0.00     0.727 A 
HETATM    9  N2  UNL     1      23.465   1.463  53.137  1.00  0.00    -0.075 NA
HETATM   10  C8  UNL     1      23.578   0.117  53.318  1.00  0.00     0.139 A 
HETATM   11  C9  UNL     1      24.843  -0.435  53.416  1.00  0.00     0.053 A 
HETATM   12  C10 UNL     1      25.957   0.376  53.332  1.00  0.00     0.094 A 
HETATM   13  N3  UNL     1      25.769   1.694  53.153  1.00  0.00    -0.062 NA
BRANCH  12  14
HETATM   14  C11 UNL     1      27.347  -0.069  53.419  1.00  0.00     0.034 A 
HETATM   15  C12 UNL     1      27.802  -1.276  53.068  1.00  0.00     0.021 A 
HETATM   16  C13 UNL     1      29.132  -1.585  53.193  1.00  0.00     0.008 A 
HETATM   17  C14 UNL     1      29.954  -0.511  53.723  1.00  0.00     0.050 A 
HETATM   18  S2  UNL     1      28.731   0.865  53.998  1.00  0.00    -0.100 SA
ENDBRANCH  12  14
ENDBRANCH   6   8
ENDBRANCH   5   6
BRANCH   1  19
HETATM   19  S1  UNL     1      24.706   3.278  49.605  1.00  0.00    -0.049 SA
BRANCH  19  20
HETATM   20  C1  UNL     1      26.360   3.859  49.729  1.00  0.00     0.207 C 
HETATM   21  O1  UNL     1      26.881   2.827  50.220  1.00  0.00    -0.284 OA
BRANCH  20  22
HETATM   22  C15 UNL     1      26.096   5.127  49.205  1.00  0.00     0.097 A 
HETATM   23  C16 UNL     1      27.685   5.050  48.816  1.00  0.00     0.089 A 
HETATM   24  C17 UNL     1      28.876   5.997  48.053  1.00  0.00     0.065 A 
HETATM   25  C19 UNL     1      26.834   5.786  48.698  1.00  0.00    -0.026 A 
HETATM   26  S3  UNL     1      27.695   6.520  48.122  1.00  0.00    -0.207 SA
HETATM   27  C18 UNL     1      28.770   7.394  47.425  1.00  0.00     0.062 A 
ENDBRANCH  20  22
ENDBRANCH  19  20
ENDBRANCH   1  19
TORSDOF 7
ENDMDL
MODEL 2
REMARK VINA RESULT:      -8.3      3.205      6.422
REMARK  7 active torsions:
REMARK  status: ('A' for Active; 'I' for Inactive)
REMARK    1  A    between atoms: C1_2  and  S1_3 
REMARK    2  A    between atoms: C1_2  and  C15_21 
REMARK    3  A    between atoms: S1_3  and  C2_4 
REMARK    4  A    between atoms: C6_8  and  N1_9 
REMARK    5  A    between atoms: N1_9  and  C7_10 
REMARK    6  A    between atoms: C10_14  and  C11_15 
REMARK    7  A    between atoms: S3_25  and  C19_26 
ROOT
HETATM    1  C2  UNL     1      28.435   0.782  53.694  1.00  0.00     0.036 A 
HETATM    2  C3  UNL     1      29.660   0.293  53.803  1.00  0.00     0.022 A 
HETATM    3  C4  UNL     1      29.778  -1.097  53.406  1.00  0.00     0.016 A 
HETATM    4  C5  UNL     1      28.549  -1.422  53.114  1.00  0.00     0.005 A 
HETATM    5  C6  UNL     1      27.702  -0.403  53.180  1.00  0.00     0.077 A 
ENDROOT
BRANCH   5   6
HETATM    6  N1  UNL     1      26.467  -0.929  52.719  1.00  0.00    -0.186 N 
HETATM    7  H3  UNL     1      26.431  -1.305  51.756  1.00  0.00     0.184 HD
BRANCH   6   8
HETATM    8  C7  UNL     1      25.313  -0.943  53.549  1.00  0.00     0.727 A 
HETATM    9  N2  UNL     1      25.400  -1.232  54.857  1.00  0.00    -0.075 NA
HETATM   10  C8  UNL     1      24.294  -1.246  55.654  1.00  0.00     0.139 A 
HETATM   11  C9  UNL     1      23.066  -0.953  55.087  1.00  0.00     0.053 A 
HETATM   12  C10 UNL     1      22.981  -0.656  53.742  1.00  0.00     0.094 A 
HETATM   13  N3  UNL     1      24.113  -0.662  53.019  1.00  0.00    -0.062 NA
BRANCH  12  14
HETATM   14  C11 UNL     1      21.755  -0.329  53.014  1.00  0.00     0.034 A 
HETATM   15  C12 UNL     1      21.691   0.103  51.751  1.00  0.00     0.021 A 
HETATM   16  C13 UNL     1      20.482   0.380  51.168  1.00  0.00     0.008 A 
HETATM   17  C14 UNL     1      19.332   0.165  52.029  1.00  0.00     0.050 A 
HETATM   18  S2  UNL     1      20.097  -0.424  53.620  1.00  0.00    -0.100 SA
ENDBRANCH  12  14
ENDBRANCH   6   8
ENDBRANCH   5   6
BRANCH   1  19
HETATM   19  S1  UNL     1      27.249   2.070  53.835  1.00  0.00    -0.049 SA
BRANCH  19  20
HETATM   20  C1  UNL     1      26.273   2.376  52.406  1.00  0.00     0.207 C 
HETATM   21  O1  UNL     1      27.154   2.178  51.535  1.00  0.00    -0.284 OA
BRANCH  20  22
HETATM   22  C15 UNL     1      25.096   2.659  53.106  1.00  0.00     0.097 A 
HETATM   23  C16 UNL     1      24.554   3.015  51.603  1.00  0.00     0.089 A 
HETATM   24  C17 UNL     1      23.134   3.557  50.836  1.00  0.00     0.065 A 
HETATM   25  C19 UNL     1      24.144   3.013  52.657  1.00  0.00    -0.026 A 
HETATM   26  S3  UNL     1      23.066   3.417  52.120  1.00  0.00    -0.207 SA
HETATM   27  C18 UNL     1      21.765   3.911  51.435  1.00  0.00     0.062 A 
ENDBRANCH  20  22
ENDBRANCH  19  20
ENDBRANCH   1  19
TORSDOF 7
ENDMDL
MODEL 3
REMARK VINA RESULT:      -8.2      1.735      2.161
REMARK  7 active torsions:
REMARK  status: ('A' for Active; 'I' for Inactive)
REMARK    1  A    between atoms: C1_2  and  S1_3 
REMARK    2  A    between atoms: C1_2  and  C15_21 
REMARK    3  A    between atoms: S1_3  and  C2_4 
REMARK    4  A    between atoms: C6_8  and  N1_9 
REMARK    5  A    between atoms: N1_9  and  C7_10 
REMARK    6  A    between atoms: C10_14  and  C11_15 
REMARK    7  A    between atoms: S3_25  and  C19_26 
ROOT
HETATM    1  C2  UNL     1      23.384   2.887  49.415  1.00  0.00     0.036 A 
HETATM    2  C3  UNL     1      22.816   2.360  48.343  1.00  0.00     0.022 A 
HETATM    3  C4  UNL     1      21.769   1.402  48.640  1.00  0.00     0.016 A 
HETATM    4  C5  UNL     1      21.789   1.343  49.943  1.00  0.00     0.005 A 
HETATM    5  C6  UNL     1      22.633   2.203  50.499  1.00  0.00     0.077 A 
ENDROOT
BRANCH   5   6
HETATM    6  N1  UNL     1      22.420   2.067  51.895  1.00  0.00    -0.186 N 
HETATM    7  H3  UNL     1      21.694   2.659  52.334  1.00  0.00     0.184 HD
BRANCH   6   8
HETATM    8  C7  UNL     1      23.176   1.148  52.673  1.00  0.00     0.727 A 
HETATM    9  N2  UNL     1      22.606   0.057  53.209  1.00  0.00    -0.075 NA
HETATM   10  C8  UNL     1      23.330  -0.826  53.955  1.00  0.00     0.139 A 
HETATM   11  C9  UNL     1      24.676  -0.577  54.151  1.00  0.00     0.053 A 
HETATM   12  C10 UNL     1      25.259   0.545  53.599  1.00  0.00     0.094 A 
HETATM   13  N3  UNL     1      24.483   1.370  52.876  1.00  0.00    -0.062 NA
BRANCH  12  14
HETATM   14  C11 UNL     1      26.664   0.931  53.726  1.00  0.00     0.034 A 
HETATM   15  C12 UNL     1      27.176   2.123  53.405  1.00  0.00     0.021 A 
HETATM   16  C13 UNL     1      28.514   2.374  53.566  1.00  0.00     0.008 A 
HETATM   17  C14 UNL     1      29.280   1.258  54.095  1.00  0.00     0.050 A 
HETATM   18  S2  UNL     1      27.995  -0.070  54.319  1.00  0.00    -0.100 SA
ENDBRANCH  12  14
ENDBRANCH   6   8
ENDBRANCH   5   6
BRANCH   1  19
HETATM   19  S1  UNL     1      24.537   3.947  50.211  1.00  0.00    -0.049 SA
BRANCH  19  20
HETATM   20  C1  UNL     1      26.176   3.914  49.577  1.00  0.00     0.207 C 
HETATM   21  O1  UNL     1      26.476   2.739  49.902  1.00  0.00    -0.284 OA
BRANCH  20  22
HETATM   22  C15 UNL     1      26.159   5.224  49.092  1.00  0.00     0.097 A 
HETATM   23  C16 UNL     1      27.736   4.898  48.798  1.00  0.00     0.089 A 
HETATM   24  C17 UNL     1      29.115   5.659  48.151  1.00  0.00     0.065 A 
HETATM   25  C19 UNL     1      27.026   5.768  48.660  1.00  0.00    -0.026 A 
HETATM   26  S3  UNL     1      28.033   6.368  48.170  1.00  0.00    -0.207 SA
HETATM   27  C18 UNL     1      29.280   7.073  47.578  1.00  0.00     0.062 A 
ENDBRANCH  20  22
ENDBRANCH  19  20
ENDBRANCH   1  19
TORSDOF 7
ENDMDL
MODEL 4
REMARK VINA RESULT:      -8.1      2.598      5.139
REMARK  7 active torsions:
REMARK  status: ('A' for Active; 'I' for Inactive)
REMARK    1  A    between atoms: C1_2  and  S1_3 
REMARK    2  A    between atoms: C1_2  and  C15_21 
REMARK    3  A    between atoms: S1_3  and  C2_4 
REMARK    4  A    between atoms: C6_8  and  N1_9 
REMARK    5  A    between atoms: N1_9  and  C7_10 
REMARK    6  A    between atoms: C10_14  and  C11_15 
REMARK    7  A    between atoms: S3_25  and  C19_26 
ROOT
HETATM    1  C2  UNL     1      26.938   1.960  52.453  1.00  0.00     0.036 A 
HETATM    2  C3  UNL     1      28.047   2.461  52.972  1.00  0.00     0.022 A 
HETATM    3  C4  UNL     1      28.747   1.553  53.860  1.00  0.00     0.016 A 
HETATM    4  C5  UNL     1      27.964   0.510  53.887  1.00  0.00     0.005 A 
HETATM    5  C6  UNL     1      26.927   0.606  53.064  1.00  0.00     0.077 A 
ENDROOT
BRANCH   5   6
HETATM    6  N1  UNL     1      26.279  -0.654  53.152  1.00  0.00    -0.186 N 
HETATM    7  H3  UNL     1      26.735  -1.465  52.701  1.00  0.00     0.184 HD
BRANCH   6   8
HETATM    8  C7  UNL     1      25.042  -0.803  53.836  1.00  0.00     0.727 A 
HETATM    9  N2  UNL     1      24.998  -1.216  55.113  1.00  0.00    -0.075 NA
HETATM   10  C8  UNL     1      23.812  -1.359  55.770  1.00  0.00     0.139 A 
HETATM   11  C9  UNL     1      22.641  -1.067  55.093  1.00  0.00     0.053 A 
HETATM   12  C10 UNL     1      22.690  -0.643  53.781  1.00  0.00     0.094 A 
HETATM   13  N3  UNL     1      23.895  -0.526  53.198  1.00  0.00    -0.062 NA
BRANCH  12  14
HETATM   14  C11 UNL     1      21.537  -0.302  52.948  1.00  0.00     0.034 A 
HETATM   15  C12 UNL     1      21.591   0.190  51.707  1.00  0.00     0.021 A 
HETATM   16  C13 UNL     1      20.441   0.475  51.017  1.00  0.00     0.008 A 
HETATM   17  C14 UNL     1      19.215   0.198  51.747  1.00  0.00     0.050 A 
HETATM   18  S2  UNL     1      19.829  -0.455  53.378  1.00  0.00    -0.100 SA
ENDBRANCH  12  14
ENDBRANCH   6   8
ENDBRANCH   5   6
BRANCH   1  19
HETATM   19  S1  UNL     1      25.505   2.054  51.442  1.00  0.00    -0.049 SA
BRANCH  19  20
HETATM   20  C1  UNL     1      25.319   3.530  50.506  1.00  0.00     0.207 C 
HETATM   21  O1  UNL     1      24.218   3.909  50.975  1.00  0.00    -0.284 OA
BRANCH  20  22
HETATM   22  C15 UNL     1      26.516   3.391  49.798  1.00  0.00     0.097 A 
HETATM   23  C16 UNL     1      26.282   4.988  49.529  1.00  0.00     0.089 A 
HETATM   24  C17 UNL     1      27.032   6.287  48.724  1.00  0.00     0.065 A 
HETATM   25  C19 UNL     1      27.048   4.202  49.257  1.00  0.00    -0.026 A 
HETATM   26  S3  UNL     1      27.637   5.147  48.646  1.00  0.00    -0.207 SA
HETATM   27  C18 UNL     1      28.332   6.321  47.908  1.00  0.00     0.062 A 
ENDBRANCH  20  22
ENDBRANCH  19  20
ENDBRANCH   1  19
TORSDOF 7
ENDMDL
MODEL 5
REMARK VINA RESULT:      -7.8      2.173      6.355
REMARK  7 active torsions:
REMARK  status: ('A' for Active; 'I' for Inactive)
REMARK    1  A    between atoms: C1_2  and  S1_3 
REMARK    2  A    between atoms: C1_2  and  C15_21 
REMARK    3  A    between atoms: S1_3  and  C2_4 
REMARK    4  A    between atoms: C6_8  and  N1_9 
REMARK    5  A    between atoms: N1_9  and  C7_10 
REMARK    6  A    between atoms: C10_14  and  C11_15 
REMARK    7  A    between atoms: S3_25  and  C19_26 
ROOT
HETATM    1  C2  UNL     1      23.303  -0.221  53.731  1.00  0.00     0.036 A 
HETATM    2  C3  UNL     1      22.640  -1.085  54.482  1.00  0.00     0.022 A 
HETATM    3  C4  UNL     1      21.235  -0.765  54.649  1.00  0.00     0.016 A 
HETATM    4  C5  UNL     1      21.115   0.364  54.008  1.00  0.00     0.005 A 
HETATM    5  C6  UNL     1      22.225   0.740  53.384  1.00  0.00     0.077 A 
ENDROOT
BRANCH   5   6
HETATM    6  N1  UNL     1      21.858   1.905  52.663  1.00  0.00    -0.186 N 
HETATM    7  H3  UNL     1      21.360   2.654  53.175  1.00  0.00     0.184 HD
BRANCH   6   8
HETATM    8  C7  UNL     1      22.163   2.048  51.282  1.00  0.00     0.727 A 
HETATM    9  N2  UNL     1      21.423   1.442  50.340  1.00  0.00    -0.075 NA
HETATM   10  C8  UNL     1      21.714   1.578  49.015  1.00  0.00     0.139 A 
HETATM   11  C9  UNL     1      22.796   2.360  48.652  1.00  0.00     0.053 A 
HETATM   12  C10 UNL     1      23.555   2.981  49.623  1.00  0.00     0.094 A 
HETATM   13  N3  UNL     1      23.208   2.801  50.909  1.00  0.00    -0.062 NA
BRANCH  12  14
HETATM   14  C11 UNL     1      24.720   3.832  49.385  1.00  0.00     0.034 A 
HETATM   15  C12 UNL     1      25.997   3.447  49.475  1.00  0.00     0.021 A 
HETATM   16  C13 UNL     1      27.013   4.335  49.229  1.00  0.00     0.008 A 
HETATM   17  C14 UNL     1      26.573   5.675  48.878  1.00  0.00     0.050 A 
HETATM   18  S2  UNL     1      24.718   5.540  48.932  1.00  0.00    -0.100 SA
ENDBRANCH  12  14
ENDBRANCH   6   8
ENDBRANCH   5   6
BRANCH   1  19
HETATM   19  S1  UNL     1      24.759   0.371  52.946  1.00  0.00    -0.049 SA
BRANCH  19  20
HETATM   20  C1  UNL     1      25.847   1.313  53.955  1.00  0.00     0.207 C 
HETATM   21  O1  UNL     1      25.453   2.460  53.630  1.00  0.00    -0.284 OA
BRANCH  20  22
HETATM   22  C15 UNL     1      26.500   0.211  54.513  1.00  0.00     0.097 A 
HETATM   23  C16 UNL     1      27.765   0.816  53.668  1.00  0.00     0.089 A 
HETATM   24  C17 UNL     1      29.404   0.468  53.367  1.00  0.00     0.065 A 
HETATM   25  C19 UNL     1      27.565  -0.062  54.353  1.00  0.00    -0.026 A 
HETATM   26  S3  UNL     1      28.785  -0.353  54.153  1.00  0.00    -0.207 SA
HETATM   27  C18 UNL     1      30.277  -0.683  53.888  1.00  0.00     0.062 A 
ENDBRANCH  20  22
ENDBRANCH  19  20
ENDBRANCH   1  19
TORSDOF 7
ENDMDL
MODEL 6
REMARK VINA RESULT:      -7.7      2.260      4.527
REMARK  7 active torsions:
REMARK  status: ('A' for Active; 'I' for Inactive)
REMARK    1  A    between atoms: C1_2  and  S1_3 
REMARK    2  A    between atoms: C1_2  and  C15_21 
REMARK    3  A    between atoms: S1_3  and  C2_4 
REMARK    4  A    between atoms: C6_8  and  N1_9 
REMARK    5  A    between atoms: N1_9  and  C7_10 
REMARK    6  A    between atoms: C10_14  and  C11_15 
REMARK    7  A    between atoms: S3_25  and  C19_26 
ROOT
HETATM    1  C2  UNL     1      25.867   6.060  49.047  1.00  0.00     0.036 A 
HETATM    2  C3  UNL     1      27.023   6.506  48.585  1.00  0.00     0.022 A 
HETATM    3  C4  UNL     1      28.038   5.480  48.443  1.00  0.00     0.016 A 
HETATM    4  C5  UNL     1      27.442   4.415  48.902  1.00  0.00     0.005 A 
HETATM    5  C6  UNL     1      26.168   4.616  49.217  1.00  0.00     0.077 A 
ENDROOT
BRANCH   5   6
HETATM    6  N1  UNL     1      25.678   3.333  49.576  1.00  0.00    -0.186 N 
HETATM    7  H3  UNL     1      25.355   2.709  48.817  1.00  0.00     0.184 HD
BRANCH   6   8
HETATM    8  C7  UNL     1      25.630   2.912  50.933  1.00  0.00     0.727 A 
HETATM    9  N2  UNL     1      24.678   3.358  51.767  1.00  0.00    -0.075 NA
HETATM   10  C8  UNL     1      24.631   2.954  53.069  1.00  0.00     0.139 A 
HETATM   11  C9  UNL     1      25.591   2.067  53.521  1.00  0.00     0.053 A 
HETATM   12  C10 UNL     1      26.569   1.611  52.661  1.00  0.00     0.094 A 
HETATM   13  N3  UNL     1      26.552   2.052  51.392  1.00  0.00    -0.062 NA
BRANCH  12  14
HETATM   14  C11 UNL     1      27.641   0.676  53.002  1.00  0.00     0.034 A 
HETATM   15  C12 UNL     1      28.855   1.013  53.450  1.00  0.00     0.021 A 
HETATM   16  C13 UNL     1      29.785   0.048  53.739  1.00  0.00     0.008 A 
HETATM   17  C14 UNL     1      29.332  -1.314  53.515  1.00  0.00     0.050 A 
HETATM   18  S2  UNL     1      27.590  -1.087  52.902  1.00  0.00    -0.100 SA
ENDBRANCH  12  14
ENDBRANCH   6   8
ENDBRANCH   5   6
BRANCH   1  19
HETATM   19  S1  UNL     1      24.199   6.277  49.555  1.00  0.00    -0.049 SA
BRANCH  19  20
HETATM   20  C1  UNL     1      22.975   5.647  48.462  1.00  0.00     0.207 C 
HETATM   21  O1  UNL     1      23.309   6.277  47.428  1.00  0.00    -0.284 OA
BRANCH  20  22
HETATM   22  C15 UNL     1      22.362   4.821  49.408  1.00  0.00     0.097 A 
HETATM   23  C16 UNL     1      22.493   3.722  48.203  1.00  0.00     0.089 A 
HETATM   24  C17 UNL     1      22.117   2.090  47.895  1.00  0.00     0.065 A 
HETATM   25  C19 UNL     1      22.096   3.753  49.262  1.00  0.00    -0.026 A 
HETATM   26  S3  UNL     1      21.802   2.532  49.069  1.00  0.00    -0.207 SA
HETATM   27  C18 UNL     1      21.453   1.045  48.803  1.00  0.00     0.062 A 
ENDBRANCH  20  22
ENDBRANCH  19  20
ENDBRANCH   1  19
TORSDOF 7
ENDMDL
MODEL 7
REMARK VINA RESULT:      -7.7      2.374      5.779
REMARK  7 active torsions:
REMARK  status: ('A' for Active; 'I' for Inactive)
REMARK    1  A    between atoms: C1_2  and  S1_3 
REMARK    2  A    between atoms: C1_2  and  C15_21 
REMARK    3  A    between atoms: S1_3  and  C2_4 
REMARK    4  A    between atoms: C6_8  and  N1_9 
REMARK    5  A    between atoms: N1_9  and  C7_10 
REMARK    6  A    between atoms: C10_14  and  C11_15 
REMARK    7  A    between atoms: S3_25  and  C19_26 
ROOT
HETATM    1  C2  UNL     1      26.198   3.217  50.503  1.00  0.00     0.036 A 
HETATM    2  C3  UNL     1      26.759   3.754  49.432  1.00  0.00     0.022 A 
HETATM    3  C4  UNL     1      26.240   5.063  49.088  1.00  0.00     0.016 A 
HETATM    4  C5  UNL     1      25.301   5.248  49.974  1.00  0.00     0.005 A 
HETATM    5  C6  UNL     1      25.231   4.280  50.880  1.00  0.00     0.077 A 
ENDROOT
BRANCH   5   6
HETATM    6  N1  UNL     1      24.248   4.720  51.804  1.00  0.00    -0.186 N 
HETATM    7  H3  UNL     1      24.504   5.479  52.458  1.00  0.00     0.184 HD
BRANCH   6   8
HETATM    8  C7  UNL     1      22.951   4.141  51.835  1.00  0.00     0.727 A 
HETATM    9  N2  UNL     1      21.881   4.803  51.366  1.00  0.00    -0.075 NA
HETATM   10  C8  UNL     1      20.636   4.249  51.395  1.00  0.00     0.139 A 
HETATM   11  C9  UNL     1      20.490   2.977  51.920  1.00  0.00     0.053 A 
HETATM   12  C10 UNL     1      21.591   2.299  52.401  1.00  0.00     0.094 A 
HETATM   13  N3  UNL     1      22.787   2.909  52.339  1.00  0.00    -0.062 NA
BRANCH  12  14
HETATM   14  C11 UNL     1      21.584   0.955  52.980  1.00  0.00     0.034 A 
HETATM   15  C12 UNL     1      22.630   0.125  53.034  1.00  0.00     0.021 A 
HETATM   16  C13 UNL     1      22.507  -1.116  53.602  1.00  0.00     0.008 A 
HETATM   17  C14 UNL     1      21.181  -1.419  54.113  1.00  0.00     0.050 A 
HETATM   18  S2  UNL     1      20.215   0.125  53.729  1.00  0.00    -0.100 SA
ENDBRANCH  12  14
ENDBRANCH   6   8
ENDBRANCH   5   6
BRANCH   1  19
HETATM   19  S1  UNL     1      26.002   1.934  51.687  1.00  0.00    -0.049 SA
BRANCH  19  20
HETATM   20  C1  UNL     1      26.580   2.288  53.308  1.00  0.00     0.207 C 
HETATM   21  O1  UNL     1      25.469   2.442  53.871  1.00  0.00    -0.284 OA
BRANCH  20  22
HETATM   22  C15 UNL     1      27.938   2.185  52.991  1.00  0.00     0.097 A 
HETATM   23  C16 UNL     1      27.776   0.744  53.750  1.00  0.00     0.089 A 
HETATM   24  C17 UNL     1      28.719  -0.611  54.167  1.00  0.00     0.065 A 
HETATM   25  C19 UNL     1      28.599   1.326  53.238  1.00  0.00    -0.026 A 
HETATM   26  S3  UNL     1      29.333   0.333  53.531  1.00  0.00    -0.207 SA
HETATM   27  C18 UNL     1      30.205  -0.894  53.905  1.00  0.00     0.062 A 
ENDBRANCH  20  22
ENDBRANCH  19  20
ENDBRANCH   1  19
TORSDOF 7
ENDMDL
MODEL 8
REMARK VINA RESULT:      -7.6      3.248      7.105
REMARK  7 active torsions:
REMARK  status: ('A' for Active; 'I' for Inactive)
REMARK    1  A    between atoms: C1_2  and  S1_3 
REMARK    2  A    between atoms: C1_2  and  C15_21 
REMARK    3  A    between atoms: S1_3  and  C2_4 
REMARK    4  A    between atoms: C6_8  and  N1_9 
REMARK    5  A    between atoms: N1_9  and  C7_10 
REMARK    6  A    between atoms: C10_14  and  C11_15 
REMARK    7  A    between atoms: S3_25  and  C19_26 
ROOT
HETATM    1  C2  UNL     1      23.159  -0.152  53.536  1.00  0.00     0.036 A 
HETATM    2  C3  UNL     1      22.882  -0.909  54.585  1.00  0.00     0.022 A 
HETATM    3  C4  UNL     1      21.523  -1.415  54.606  1.00  0.00     0.016 A 
HETATM    4  C5  UNL     1      20.992  -0.869  53.548  1.00  0.00     0.005 A 
HETATM    5  C6  UNL     1      21.857  -0.175  52.819  1.00  0.00     0.077 A 
ENDROOT
BRANCH   5   6
HETATM    6  N1  UNL     1      21.124   0.229  51.673  1.00  0.00    -0.186 N 
HETATM    7  H3  UNL     1      21.046  -0.441  50.889  1.00  0.00     0.184 HD
BRANCH   6   8
HETATM    8  C7  UNL     1      20.513   1.510  51.600  1.00  0.00     0.727 A 
HETATM    9  N2  UNL     1      19.178   1.648  51.646  1.00  0.00    -0.075 NA
HETATM   10  C8  UNL     1      18.590   2.876  51.576  1.00  0.00     0.139 A 
HETATM   11  C9  UNL     1      19.400   3.991  51.456  1.00  0.00     0.053 A 
HETATM   12  C10 UNL     1      20.772   3.845  51.408  1.00  0.00     0.094 A 
HETATM   13  N3  UNL     1      21.280   2.604  51.483  1.00  0.00    -0.062 NA
BRANCH  12  14
HETATM   14  C11 UNL     1      21.744   4.931  51.284  1.00  0.00     0.034 A 
HETATM   15  C12 UNL     1      21.513   6.123  50.725  1.00  0.00     0.021 A 
HETATM   16  C13 UNL     1      22.504   7.069  50.663  1.00  0.00     0.008 A 
HETATM   17  C14 UNL     1      23.771   6.655  51.240  1.00  0.00     0.050 A 
HETATM   18  S2  UNL     1      23.425   4.925  51.830  1.00  0.00    -0.100 SA
ENDBRANCH  12  14
ENDBRANCH   6   8
ENDBRANCH   5   6
BRANCH   1  19
HETATM   19  S1  UNL     1      24.234   0.843  52.568  1.00  0.00    -0.049 SA
BRANCH  19  20
HETATM   20  C1  UNL     1      25.818   1.162  53.260  1.00  0.00     0.207 C 
HETATM   21  O1  UNL     1      25.606   2.327  53.678  1.00  0.00    -0.284 OA
BRANCH  20  22
HETATM   22  C15 UNL     1      26.363  -0.080  52.925  1.00  0.00     0.097 A 
HETATM   23  C16 UNL     1      27.688   0.560  53.642  1.00  0.00     0.089 A 
HETATM   24  C17 UNL     1      29.295   0.131  54.006  1.00  0.00     0.065 A 
HETATM   25  C19 UNL     1      27.402  -0.412  53.139  1.00  0.00    -0.026 A 
HETATM   26  S3  UNL     1      28.594  -0.768  53.395  1.00  0.00    -0.207 SA
HETATM   27  C18 UNL     1      30.055  -1.172  53.720  1.00  0.00     0.062 A 
ENDBRANCH  20  22
ENDBRANCH  19  20
ENDBRANCH   1  19
TORSDOF 7
ENDMDL
MODEL 9
REMARK VINA RESULT:      -7.3      2.760      4.612
REMARK  7 active torsions:
REMARK  status: ('A' for Active; 'I' for Inactive)
REMARK    1  A    between atoms: C1_2  and  S1_3 
REMARK    2  A    between atoms: C1_2  and  C15_21 
REMARK    3  A    between atoms: S1_3  and  C2_4 
REMARK    4  A    between atoms: C6_8  and  N1_9 
REMARK    5  A    between atoms: N1_9  and  C7_10 
REMARK    6  A    between atoms: C10_14  and  C11_15 
REMARK    7  A    between atoms: S3_25  and  C19_26 
ROOT
HETATM    1  C2  UNL     1      20.349   0.221  52.667  1.00  0.00     0.036 A 
HETATM    2  C3  UNL     1      19.991  -0.450  53.749  1.00  0.00     0.022 A 
HETATM    3  C4  UNL     1      21.079  -1.163  54.389  1.00  0.00     0.016 A 
HETATM    4  C5  UNL     1      22.088  -0.929  53.596  1.00  0.00     0.005 A 
HETATM    5  C6  UNL     1      21.800  -0.090  52.608  1.00  0.00     0.077 A 
ENDROOT
BRANCH   5   6
HETATM    6  N1  UNL     1      23.036   0.123  51.943  1.00  0.00    -0.186 N 
HETATM    7  H3  UNL     1      23.155  -0.285  51.000  1.00  0.00     0.184 HD
BRANCH   6   8
HETATM    8  C7  UNL     1      24.081   0.874  52.547  1.00  0.00     0.727 A 
HETATM    9  N2  UNL     1      23.884   2.139  52.954  1.00  0.00    -0.075 NA
HETATM   10  C8  UNL     1      24.886   2.860  53.534  1.00  0.00     0.139 A 
HETATM   11  C9  UNL     1      26.122   2.261  53.700  1.00  0.00     0.053 A 
HETATM   12  C10 UNL     1      26.320   0.961  53.280  1.00  0.00     0.094 A 
HETATM   13  N3  UNL     1      25.287   0.312  52.717  1.00  0.00    -0.062 NA
BRANCH  12  14
HETATM   14  C11 UNL     1      27.568   0.207  53.392  1.00  0.00     0.034 A 
HETATM   15  C12 UNL     1      27.745  -1.066  53.022  1.00  0.00     0.021 A 
HETATM   16  C13 UNL     1      28.964  -1.674  53.174  1.00  0.00     0.008 A 
HETATM   17  C14 UNL     1      29.994  -0.828  53.755  1.00  0.00     0.050 A 
HETATM   18  S2  UNL     1      29.110   0.786  54.033  1.00  0.00    -0.100 SA
ENDBRANCH  12  14
ENDBRANCH   6   8
ENDBRANCH   5   6
BRANCH   1  19
HETATM   19  S1  UNL     1      20.015   1.264  51.293  1.00  0.00    -0.049 SA
BRANCH  19  20
HETATM   20  C1  UNL     1      20.420   2.962  51.500  1.00  0.00     0.207 C 
HETATM   21  O1  UNL     1      20.064   3.092  52.697  1.00  0.00    -0.284 OA
BRANCH  20  22
HETATM   22  C15 UNL     1      20.896   3.145  50.199  1.00  0.00     0.097 A 
HETATM   23  C16 UNL     1      22.022   4.043  50.978  1.00  0.00     0.089 A 
HETATM   24  C17 UNL     1      23.398   4.982  50.625  1.00  0.00     0.065 A 
HETATM   25  C19 UNL     1      21.787   3.746  49.913  1.00  0.00    -0.026 A 
HETATM   26  S3  UNL     1      22.808   4.438  49.611  1.00  0.00    -0.207 SA
HETATM   27  C18 UNL     1      24.058   5.291  49.274  1.00  0.00     0.062 A 
ENDBRANCH  20  22
ENDBRANCH  19  20
ENDBRANCH   1  19
TORSDOF 7
ENDMDL
