MODEL 1
REMARK VINA RESULT:      -7.3      0.000      0.000
REMARK  4 active torsions:
REMARK  status: ('A' for Active; 'I' for Inactive)
REMARK    1  A    between atoms: C13_16  and  C14_17 
REMARK    2  A    between atoms: C14_17  and  C15_18 
REMARK    3  A    between atoms: C15_18  and  C16_19 
REMARK    4  A    between atoms: C16_19  and  O3_21 
ROOT
HETATM    1  C1  UNL     1      23.350   4.601  51.393  1.00  0.00     0.051 C 
HETATM    2  C2  UNL     1      22.793   3.329  51.585  1.00  0.00    -0.037 C 
HETATM    3  P1  UNL     1      21.368   2.718  50.929  1.00  0.00    -0.038 P 
HETATM    4  C3  UNL     1      19.992   2.551  52.123  1.00  0.00     0.072 C 
HETATM    5  C4  UNL     1      19.505   1.043  51.887  1.00  0.00     0.032 C 
HETATM    6 BR1  UNL     1      18.109   0.769  50.529  1.00  0.00    -0.086 Br
HETATM    7  C5  UNL     1      20.095   0.006  52.618  1.00  0.00     0.037 C 
HETATM    8  C6  UNL     1      20.600  -1.215  53.287  1.00  0.00    -0.010 C 
HETATM    9  C7  UNL     1      21.505  -0.514  54.106  1.00  0.00     0.060 A 
HETATM   10  C8  UNL     1      22.318  -1.410  54.880  1.00  0.00     0.029 C 
HETATM   11  C9  UNL     1      23.439  -1.037  53.496  1.00  0.00     0.016 C 
HETATM   12  C10 UNL     1      22.625   0.056  53.723  1.00  0.00     0.086 A 
HETATM   13  C11 UNL     1      21.500   0.900  54.076  1.00  0.00     0.157 A 
HETATM   14  O1  UNL     1      20.333   0.731  54.496  1.00  0.00    -0.295 OA
HETATM   15  C12 UNL     1      22.855   1.139  52.686  1.00  0.00     0.033 C 
HETATM   16  C13 UNL     1      23.491   2.257  52.445  1.00  0.00    -0.026 C 
HETATM   17  N1  UNL     1      22.135   0.896  51.363  1.00  0.00    -0.370 N 
HETATM   18  H4  UNL     1      21.186   2.745  49.742  1.00  0.00     0.079 HD
HETATM   19  H17 UNL     1      21.941   0.129  50.681  1.00  0.00     0.164 HD
ENDROOT
BRANCH  16  20
HETATM   20  C14 UNL     1      24.800   2.246  53.117  1.00  0.00     0.051 C 
BRANCH  20  21
HETATM   21  C15 UNL     1      25.832   1.503  52.269  1.00  0.00     0.114 C 
BRANCH  21  22
HETATM   22  C16 UNL     1      27.112   2.282  52.145  1.00  0.00     0.139 C 
HETATM   23  O2  UNL     1      28.234   2.363  52.668  1.00  0.00    -0.650 OA
BRANCH  22  24
HETATM   24  O3  UNL     1      27.046   3.245  51.118  1.00  0.00    -0.776 OA
HETATM   25  H16 UNL     1      26.222   3.828  50.963  1.00  0.00     0.167 HD
ENDBRANCH  22  24
ENDBRANCH  21  22
ENDBRANCH  20  21
ENDBRANCH  16  20
TORSDOF 4
ENDMDL
MODEL 2
REMARK VINA RESULT:      -7.3      1.212      1.387
REMARK  4 active torsions:
REMARK  status: ('A' for Active; 'I' for Inactive)
REMARK    1  A    between atoms: C13_16  and  C14_17 
REMARK    2  A    between atoms: C14_17  and  C15_18 
REMARK    3  A    between atoms: C15_18  and  C16_19 
REMARK    4  A    between atoms: C16_19  and  O3_21 
ROOT
HETATM    1  C1  UNL     1      23.684   3.350  49.662  1.00  0.00     0.051 C 
HETATM    2  C2  UNL     1      22.914   2.354  50.280  1.00  0.00    -0.037 C 
HETATM    3  P1  UNL     1      21.326   1.914  49.931  1.00  0.00    -0.038 P 
HETATM    4  C3  UNL     1      20.101   2.428  51.189  1.00  0.00     0.072 C 
HETATM    5  C4  UNL     1      19.300   1.070  51.472  1.00  0.00     0.032 C 
HETATM    6 BR1  UNL     1      17.722   0.726  50.351  1.00  0.00    -0.086 Br
HETATM    7  C5  UNL     1      19.758   0.193  52.463  1.00  0.00     0.037 C 
HETATM    8  C6  UNL     1      20.090  -0.853  53.458  1.00  0.00    -0.010 C 
HETATM    9  C7  UNL     1      21.209  -0.162  53.960  1.00  0.00     0.060 A 
HETATM   10  C8  UNL     1      21.917  -0.946  54.934  1.00  0.00     0.029 C 
HETATM   11  C9  UNL     1      22.911  -1.267  53.445  1.00  0.00     0.016 C 
HETATM   12  C10 UNL     1      22.364  -0.002  53.355  1.00  0.00     0.086 A 
HETATM   13  C11 UNL     1      21.480   1.140  53.481  1.00  0.00     0.157 A 
HETATM   14  O1  UNL     1      20.364   1.374  53.996  1.00  0.00    -0.295 OA
HETATM   15  C12 UNL     1      22.675   0.640  52.016  1.00  0.00     0.033 C 
HETATM   16  C13 UNL     1      23.486   1.460  51.397  1.00  0.00    -0.026 C 
HETATM   17  N1  UNL     1      21.765   0.181  50.880  1.00  0.00    -0.370 N 
HETATM   18  H4  UNL     1      21.009   1.625  48.809  1.00  0.00     0.079 HD
HETATM   19  H17 UNL     1      21.340  -0.689  50.490  1.00  0.00     0.164 HD
ENDROOT
BRANCH  16  20
HETATM   20  C14 UNL     1      24.839   1.354  51.965  1.00  0.00     0.051 C 
BRANCH  20  21
HETATM   21  C15 UNL     1      25.041   2.395  53.066  1.00  0.00     0.114 C 
BRANCH  21  22
HETATM   22  C16 UNL     1      26.158   2.008  53.995  1.00  0.00     0.139 C 
HETATM   23  O2  UNL     1      26.425   1.170  54.871  1.00  0.00    -0.650 OA
BRANCH  22  24
HETATM   24  O3  UNL     1      27.275   2.857  53.860  1.00  0.00    -0.776 OA
HETATM   25  H16 UNL     1      27.203   3.808  53.493  1.00  0.00     0.167 HD
ENDBRANCH  22  24
ENDBRANCH  21  22
ENDBRANCH  20  21
ENDBRANCH  16  20
TORSDOF 4
ENDMDL
MODEL 3
REMARK VINA RESULT:      -7.0      9.055     12.127
REMARK  4 active torsions:
REMARK  status: ('A' for Active; 'I' for Inactive)
REMARK    1  A    between atoms: C13_16  and  C14_17 
REMARK    2  A    between atoms: C14_17  and  C15_18 
REMARK    3  A    between atoms: C15_18  and  C16_19 
REMARK    4  A    between atoms: C16_19  and  O3_21 
ROOT
HETATM    1  C1  UNL     1      27.799   4.735  48.629  1.00  0.00     0.051 C 
HETATM    2  C2  UNL     1      28.781   5.661  48.249  1.00  0.00    -0.037 C 
HETATM    3  P1  UNL     1      30.407   5.365  47.926  1.00  0.00    -0.038 P 
HETATM    4  C3  UNL     1      31.560   5.973  49.209  1.00  0.00     0.072 C 
HETATM    5  C4  UNL     1      32.630   6.803  48.353  1.00  0.00     0.032 C 
HETATM    6 BR1  UNL     1      34.191   5.809  47.690  1.00  0.00    -0.086 Br
HETATM    7  C5  UNL     1      32.403   8.160  48.095  1.00  0.00     0.037 C 
HETATM    8  C6  UNL     1      32.334   9.591  47.717  1.00  0.00    -0.010 C 
HETATM    9  C7  UNL     1      31.124   9.816  48.399  1.00  0.00     0.060 A 
HETATM   10  C8  UNL     1      30.633  11.147  48.173  1.00  0.00     0.029 C 
HETATM   11  C9  UNL     1      29.656  10.210  46.958  1.00  0.00     0.016 C 
HETATM   12  C10 UNL     1      29.933   9.394  48.037  1.00  0.00     0.086 A 
HETATM   13  C11 UNL     1      30.575   8.774  49.180  1.00  0.00     0.157 A 
HETATM   14  O1  UNL     1      31.644   8.921  49.814  1.00  0.00    -0.295 OA
HETATM   15  C12 UNL     1      29.439   7.979  47.801  1.00  0.00     0.033 C 
HETATM   16  C13 UNL     1      28.452   7.150  48.029  1.00  0.00    -0.026 C 
HETATM   17  N1  UNL     1      30.369   7.131  46.939  1.00  0.00    -0.370 N 
HETATM   18  H4  UNL     1      30.723   4.526  47.126  1.00  0.00     0.079 HD
HETATM   19  H17 UNL     1      30.942   7.195  46.068  1.00  0.00     0.164 HD
ENDROOT
BRANCH  16  20
HETATM   20  C14 UNL     1      27.175   7.881  48.052  1.00  0.00     0.051 C 
BRANCH  20  21
HETATM   21  C15 UNL     1      26.711   8.104  49.491  1.00  0.00     0.114 C 
BRANCH  21  22
HETATM   22  C16 UNL     1      27.018   9.499  49.962  1.00  0.00     0.139 C 
HETATM   23  O2  UNL     1      26.921  10.677  49.584  1.00  0.00    -0.650 OA
BRANCH  22  24
HETATM   24  O3  UNL     1      27.621   9.506  51.235  1.00  0.00    -0.776 OA
HETATM   25  H16 UNL     1      28.617   9.688  51.372  1.00  0.00     0.167 HD
ENDBRANCH  22  24
ENDBRANCH  21  22
ENDBRANCH  20  21
ENDBRANCH  16  20
TORSDOF 4
ENDMDL
MODEL 4
REMARK VINA RESULT:      -7.0      2.459      5.260
REMARK  4 active torsions:
REMARK  status: ('A' for Active; 'I' for Inactive)
REMARK    1  A    between atoms: C13_16  and  C14_17 
REMARK    2  A    between atoms: C14_17  and  C15_18 
REMARK    3  A    between atoms: C15_18  and  C16_19 
REMARK    4  A    between atoms: C16_19  and  O3_21 
ROOT
HETATM    1  C1  UNL     1      19.665   0.690  52.375  1.00  0.00     0.051 C 
HETATM    2  C2  UNL     1      20.724   1.591  52.192  1.00  0.00    -0.037 C 
HETATM    3  P1  UNL     1      20.630   3.248  51.906  1.00  0.00    -0.038 P 
HETATM    4  C3  UNL     1      21.049   3.749  50.198  1.00  0.00     0.072 C 
HETATM    5  C4  UNL     1      22.119   4.919  50.429  1.00  0.00     0.032 C 
HETATM    6 BR1  UNL     1      21.409   6.746  50.589  1.00  0.00    -0.086 Br
HETATM    7  C5  UNL     1      23.478   4.599  50.532  1.00  0.00     0.037 C 
HETATM    8  C6  UNL     1      24.946   4.457  50.671  1.00  0.00    -0.010 C 
HETATM    9  C7  UNL     1      24.930   3.062  50.483  1.00  0.00     0.060 A 
HETATM   10  C8  UNL     1      26.236   2.492  50.662  1.00  0.00     0.029 C 
HETATM   11  C9  UNL     1      25.496   2.177  52.294  1.00  0.00     0.016 C 
HETATM   12  C10 UNL     1      24.499   2.163  51.339  1.00  0.00     0.086 A 
HETATM   13  C11 UNL     1      23.708   2.431  50.152  1.00  0.00     0.157 A 
HETATM   14  O1  UNL     1      23.805   3.161  49.141  1.00  0.00    -0.295 OA
HETATM   15  C12 UNL     1      23.129   2.008  51.972  1.00  0.00     0.033 C 
HETATM   16  C13 UNL     1      22.196   1.144  52.279  1.00  0.00    -0.026 C 
HETATM   17  N1  UNL     1      22.553   3.305  52.533  1.00  0.00    -0.370 N 
HETATM   18  H4  UNL     1      20.002   3.956  52.646  1.00  0.00     0.079 HD
HETATM   19  H17 UNL     1      22.841   4.138  53.093  1.00  0.00     0.164 HD
ENDROOT
BRANCH  16  20
HETATM   20  C14 UNL     1      22.803  -0.149  52.632  1.00  0.00     0.051 C 
BRANCH  20  21
HETATM   21  C15 UNL     1      23.148  -0.190  54.121  1.00  0.00     0.114 C 
BRANCH  21  22
HETATM   22  C16 UNL     1      22.334  -1.223  54.849  1.00  0.00     0.139 C 
HETATM   23  O2  UNL     1      21.193  -1.712  54.851  1.00  0.00    -0.650 OA
BRANCH  22  24
HETATM   24  O3  UNL     1      23.071  -1.851  55.873  1.00  0.00    -0.776 OA
HETATM   25  H16 UNL     1      24.088  -1.949  55.838  1.00  0.00     0.167 HD
ENDBRANCH  22  24
ENDBRANCH  21  22
ENDBRANCH  20  21
ENDBRANCH  16  20
TORSDOF 4
ENDMDL
MODEL 5
REMARK VINA RESULT:      -7.0      2.060      3.989
REMARK  4 active torsions:
REMARK  status: ('A' for Active; 'I' for Inactive)
REMARK    1  A    between atoms: C13_16  and  C14_17 
REMARK    2  A    between atoms: C14_17  and  C15_18 
REMARK    3  A    between atoms: C15_18  and  C16_19 
REMARK    4  A    between atoms: C16_19  and  O3_21 
ROOT
HETATM    1  C1  UNL     1      22.647  -0.990  54.105  1.00  0.00     0.051 C 
HETATM    2  C2  UNL     1      22.404   0.155  53.333  1.00  0.00    -0.037 C 
HETATM    3  P1  UNL     1      20.933   0.935  53.082  1.00  0.00    -0.038 P 
HETATM    4  C3  UNL     1      20.230   0.712  51.408  1.00  0.00     0.072 C 
HETATM    5  C4  UNL     1      19.900   2.215  50.964  1.00  0.00     0.032 C 
HETATM    6 BR1  UNL     1      18.112   2.896  51.417  1.00  0.00    -0.086 Br
HETATM    7  C5  UNL     1      20.880   2.972  50.311  1.00  0.00     0.037 C 
HETATM    8  C6  UNL     1      21.783   3.922  49.622  1.00  0.00    -0.010 C 
HETATM    9  C7  UNL     1      22.844   3.002  49.528  1.00  0.00     0.060 A 
HETATM   10  C8  UNL     1      24.023   3.613  48.979  1.00  0.00     0.029 C 
HETATM   11  C9  UNL     1      24.389   3.699  50.759  1.00  0.00     0.016 C 
HETATM   12  C10 UNL     1      23.607   2.587  50.514  1.00  0.00     0.086 A 
HETATM   13  C11 UNL     1      22.633   1.670  49.953  1.00  0.00     0.157 A 
HETATM   14  O1  UNL     1      21.790   1.693  49.028  1.00  0.00    -0.295 OA
HETATM   15  C12 UNL     1      23.225   1.886  51.804  1.00  0.00     0.033 C 
HETATM   16  C13 UNL     1      23.540   0.903  52.609  1.00  0.00    -0.026 C 
HETATM   17  N1  UNL     1      22.053   2.531  52.539  1.00  0.00    -0.370 N 
HETATM   18  H4  UNL     1      20.264   1.282  54.017  1.00  0.00     0.079 HD
HETATM   19  H17 UNL     1      21.695   3.472  52.814  1.00  0.00     0.164 HD
ENDROOT
BRANCH  16  20
HETATM   20  C14 UNL     1      24.998   0.708  52.619  1.00  0.00     0.051 C 
BRANCH  20  21
HETATM   21  C15 UNL     1      25.656   1.631  53.644  1.00  0.00     0.114 C 
BRANCH  21  22
HETATM   22  C16 UNL     1      26.962   2.179  53.138  1.00  0.00     0.139 C 
HETATM   23  O2  UNL     1      27.622   2.257  52.090  1.00  0.00    -0.650 OA
BRANCH  22  24
HETATM   24  O3  UNL     1      27.705   2.802  54.160  1.00  0.00    -0.776 OA
HETATM   25  H16 UNL     1      27.410   2.792  55.139  1.00  0.00     0.167 HD
ENDBRANCH  22  24
ENDBRANCH  21  22
ENDBRANCH  20  21
ENDBRANCH  16  20
TORSDOF 4
ENDMDL
MODEL 6
REMARK VINA RESULT:      -7.0      2.493      4.289
REMARK  4 active torsions:
REMARK  status: ('A' for Active; 'I' for Inactive)
REMARK    1  A    between atoms: C13_16  and  C14_17 
REMARK    2  A    between atoms: C14_17  and  C15_18 
REMARK    3  A    between atoms: C15_18  and  C16_19 
REMARK    4  A    between atoms: C16_19  and  O3_21 
ROOT
HETATM    1  C1  UNL     1      22.247  -1.254  53.965  1.00  0.00     0.051 C 
HETATM    2  C2  UNL     1      22.196  -0.032  53.280  1.00  0.00    -0.037 C 
HETATM    3  P1  UNL     1      20.852   0.951  53.023  1.00  0.00    -0.038 P 
HETATM    4  C3  UNL     1      20.226   0.950  51.305  1.00  0.00     0.072 C 
HETATM    5  C4  UNL     1      20.115   2.512  50.972  1.00  0.00     0.032 C 
HETATM    6 BR1  UNL     1      18.404   3.385  51.393  1.00  0.00    -0.086 Br
HETATM    7  C5  UNL     1      21.219   3.183  50.433  1.00  0.00     0.037 C 
HETATM    8  C6  UNL     1      22.274   4.057  49.869  1.00  0.00    -0.010 C 
HETATM    9  C7  UNL     1      23.215   3.017  49.751  1.00  0.00     0.060 A 
HETATM   10  C8  UNL     1      24.491   3.508  49.312  1.00  0.00     0.029 C 
HETATM   11  C9  UNL     1      24.759   3.409  51.109  1.00  0.00     0.016 C 
HETATM   12  C10 UNL     1      23.859   2.431  50.735  1.00  0.00     0.086 A 
HETATM   13  C11 UNL     1      22.813   1.695  50.053  1.00  0.00     0.157 A 
HETATM   14  O1  UNL     1      22.035   1.898  49.093  1.00  0.00    -0.295 OA
HETATM   15  C12 UNL     1      23.317   1.690  51.942  1.00  0.00     0.033 C 
HETATM   16  C13 UNL     1      23.457   0.616  52.677  1.00  0.00    -0.026 C 
HETATM   17  N1  UNL     1      22.194   2.424  52.670  1.00  0.00    -0.370 N 
HETATM   18  H4  UNL     1      20.178   1.310  53.950  1.00  0.00     0.079 HD
HETATM   19  H17 UNL     1      21.942   3.380  53.005  1.00  0.00     0.164 HD
ENDROOT
BRANCH  16  20
HETATM   20  C14 UNL     1      24.877   0.232  52.741  1.00  0.00     0.051 C 
BRANCH  20  21
HETATM   21  C15 UNL     1      25.582   0.973  53.876  1.00  0.00     0.114 C 
BRANCH  21  22
HETATM   22  C16 UNL     1      26.372   0.034  54.744  1.00  0.00     0.139 C 
HETATM   23  O2  UNL     1      27.546  -0.214  55.060  1.00  0.00    -0.650 OA
BRANCH  22  24
HETATM   24  O3  UNL     1      25.543  -0.879  55.425  1.00  0.00    -0.776 OA
HETATM   25  H16 UNL     1      24.670  -1.233  55.028  1.00  0.00     0.167 HD
ENDBRANCH  22  24
ENDBRANCH  21  22
ENDBRANCH  20  21
ENDBRANCH  16  20
TORSDOF 4
ENDMDL
MODEL 7
REMARK VINA RESULT:      -6.7      4.653      6.785
REMARK  4 active torsions:
REMARK  status: ('A' for Active; 'I' for Inactive)
REMARK    1  A    between atoms: C13_16  and  C14_17 
REMARK    2  A    between atoms: C14_17  and  C15_18 
REMARK    3  A    between atoms: C15_18  and  C16_19 
REMARK    4  A    between atoms: C16_19  and  O3_21 
ROOT
HETATM    1  C1  UNL     1      27.702   4.555  48.579  1.00  0.00     0.051 C 
HETATM    2  C2  UNL     1      26.523   4.771  49.306  1.00  0.00    -0.037 C 
HETATM    3  P1  UNL     1      25.731   3.695  50.330  1.00  0.00    -0.038 P 
HETATM    4  C3  UNL     1      24.170   3.016  49.662  1.00  0.00     0.072 C 
HETATM    5  C4  UNL     1      23.137   3.271  50.858  1.00  0.00     0.032 C 
HETATM    6 BR1  UNL     1      22.964   1.840  52.196  1.00  0.00    -0.086 Br
HETATM    7  C5  UNL     1      22.435   4.481  50.917  1.00  0.00     0.037 C 
HETATM    8  C6  UNL     1      21.613   5.691  51.150  1.00  0.00    -0.010 C 
HETATM    9  C7  UNL     1      22.071   6.347  49.992  1.00  0.00     0.060 A 
HETATM   10  C8  UNL     1      21.554   7.685  49.906  1.00  0.00     0.029 C 
HETATM   11  C9  UNL     1      23.203   7.996  50.610  1.00  0.00     0.016 C 
HETATM   12  C10 UNL     1      23.261   6.872  49.810  1.00  0.00     0.086 A 
HETATM   13  C11 UNL     1      22.923   5.652  49.103  1.00  0.00     0.157 A 
HETATM   14  O1  UNL     1      21.922   4.906  49.002  1.00  0.00    -0.295 OA
HETATM   15  C12 UNL     1      24.628   6.218  49.877  1.00  0.00     0.033 C 
HETATM   16  C13 UNL     1      25.788   6.126  49.279  1.00  0.00    -0.026 C 
HETATM   17  N1  UNL     1      24.836   5.337  51.105  1.00  0.00    -0.370 N 
HETATM   18  H4  UNL     1      26.326   3.166  51.231  1.00  0.00     0.079 HD
HETATM   19  H17 UNL     1      24.663   5.336  52.134  1.00  0.00     0.164 HD
ENDROOT
BRANCH  16  20
HETATM   20  C14 UNL     1      26.136   7.412  48.653  1.00  0.00     0.051 C 
BRANCH  20  21
HETATM   21  C15 UNL     1      27.367   8.019  49.326  1.00  0.00     0.114 C 
BRANCH  21  22
HETATM   22  C16 UNL     1      27.066   9.369  49.916  1.00  0.00     0.139 C 
HETATM   23  O2  UNL     1      26.464  10.418  49.641  1.00  0.00    -0.650 OA
BRANCH  22  24
HETATM   24  O3  UNL     1      27.647   9.530  51.190  1.00  0.00    -0.776 OA
HETATM   25  H16 UNL     1      28.351  10.244  51.387  1.00  0.00     0.167 HD
ENDBRANCH  22  24
ENDBRANCH  21  22
ENDBRANCH  20  21
ENDBRANCH  16  20
TORSDOF 4
ENDMDL
MODEL 8
REMARK VINA RESULT:      -6.7      2.851      4.165
REMARK  4 active torsions:
REMARK  status: ('A' for Active; 'I' for Inactive)
REMARK    1  A    between atoms: C13_16  and  C14_17 
REMARK    2  A    between atoms: C14_17  and  C15_18 
REMARK    3  A    between atoms: C15_18  and  C16_19 
REMARK    4  A    between atoms: C16_19  and  O3_21 
ROOT
HETATM    1  C1  UNL     1      26.467   2.907  50.513  1.00  0.00     0.051 C 
HETATM    2  C2  UNL     1      25.417   2.525  51.361  1.00  0.00    -0.037 C 
HETATM    3  P1  UNL     1      25.499   1.541  52.724  1.00  0.00    -0.038 P 
HETATM    4  C3  UNL     1      24.777  -0.125  52.504  1.00  0.00     0.072 C 
HETATM    5  C4  UNL     1      23.802  -0.254  53.768  1.00  0.00     0.032 C 
HETATM    6 BR1  UNL     1      24.577  -1.014  55.407  1.00  0.00    -0.086 Br
HETATM    7  C5  UNL     1      22.479   0.192  53.666  1.00  0.00     0.037 C 
HETATM    8  C6  UNL     1      21.061   0.611  53.751  1.00  0.00    -0.010 C 
HETATM    9  C7  UNL     1      21.004   1.044  52.412  1.00  0.00     0.060 A 
HETATM   10  C8  UNL     1      19.741   1.658  52.111  1.00  0.00     0.029 C 
HETATM   11  C9  UNL     1      20.768   3.124  52.434  1.00  0.00     0.016 C 
HETATM   12  C10 UNL     1      21.565   2.123  51.915  1.00  0.00     0.086 A 
HETATM   13  C11 UNL     1      22.124   0.828  51.576  1.00  0.00     0.157 A 
HETATM   14  O1  UNL     1      21.856  -0.370  51.820  1.00  0.00    -0.295 OA
HETATM   15  C12 UNL     1      23.025   2.533  51.897  1.00  0.00     0.033 C 
HETATM   16  C13 UNL     1      23.977   3.030  51.148  1.00  0.00    -0.026 C 
HETATM   17  N1  UNL     1      23.732   2.379  53.241  1.00  0.00    -0.370 N 
HETATM   18  H4  UNL     1      26.274   1.792  53.607  1.00  0.00     0.079 HD
HETATM   19  H17 UNL     1      23.577   2.563  54.257  1.00  0.00     0.164 HD
ENDROOT
BRANCH  16  20
HETATM   20  C14 UNL     1      23.413   3.999  50.195  1.00  0.00     0.051 C 
BRANCH  20  21
HETATM   21  C15 UNL     1      23.192   5.351  50.873  1.00  0.00     0.114 C 
BRANCH  21  22
HETATM   22  C16 UNL     1      24.456   6.165  50.909  1.00  0.00     0.139 C 
HETATM   23  O2  UNL     1      25.487   6.357  50.245  1.00  0.00    -0.650 OA
BRANCH  22  24
HETATM   24  O3  UNL     1      24.529   6.976  52.059  1.00  0.00    -0.776 OA
HETATM   25  H16 UNL     1      24.157   6.682  52.964  1.00  0.00     0.167 HD
ENDBRANCH  22  24
ENDBRANCH  21  22
ENDBRANCH  20  21
ENDBRANCH  16  20
TORSDOF 4
ENDMDL
MODEL 9
REMARK VINA RESULT:      -6.5      2.504      4.385
REMARK  4 active torsions:
REMARK  status: ('A' for Active; 'I' for Inactive)
REMARK    1  A    between atoms: C13_16  and  C14_17 
REMARK    2  A    between atoms: C14_17  and  C15_18 
REMARK    3  A    between atoms: C15_18  and  C16_19 
REMARK    4  A    between atoms: C16_19  and  O3_21 
ROOT
HETATM    1  C1  UNL     1      20.667   4.773  49.565  1.00  0.00     0.051 C 
HETATM    2  C2  UNL     1      21.596   3.820  50.008  1.00  0.00    -0.037 C 
HETATM    3  P1  UNL     1      21.283   2.369  50.802  1.00  0.00    -0.038 P 
HETATM    4  C3  UNL     1      21.732   2.361  52.575  1.00  0.00     0.072 C 
HETATM    5  C4  UNL     1      22.607   1.026  52.709  1.00  0.00     0.032 C 
HETATM    6 BR1  UNL     1      21.635  -0.627  53.143  1.00  0.00    -0.086 Br
HETATM    7  C5  UNL     1      23.989   1.083  52.492  1.00  0.00     0.037 C 
HETATM    8  C6  UNL     1      25.450   0.946  52.295  1.00  0.00    -0.010 C 
HETATM    9  C7  UNL     1      25.646   2.316  52.035  1.00  0.00     0.060 A 
HETATM   10  C8  UNL     1      27.006   2.592  51.667  1.00  0.00     0.029 C 
HETATM   11  C9  UNL     1      26.219   2.498  50.030  1.00  0.00     0.016 C 
HETATM   12  C10 UNL     1      25.295   2.961  50.946  1.00  0.00     0.086 A 
HETATM   13  C11 UNL     1      24.550   3.199  52.167  1.00  0.00     0.157 A 
HETATM   14  O1  UNL     1      24.604   2.812  53.356  1.00  0.00    -0.295 OA
HETATM   15  C12 UNL     1      23.926   3.123  50.315  1.00  0.00     0.033 C 
HETATM   16  C13 UNL     1      23.108   3.985  49.764  1.00  0.00    -0.026 C 
HETATM   17  N1  UNL     1      23.136   1.823  50.199  1.00  0.00    -0.370 N 
HETATM   18  H4  UNL     1      20.516   1.573  50.332  1.00  0.00     0.079 HD
HETATM   19  H17 UNL     1      23.267   0.824  49.926  1.00  0.00     0.164 HD
ENDROOT
BRANCH  16  20
HETATM   20  C14 UNL     1      23.872   4.994  49.013  1.00  0.00     0.051 C 
BRANCH  20  21
HETATM   21  C15 UNL     1      24.236   6.172  49.916  1.00  0.00     0.114 C 
BRANCH  21  22
HETATM   22  C16 UNL     1      25.700   6.504  49.828  1.00  0.00     0.139 C 
HETATM   23  O2  UNL     1      26.695   6.255  49.130  1.00  0.00    -0.650 OA
BRANCH  22  24
HETATM   24  O3  UNL     1      26.109   7.367  50.864  1.00  0.00    -0.776 OA
HETATM   25  H16 UNL     1      25.447   7.814  51.502  1.00  0.00     0.167 HD
ENDBRANCH  22  24
ENDBRANCH  21  22
ENDBRANCH  20  21
ENDBRANCH  16  20
TORSDOF 4
ENDMDL
