MODEL 1
REMARK VINA RESULT:      -8.6      0.000      0.000
REMARK  5 active torsions:
REMARK  status: ('A' for Active; 'I' for Inactive)
REMARK    1  A    between atoms: C2_2  and  O1_3 
REMARK    2  A    between atoms: O1_3  and  C3_4 
REMARK    3  A    between atoms: C3_4  and  C5_6 
REMARK    4  A    between atoms: C9_12  and  N3_13 
REMARK    5  A    between atoms: C16_21  and  O2_22 
ROOT
HETATM    1  C5  UNL     1      25.995   0.335  52.562  1.00  0.00     0.009 A 
HETATM    2  C6  UNL     1      26.792   1.177  51.811  1.00  0.00     0.045 A 
HETATM    3  C7  UNL     1      26.250   2.275  51.182  1.00  0.00     0.075 A 
HETATM    4  N1  UNL     1      26.960   3.116  50.441  1.00  0.00    -0.241 NA
HETATM    5  C8  UNL     1      26.376   4.170  49.844  1.00  0.00     0.236 A 
HETATM    6  N2  UNL     1      25.058   4.369  50.003  1.00  0.00    -0.223 NA
HETATM    7  C9  UNL     1      24.281   3.533  50.756  1.00  0.00     0.148 A 
HETATM    8  C17 UNL     1      24.897   2.478  51.345  1.00  0.00     0.075 A 
HETATM    9  C18 UNL     1      24.092   1.665  52.077  1.00  0.00     0.119 A 
HETATM   10  C19 UNL     1      24.644   0.573  52.699  1.00  0.00     0.112 A 
HETATM   11  O3  UNL     1      23.928  -0.327  53.473  1.00  0.00    -0.345 OA
HETATM   12  C20 UNL     1      22.636   0.143  53.890  1.00  0.00     0.202 C 
HETATM   13  C21 UNL     1      21.942   0.838  52.730  1.00  0.00     0.202 C 
HETATM   14  O4  UNL     1      22.736   1.892  52.220  1.00  0.00    -0.345 OA
ENDROOT
BRANCH   7  15
HETATM   15  N3  UNL     1      22.909   3.983  50.812  1.00  0.00    -0.308 N 
HETATM   16  C10 UNL     1      22.287   3.518  49.587  1.00  0.00     0.120 C 
HETATM   17  C11 UNL     1      21.274   3.989  48.827  1.00  0.00     0.021 C 
HETATM   18  C12 UNL     1      20.771   3.341  47.565  1.00  0.00     0.069 C 
HETATM   19  N4  UNL     1      20.531   5.196  49.121  1.00  0.00    -0.363 N 
HETATM   20  C13 UNL     1      20.922   6.227  50.053  1.00  0.00     0.005 C 
HETATM   21  H16 UNL     1      19.606   5.415  48.647  1.00  0.00     0.165 HD
HETATM   22  C14 UNL     1      20.521   7.635  49.708  1.00  0.00     0.068 C 
HETATM   23  C15 UNL     1      21.595   6.020  51.173  1.00  0.00     0.051 C 
HETATM   24  C16 UNL     1      22.124   4.737  51.780  1.00  0.00     0.252 C 
BRANCH  24  25
HETATM   25  O2  UNL     1      22.914   5.070  52.877  1.00  0.00    -0.373 OA
HETATM   26  H22 UNL     1      22.598   5.911  53.324  1.00  0.00     0.212 HD
ENDBRANCH  24  25
ENDBRANCH   7  15
BRANCH   1  27
HETATM   27  C3  UNL     1      26.629  -0.832  53.217  1.00  0.00     0.153 C 
HETATM   28  C4  UNL     1      26.792  -2.018  52.332  1.00  0.00     0.045 C 
BRANCH  27  29
HETATM   29  O1  UNL     1      27.818  -0.408  53.780  1.00  0.00    -0.382 OA
BRANCH  29  30
HETATM   30  C2  UNL     1      28.893  -1.218  53.458  1.00  0.00     0.164 C 
HETATM   31  C1  UNL     1      30.133  -0.338  53.458  1.00  0.00     0.033 C 
ENDBRANCH  29  30
ENDBRANCH  27  29
ENDBRANCH   1  27
TORSDOF 5
ENDMDL
MODEL 2
REMARK VINA RESULT:      -7.6      4.723      7.083
REMARK  5 active torsions:
REMARK  status: ('A' for Active; 'I' for Inactive)
REMARK    1  A    between atoms: C2_2  and  O1_3 
REMARK    2  A    between atoms: O1_3  and  C3_4 
REMARK    3  A    between atoms: C3_4  and  C5_6 
REMARK    4  A    between atoms: C9_12  and  N3_13 
REMARK    5  A    between atoms: C16_21  and  O2_22 
ROOT
HETATM    1  C5  UNL     1      24.750   4.551  49.711  1.00  0.00     0.009 A 
HETATM    2  C6  UNL     1      25.999   4.090  49.343  1.00  0.00     0.045 A 
HETATM    3  C7  UNL     1      26.982   4.973  48.956  1.00  0.00     0.075 A 
HETATM    4  N1  UNL     1      28.197   4.594  48.583  1.00  0.00    -0.241 NA
HETATM    5  C8  UNL     1      29.117   5.500  48.207  1.00  0.00     0.236 A 
HETATM    6  N2  UNL     1      28.796   6.804  48.211  1.00  0.00    -0.223 NA
HETATM    7  C9  UNL     1      27.559   7.248  48.585  1.00  0.00     0.148 A 
HETATM    8  C17 UNL     1      26.651   6.310  48.958  1.00  0.00     0.075 A 
HETATM    9  C18 UNL     1      25.430   6.788  49.315  1.00  0.00     0.119 A 
HETATM   10  C19 UNL     1      24.459   5.898  49.700  1.00  0.00     0.112 A 
HETATM   11  O3  UNL     1      23.178   6.264  50.087  1.00  0.00    -0.345 OA
HETATM   12  C20 UNL     1      23.028   7.654  50.412  1.00  0.00     0.202 C 
HETATM   13  C21 UNL     1      23.762   8.505  49.388  1.00  0.00     0.202 C 
HETATM   14  O4  UNL     1      25.126   8.136  49.305  1.00  0.00    -0.345 OA
ENDROOT
BRANCH   7  15
HETATM   15  N3  UNL     1      27.473   8.690  48.550  1.00  0.00    -0.308 N 
HETATM   16  C10 UNL     1      27.354   9.048  47.150  1.00  0.00     0.120 C 
HETATM   17  C11 UNL     1      27.726  10.133  46.436  1.00  0.00     0.021 C 
HETATM   18  C12 UNL     1      27.503  10.310  44.959  1.00  0.00     0.069 C 
HETATM   19  N4  UNL     1      28.403  11.282  47.000  1.00  0.00    -0.363 N 
HETATM   20  C13 UNL     1      29.048  11.337  48.290  1.00  0.00     0.005 C 
HETATM   21  H16 UNL     1      28.475  12.202  46.476  1.00  0.00     0.165 HD
HETATM   22  C14 UNL     1      30.262  12.220  48.399  1.00  0.00     0.068 C 
HETATM   23  C15 UNL     1      28.649  10.679  49.366  1.00  0.00     0.051 C 
HETATM   24  C16 UNL     1      27.481   9.735  49.565  1.00  0.00     0.252 C 
BRANCH  24  25
HETATM   25  O2  UNL     1      27.593   9.167  50.831  1.00  0.00    -0.373 OA
HETATM   26  H22 UNL     1      28.470   9.393  51.265  1.00  0.00     0.212 HD
ENDBRANCH  24  25
ENDBRANCH   7  15
BRANCH   1  27
HETATM   27  C3  UNL     1      23.729   3.560  50.120  1.00  0.00     0.153 C 
HETATM   28  C4  UNL     1      23.080   2.846  48.987  1.00  0.00     0.045 C 
BRANCH  27  29
HETATM   29  O1  UNL     1      24.312   2.703  51.036  1.00  0.00    -0.382 OA
BRANCH  29  30
HETATM   30  C2  UNL     1      23.943   2.969  52.343  1.00  0.00     0.164 C 
HETATM   31  C1  UNL     1      25.064   2.464  53.237  1.00  0.00     0.033 C 
ENDBRANCH  29  30
ENDBRANCH  27  29
ENDBRANCH   1  27
TORSDOF 5
ENDMDL
MODEL 3
REMARK VINA RESULT:      -7.4      2.050      3.807
REMARK  5 active torsions:
REMARK  status: ('A' for Active; 'I' for Inactive)
REMARK    1  A    between atoms: C2_2  and  O1_3 
REMARK    2  A    between atoms: O1_3  and  C3_4 
REMARK    3  A    between atoms: C3_4  and  C5_6 
REMARK    4  A    between atoms: C9_12  and  N3_13 
REMARK    5  A    between atoms: C16_21  and  O2_22 
ROOT
HETATM    1  C5  UNL     1      26.424   1.599  52.292  1.00  0.00     0.009 A 
HETATM    2  C6  UNL     1      25.455   0.872  52.954  1.00  0.00     0.045 A 
HETATM    3  C7  UNL     1      24.131   0.978  52.588  1.00  0.00     0.075 A 
HETATM    4  N1  UNL     1      23.153   0.314  53.189  1.00  0.00    -0.241 NA
HETATM    5  C8  UNL     1      21.876   0.460  52.794  1.00  0.00     0.236 A 
HETATM    6  N2  UNL     1      21.593   1.290  51.777  1.00  0.00    -0.223 NA
HETATM    7  C9  UNL     1      22.563   1.998  51.124  1.00  0.00     0.148 A 
HETATM    8  C17 UNL     1      23.842   1.831  51.546  1.00  0.00     0.075 A 
HETATM    9  C18 UNL     1      24.777   2.556  50.879  1.00  0.00     0.119 A 
HETATM   10  C19 UNL     1      26.093   2.443  51.253  1.00  0.00     0.112 A 
HETATM   11  O3  UNL     1      27.135   3.129  50.649  1.00  0.00    -0.345 OA
HETATM   12  C20 UNL     1      26.814   3.695  49.369  1.00  0.00     0.202 C 
HETATM   13  C21 UNL     1      25.437   4.339  49.422  1.00  0.00     0.202 C 
HETATM   14  O4  UNL     1      24.457   3.407  49.838  1.00  0.00    -0.345 OA
ENDROOT
BRANCH   7  15
HETATM   15  N3  UNL     1      22.016   2.783  50.041  1.00  0.00    -0.308 N 
HETATM   16  C10 UNL     1      21.946   4.145  50.532  1.00  0.00     0.120 C 
HETATM   17  C11 UNL     1      21.129   5.186  50.260  1.00  0.00     0.021 C 
HETATM   18  C12 UNL     1      21.229   6.548  50.894  1.00  0.00     0.069 C 
HETATM   19  N4  UNL     1      20.032   5.133  49.318  1.00  0.00    -0.363 N 
HETATM   20  C13 UNL     1      19.448   3.934  48.763  1.00  0.00     0.005 C 
HETATM   21  H16 UNL     1      19.560   6.012  48.955  1.00  0.00     0.165 HD
HETATM   22  C14 UNL     1      17.973   3.979  48.465  1.00  0.00     0.068 C 
HETATM   23  C15 UNL     1      20.110   2.819  48.501  1.00  0.00     0.051 C 
HETATM   24  C16 UNL     1      21.574   2.479  48.686  1.00  0.00     0.252 C 
BRANCH  24  25
HETATM   25  O2  UNL     1      21.740   1.121  48.425  1.00  0.00    -0.373 OA
HETATM   26  H22 UNL     1      20.930   0.724  47.983  1.00  0.00     0.212 HD
ENDBRANCH  24  25
ENDBRANCH   7  15
BRANCH   1  27
HETATM   27  C3  UNL     1      27.832   1.449  52.725  1.00  0.00     0.153 C 
HETATM   28  C4  UNL     1      28.250   2.399  53.792  1.00  0.00     0.045 C 
BRANCH  27  29
HETATM   29  O1  UNL     1      28.030   0.125  53.071  1.00  0.00    -0.382 OA
BRANCH  29  30
HETATM   30  C2  UNL     1      28.909  -0.037  54.128  1.00  0.00     0.164 C 
HETATM   31  C1  UNL     1      29.934  -1.077  53.704  1.00  0.00     0.033 C 
ENDBRANCH  29  30
ENDBRANCH  27  29
ENDBRANCH   1  27
TORSDOF 5
ENDMDL
MODEL 4
REMARK VINA RESULT:      -7.2      2.156      3.434
REMARK  5 active torsions:
REMARK  status: ('A' for Active; 'I' for Inactive)
REMARK    1  A    between atoms: C2_2  and  O1_3 
REMARK    2  A    between atoms: O1_3  and  C3_4 
REMARK    3  A    between atoms: C3_4  and  C5_6 
REMARK    4  A    between atoms: C9_12  and  N3_13 
REMARK    5  A    between atoms: C16_21  and  O2_22 
ROOT
HETATM    1  C5  UNL     1      26.028   0.571  53.158  1.00  0.00     0.009 A 
HETATM    2  C6  UNL     1      25.115  -0.333  53.666  1.00  0.00     0.045 A 
HETATM    3  C7  UNL     1      23.776  -0.217  53.366  1.00  0.00     0.075 A 
HETATM    4  N1  UNL     1      22.850  -1.047  53.828  1.00  0.00    -0.241 NA
HETATM    5  C8  UNL     1      21.555  -0.883  53.508  1.00  0.00     0.236 A 
HETATM    6  N2  UNL     1      21.199   0.137  52.709  1.00  0.00    -0.223 NA
HETATM    7  C9  UNL     1      22.113   1.020  52.206  1.00  0.00     0.148 A 
HETATM    8  C17 UNL     1      23.412   0.830  52.548  1.00  0.00     0.075 A 
HETATM    9  C18 UNL     1      24.290   1.732  52.036  1.00  0.00     0.119 A 
HETATM   10  C19 UNL     1      25.622   1.606  52.343  1.00  0.00     0.112 A 
HETATM   11  O3  UNL     1      26.611   2.461  51.881  1.00  0.00    -0.345 OA
HETATM   12  C20 UNL     1      26.218   3.280  50.769  1.00  0.00     0.202 C 
HETATM   13  C21 UNL     1      24.818   3.824  50.999  1.00  0.00     0.202 C 
HETATM   14  O4  UNL     1      23.895   2.775  51.220  1.00  0.00    -0.345 OA
ENDROOT
BRANCH   7  15
HETATM   15  N3  UNL     1      21.493   1.997  51.340  1.00  0.00    -0.308 N 
HETATM   16  C10 UNL     1      21.920   1.664  49.995  1.00  0.00     0.120 C 
HETATM   17  C11 UNL     1      22.122   2.399  48.879  1.00  0.00     0.021 C 
HETATM   18  C12 UNL     1      22.576   1.846  47.555  1.00  0.00     0.069 C 
HETATM   19  N4  UNL     1      21.935   3.832  48.806  1.00  0.00    -0.363 N 
HETATM   20  C13 UNL     1      21.810   4.729  49.931  1.00  0.00     0.005 C 
HETATM   21  H16 UNL     1      21.875   4.343  47.878  1.00  0.00     0.165 HD
HETATM   22  C14 UNL     1      22.366   6.116  49.750  1.00  0.00     0.068 C 
HETATM   23  C15 UNL     1      21.247   4.421  51.087  1.00  0.00     0.051 C 
HETATM   24  C16 UNL     1      20.606   3.132  51.557  1.00  0.00     0.252 C 
BRANCH  24  25
HETATM   25  O2  UNL     1      20.319   3.259  52.913  1.00  0.00    -0.373 OA
HETATM   26  H22 UNL     1      20.896   2.659  53.475  1.00  0.00     0.212 HD
ENDBRANCH  24  25
ENDBRANCH   7  15
BRANCH   1  27
HETATM   27  C3  UNL     1      27.455   0.401  53.512  1.00  0.00     0.153 C 
HETATM   28  C4  UNL     1      27.711   0.238  54.969  1.00  0.00     0.045 C 
BRANCH  27  29
HETATM   29  O1  UNL     1      27.958  -0.641  52.755  1.00  0.00    -0.382 OA
BRANCH  29  30
HETATM   30  C2  UNL     1      29.034  -1.277  53.349  1.00  0.00     0.164 C 
HETATM   31  C1  UNL     1      28.848  -2.770  53.132  1.00  0.00     0.033 C 
ENDBRANCH  29  30
ENDBRANCH  27  29
ENDBRANCH   1  27
TORSDOF 5
ENDMDL
MODEL 5
REMARK VINA RESULT:      -7.0      3.322      6.812
REMARK  5 active torsions:
REMARK  status: ('A' for Active; 'I' for Inactive)
REMARK    1  A    between atoms: C2_2  and  O1_3 
REMARK    2  A    between atoms: O1_3  and  C3_4 
REMARK    3  A    between atoms: C3_4  and  C5_6 
REMARK    4  A    between atoms: C9_12  and  N3_13 
REMARK    5  A    between atoms: C16_21  and  O2_22 
ROOT
HETATM    1  C5  UNL     1      25.544   7.616  48.957  1.00  0.00     0.009 A 
HETATM    2  C6  UNL     1      24.326   8.044  49.448  1.00  0.00     0.045 A 
HETATM    3  C7  UNL     1      23.481   7.164  50.085  1.00  0.00     0.075 A 
HETATM    4  N1  UNL     1      22.296   7.511  50.571  1.00  0.00    -0.241 NA
HETATM    5  C8  UNL     1      21.508   6.607  51.179  1.00  0.00     0.236 A 
HETATM    6  N2  UNL     1      21.931   5.337  51.293  1.00  0.00    -0.223 NA
HETATM    7  C9  UNL     1      23.141   4.927  50.810  1.00  0.00     0.148 A 
HETATM    8  C17 UNL     1      23.914   5.861  50.200  1.00  0.00     0.075 A 
HETATM    9  C18 UNL     1      25.107   5.415  49.726  1.00  0.00     0.119 A 
HETATM   10  C19 UNL     1      25.940   6.302  49.093  1.00  0.00     0.112 A 
HETATM   11  O3  UNL     1      27.180   5.967  48.569  1.00  0.00    -0.345 OA
HETATM   12  C20 UNL     1      27.708   4.719  49.041  1.00  0.00     0.202 C 
HETATM   13  C21 UNL     1      26.608   3.670  49.066  1.00  0.00     0.202 C 
HETATM   14  O4  UNL     1      25.514   4.100  49.853  1.00  0.00    -0.345 OA
ENDROOT
BRANCH   7  15
HETATM   15  N3  UNL     1      23.387   3.531  51.095  1.00  0.00    -0.308 N 
HETATM   16  C10 UNL     1      22.644   2.785  50.098  1.00  0.00     0.120 C 
HETATM   17  C11 UNL     1      22.062   1.566  50.098  1.00  0.00     0.021 C 
HETATM   18  C12 UNL     1      21.324   0.964  48.933  1.00  0.00     0.069 C 
HETATM   19  N4  UNL     1      22.063   0.666  51.232  1.00  0.00    -0.363 N 
HETATM   20  C13 UNL     1      22.395   1.016  52.592  1.00  0.00     0.005 C 
HETATM   21  H16 UNL     1      21.807  -0.360  51.133  1.00  0.00     0.165 HD
HETATM   22  C14 UNL     1      21.662   0.274  53.677  1.00  0.00     0.068 C 
HETATM   23  C15 UNL     1      23.286   1.929  52.945  1.00  0.00     0.051 C 
HETATM   24  C16 UNL     1      24.169   2.820  52.096  1.00  0.00     0.252 C 
BRANCH  24  25
HETATM   25  O2  UNL     1      24.804   3.729  52.938  1.00  0.00    -0.373 OA
HETATM   26  H22 UNL     1      24.145   4.297  53.439  1.00  0.00     0.212 HD
ENDBRANCH  24  25
ENDBRANCH   7  15
BRANCH   1  27
HETATM   27  C3  UNL     1      26.415   8.603  48.281  1.00  0.00     0.153 C 
HETATM   28  C4  UNL     1      25.913   9.056  46.955  1.00  0.00     0.045 C 
BRANCH  27  29
HETATM   29  O1  UNL     1      26.636   9.647  49.161  1.00  0.00    -0.382 OA
BRANCH  29  30
HETATM   30  C2  UNL     1      27.703   9.425  50.013  1.00  0.00     0.164 C 
HETATM   31  C1  UNL     1      28.897   9.051  49.149  1.00  0.00     0.033 C 
ENDBRANCH  29  30
ENDBRANCH  27  29
ENDBRANCH   1  27
TORSDOF 5
ENDMDL
MODEL 6
REMARK VINA RESULT:      -6.9      3.594      5.560
REMARK  5 active torsions:
REMARK  status: ('A' for Active; 'I' for Inactive)
REMARK    1  A    between atoms: C2_2  and  O1_3 
REMARK    2  A    between atoms: O1_3  and  C3_4 
REMARK    3  A    between atoms: C3_4  and  C5_6 
REMARK    4  A    between atoms: C9_12  and  N3_13 
REMARK    5  A    between atoms: C16_21  and  O2_22 
ROOT
HETATM    1  C5  UNL     1      22.344  -0.088  53.607  1.00  0.00     0.009 A 
HETATM    2  C6  UNL     1      21.275  -0.942  53.793  1.00  0.00     0.045 A 
HETATM    3  C7  UNL     1      20.055  -0.670  53.216  1.00  0.00     0.075 A 
HETATM    4  N1  UNL     1      18.989  -1.445  53.363  1.00  0.00    -0.241 NA
HETATM    5  C8  UNL     1      17.819  -1.127  52.782  1.00  0.00     0.236 A 
HETATM    6  N2  UNL     1      17.735  -0.009  52.043  1.00  0.00    -0.223 NA
HETATM    7  C9  UNL     1      18.802   0.824  51.859  1.00  0.00     0.148 A 
HETATM    8  C17 UNL     1      19.969   0.478  52.460  1.00  0.00     0.075 A 
HETATM    9  C18 UNL     1      21.005   1.335  52.262  1.00  0.00     0.119 A 
HETATM   10  C19 UNL     1      22.216   1.052  52.842  1.00  0.00     0.112 A 
HETATM   11  O3  UNL     1      23.345   1.847  52.712  1.00  0.00    -0.345 OA
HETATM   12  C20 UNL     1      23.284   2.799  51.639  1.00  0.00     0.202 C 
HETATM   13  C21 UNL     1      21.912   3.453  51.609  1.00  0.00     0.202 C 
HETATM   14  O4  UNL     1      20.889   2.482  51.500  1.00  0.00    -0.345 OA
ENDROOT
BRANCH   7  15
HETATM   15  N3  UNL     1      18.474   1.932  50.991  1.00  0.00    -0.308 N 
HETATM   16  C10 UNL     1      17.623   2.810  51.769  1.00  0.00     0.120 C 
HETATM   17  C11 UNL     1      16.631   3.667  51.442  1.00  0.00     0.021 C 
HETATM   18  C12 UNL     1      15.856   4.503  52.424  1.00  0.00     0.069 C 
HETATM   19  N4  UNL     1      16.168   3.895  50.089  1.00  0.00    -0.363 N 
HETATM   20  C13 UNL     1      16.453   3.062  48.944  1.00  0.00     0.005 C 
HETATM   21  H16 UNL     1      15.560   4.728  49.838  1.00  0.00     0.165 HD
HETATM   22  C14 UNL     1      15.379   2.973  47.894  1.00  0.00     0.068 C 
HETATM   23  C15 UNL     1      17.575   2.387  48.758  1.00  0.00     0.051 C 
HETATM   24  C16 UNL     1      18.816   2.285  49.620  1.00  0.00     0.252 C 
BRANCH  24  25
HETATM   25  O2  UNL     1      19.647   1.312  49.070  1.00  0.00    -0.373 OA
HETATM   26  H22 UNL     1      19.186   0.796  48.343  1.00  0.00     0.212 HD
ENDBRANCH  24  25
ENDBRANCH   7  15
BRANCH   1  27
HETATM   27  C3  UNL     1      23.634  -0.427  54.250  1.00  0.00     0.153 C 
HETATM   28  C4  UNL     1      23.508  -1.270  55.470  1.00  0.00     0.045 C 
BRANCH  27  29
HETATM   29  O1  UNL     1      24.453  -0.988  53.287  1.00  0.00    -0.382 OA
BRANCH  29  30
HETATM   30  C2  UNL     1      25.799  -0.768  53.520  1.00  0.00     0.164 C 
HETATM   31  C1  UNL     1      26.363  -0.091  52.281  1.00  0.00     0.033 C 
ENDBRANCH  29  30
ENDBRANCH  27  29
ENDBRANCH   1  27
TORSDOF 5
ENDMDL
MODEL 7
REMARK VINA RESULT:      -6.5      7.791      9.579
REMARK  5 active torsions:
REMARK  status: ('A' for Active; 'I' for Inactive)
REMARK    1  A    between atoms: C2_2  and  O1_3 
REMARK    2  A    between atoms: O1_3  and  C3_4 
REMARK    3  A    between atoms: C3_4  and  C5_6 
REMARK    4  A    between atoms: C9_12  and  N3_13 
REMARK    5  A    between atoms: C16_21  and  O2_22 
ROOT
HETATM    1  C5  UNL     1      32.037   5.567  47.491  1.00  0.00     0.009 A 
HETATM    2  C6  UNL     1      32.964   6.557  47.228  1.00  0.00     0.045 A 
HETATM    3  C7  UNL     1      32.579   7.877  47.174  1.00  0.00     0.075 A 
HETATM    4  N1  UNL     1      33.419   8.873  46.919  1.00  0.00    -0.241 NA
HETATM    5  C8  UNL     1      32.987  10.145  46.872  1.00  0.00     0.236 A 
HETATM    6  N2  UNL     1      31.687  10.406  47.087  1.00  0.00    -0.223 NA
HETATM    7  C9  UNL     1      30.781   9.419  47.354  1.00  0.00     0.148 A 
HETATM    8  C17 UNL     1      31.246   8.145  47.394  1.00  0.00     0.075 A 
HETATM    9  C18 UNL     1      30.315   7.190  47.654  1.00  0.00     0.119 A 
HETATM   10  C19 UNL     1      30.711   5.877  47.705  1.00  0.00     0.112 A 
HETATM   11  O3  UNL     1      29.856   4.816  47.962  1.00  0.00    -0.345 OA
HETATM   12  C20 UNL     1      28.593   5.193  48.532  1.00  0.00     0.202 C 
HETATM   13  C21 UNL     1      28.053   6.422  47.818  1.00  0.00     0.202 C 
HETATM   14  O4  UNL     1      28.982   7.487  47.867  1.00  0.00    -0.345 OA
ENDROOT
BRANCH   7  15
HETATM   15  N3  UNL     1      29.460   9.955  47.594  1.00  0.00    -0.308 N 
HETATM   16  C10 UNL     1      28.913  10.266  46.288  1.00  0.00     0.120 C 
HETATM   17  C11 UNL     1      28.027  11.188  45.851  1.00  0.00     0.021 C 
HETATM   18  C12 UNL     1      27.584  11.347  44.422  1.00  0.00     0.069 C 
HETATM   19  N4  UNL     1      27.382  12.162  46.705  1.00  0.00    -0.363 N 
HETATM   20  C13 UNL     1      27.783  12.511  48.048  1.00  0.00     0.005 C 
HETATM   21  H16 UNL     1      26.532  12.712  46.386  1.00  0.00     0.165 HD
HETATM   22  C14 UNL     1      27.556  13.938  48.469  1.00  0.00     0.068 C 
HETATM   23  C15 UNL     1      28.325  11.675  48.919  1.00  0.00     0.051 C 
HETATM   24  C16 UNL     1      28.665  10.205  48.789  1.00  0.00     0.252 C 
BRANCH  24  25
HETATM   25  O2  UNL     1      29.378   9.824  49.923  1.00  0.00    -0.373 OA
HETATM   26  H22 UNL     1      28.823   9.260  50.541  1.00  0.00     0.212 HD
ENDBRANCH  24  25
ENDBRANCH   7  15
BRANCH   1  27
HETATM   27  C3  UNL     1      32.504   4.163  47.538  1.00  0.00     0.153 C 
HETATM   28  C4  UNL     1      31.856   3.268  46.541  1.00  0.00     0.045 C 
BRANCH  27  29
HETATM   29  O1  UNL     1      33.883   4.171  47.442  1.00  0.00    -0.382 OA
BRANCH  29  30
HETATM   30  C2  UNL     1      34.383   3.134  46.673  1.00  0.00     0.164 C 
HETATM   31  C1  UNL     1      35.172   3.759  45.534  1.00  0.00     0.033 C 
ENDBRANCH  29  30
ENDBRANCH  27  29
ENDBRANCH   1  27
TORSDOF 5
ENDMDL
MODEL 8
REMARK VINA RESULT:      -6.3      7.651     10.939
REMARK  5 active torsions:
REMARK  status: ('A' for Active; 'I' for Inactive)
REMARK    1  A    between atoms: C2_2  and  O1_3 
REMARK    2  A    between atoms: O1_3  and  C3_4 
REMARK    3  A    between atoms: C3_4  and  C5_6 
REMARK    4  A    between atoms: C9_12  and  N3_13 
REMARK    5  A    between atoms: C16_21  and  O2_22 
ROOT
HETATM    1  C5  UNL     1      27.871   6.463  48.144  1.00  0.00     0.009 A 
HETATM    2  C6  UNL     1      28.865   5.561  48.470  1.00  0.00     0.045 A 
HETATM    3  C7  UNL     1      30.137   5.711  47.965  1.00  0.00     0.075 A 
HETATM    4  N1  UNL     1      31.133   4.876  48.234  1.00  0.00    -0.241 NA
HETATM    5  C8  UNL     1      32.354   5.067  47.706  1.00  0.00     0.236 A 
HETATM    6  N2  UNL     1      32.565   6.118  46.898  1.00  0.00    -0.223 NA
HETATM    7  C9  UNL     1      31.575   7.008  46.589  1.00  0.00     0.148 A 
HETATM    8  C17 UNL     1      30.352   6.789  47.134  1.00  0.00     0.075 A 
HETATM    9  C18 UNL     1      29.392   7.689  46.798  1.00  0.00     0.119 A 
HETATM   10  C19 UNL     1      28.128   7.529  47.308  1.00  0.00     0.112 A 
HETATM   11  O3  UNL     1      27.067   8.381  47.040  1.00  0.00    -0.345 OA
HETATM   12  C20 UNL     1      27.447   9.649  46.485  1.00  0.00     0.202 C 
HETATM   13  C21 UNL     1      28.520   9.448  45.427  1.00  0.00     0.202 C 
HETATM   14  O4  UNL     1      29.636   8.760  45.959  1.00  0.00    -0.345 OA
ENDROOT
BRANCH   7  15
HETATM   15  N3  UNL     1      32.059   8.074  45.741  1.00  0.00    -0.308 N 
HETATM   16  C10 UNL     1      32.115   7.524  44.401  1.00  0.00     0.120 C 
HETATM   17  C11 UNL     1      32.894   7.779  43.327  1.00  0.00     0.021 C 
HETATM   18  C12 UNL     1      32.787   7.080  41.999  1.00  0.00     0.069 C 
HETATM   19  N4  UNL     1      33.954   8.765  43.310  1.00  0.00    -0.363 N 
HETATM   20  C13 UNL     1      34.545   9.397  44.466  1.00  0.00     0.005 C 
HETATM   21  H16 UNL     1      34.389   9.104  42.403  1.00  0.00     0.165 HD
HETATM   22  C14 UNL     1      36.004   9.750  44.369  1.00  0.00     0.068 C 
HETATM   23  C15 UNL     1      33.900   9.683  45.585  1.00  0.00     0.051 C 
HETATM   24  C16 UNL     1      32.453   9.458  45.972  1.00  0.00     0.252 C 
BRANCH  24  25
HETATM   25  O2  UNL     1      32.311   9.774  47.321  1.00  0.00    -0.373 OA
HETATM   26  H22 UNL     1      31.426  10.210  47.510  1.00  0.00     0.212 HD
ENDBRANCH  24  25
ENDBRANCH   7  15
BRANCH   1  27
HETATM   27  C3  UNL     1      26.522   6.256  48.714  1.00  0.00     0.153 C 
HETATM   28  C4  UNL     1      26.210   4.841  49.055  1.00  0.00     0.045 C 
BRANCH  27  29
HETATM   29  O1  UNL     1      26.379   7.115  49.789  1.00  0.00    -0.382 OA
BRANCH  29  30
HETATM   30  C2  UNL     1      25.186   7.817  49.772  1.00  0.00     0.164 C 
HETATM   31  C1  UNL     1      24.365   7.333  50.956  1.00  0.00     0.033 C 
ENDBRANCH  29  30
ENDBRANCH  27  29
ENDBRANCH   1  27
TORSDOF 5
ENDMDL
MODEL 9
REMARK VINA RESULT:      -6.3      7.312     11.593
REMARK  5 active torsions:
REMARK  status: ('A' for Active; 'I' for Inactive)
REMARK    1  A    between atoms: C2_2  and  O1_3 
REMARK    2  A    between atoms: O1_3  and  C3_4 
REMARK    3  A    between atoms: C3_4  and  C5_6 
REMARK    4  A    between atoms: C9_12  and  N3_13 
REMARK    5  A    between atoms: C16_21  and  O2_22 
ROOT
HETATM    1  C5  UNL     1      26.966   9.323  47.096  1.00  0.00     0.009 A 
HETATM    2  C6  UNL     1      26.717   8.046  47.559  1.00  0.00     0.045 A 
HETATM    3  C7  UNL     1      27.756   7.173  47.793  1.00  0.00     0.075 A 
HETATM    4  N1  UNL     1      27.582   5.932  48.230  1.00  0.00    -0.241 NA
HETATM    5  C8  UNL     1      28.633   5.119  48.434  1.00  0.00     0.236 A 
HETATM    6  N2  UNL     1      29.873   5.575  48.193  1.00  0.00    -0.223 NA
HETATM    7  C9  UNL     1      30.108   6.844  47.743  1.00  0.00     0.148 A 
HETATM    8  C17 UNL     1      29.027   7.640  47.544  1.00  0.00     0.075 A 
HETATM    9  C18 UNL     1      29.299   8.891  47.088  1.00  0.00     0.119 A 
HETATM   10  C19 UNL     1      28.255   9.752  46.859  1.00  0.00     0.112 A 
HETATM   11  O3  UNL     1      28.405  11.051  46.396  1.00  0.00    -0.345 OA
HETATM   12  C20 UNL     1      29.737  11.574  46.511  1.00  0.00     0.202 C 
HETATM   13  C21 UNL     1      30.744  10.517  46.087  1.00  0.00     0.202 C 
HETATM   14  O4  UNL     1      30.586   9.332  46.843  1.00  0.00    -0.345 OA
ENDROOT
BRANCH   7  15
HETATM   15  N3  UNL     1      31.522   7.110  47.603  1.00  0.00    -0.308 N 
HETATM   16  C10 UNL     1      31.942   6.411  46.405  1.00  0.00     0.120 C 
HETATM   17  C11 UNL     1      33.112   5.855  46.020  1.00  0.00     0.021 C 
HETATM   18  C12 UNL     1      33.345   5.162  44.705  1.00  0.00     0.069 C 
HETATM   19  N4  UNL     1      34.311   5.843  46.831  1.00  0.00    -0.363 N 
HETATM   20  C13 UNL     1      34.382   6.129  48.245  1.00  0.00     0.005 C 
HETATM   21  H16 UNL     1      35.263   5.612  46.421  1.00  0.00     0.165 HD
HETATM   22  C14 UNL     1      35.424   5.382  49.032  1.00  0.00     0.068 C 
HETATM   23  C15 UNL     1      33.607   6.991  48.883  1.00  0.00     0.051 C 
HETATM   24  C16 UNL     1      32.492   7.879  48.371  1.00  0.00     0.252 C 
BRANCH  24  25
HETATM   25  O2  UNL     1      31.871   8.471  49.467  1.00  0.00    -0.373 OA
HETATM   26  H22 UNL     1      32.527   8.957  50.051  1.00  0.00     0.212 HD
ENDBRANCH  24  25
ENDBRANCH   7  15
BRANCH   1  27
HETATM   27  C3  UNL     1      25.814  10.222  46.861  1.00  0.00     0.153 C 
HETATM   28  C4  UNL     1      24.546   9.518  46.527  1.00  0.00     0.045 C 
BRANCH  27  29
HETATM   29  O1  UNL     1      25.697  11.056  47.957  1.00  0.00    -0.382 OA
BRANCH  29  30
HETATM   30  C2  UNL     1      24.838  12.120  47.744  1.00  0.00     0.164 C 
HETATM   31  C1  UNL     1      25.672  13.390  47.808  1.00  0.00     0.033 C 
ENDBRANCH  29  30
ENDBRANCH  27  29
ENDBRANCH   1  27
TORSDOF 5
ENDMDL
