MODEL 1
REMARK VINA RESULT:      -8.9      0.000      0.000
REMARK  0 active torsions:
REMARK  status: ('A' for Active; 'I' for Inactive)
ROOT
HETATM    1  F1  UNL     1      25.788   2.315  50.220  1.00  0.00    -0.206 F 
HETATM    2  C1  UNL     1      24.592   2.552  50.761  1.00  0.00     0.120 C 
HETATM    3  C2  UNL     1      23.437   2.362  50.142  1.00  0.00     0.035 C 
HETATM    4  C3  UNL     1      22.030   2.678  50.490  1.00  0.00     0.148 C 
HETATM    5  N1  UNL     1      21.778   2.918  51.868  1.00  0.00    -0.397 N 
HETATM    6  C4  UNL     1      22.428   4.079  52.409  1.00  0.00     0.146 C 
HETATM    7  C5  UNL     1      23.855   3.836  52.738  1.00  0.00     0.003 C 
HETATM    8  C6  UNL     1      24.789   3.050  52.116  1.00  0.00    -0.016 C 
HETATM    9  C7  UNL     1      25.949   2.817  52.948  1.00  0.00     0.041 C 
HETATM   10  C8  UNL     1      27.199   2.369  52.280  1.00  0.00     0.037 C 
HETATM   11  C9  UNL     1      28.294   2.123  53.263  1.00  0.00     0.168 C 
HETATM   12  O1  UNL     1      28.348   1.092  54.077  1.00  0.00    -0.389 OA
HETATM   13  C10 UNL     1      28.552  -0.181  53.857  1.00  0.00     0.197 C 
HETATM   14  C11 UNL     1      27.727  -1.115  53.050  1.00  0.00     0.298 C 
HETATM   15  N2  UNL     1      26.406  -1.427  53.382  1.00  0.00     0.108 NA
HETATM   16  C12 UNL     1      25.396  -0.363  53.207  1.00  0.00     0.319 C 
HETATM   17  C13 UNL     1      24.086  -1.010  53.555  1.00  0.00     0.096 C 
HETATM   18  C14 UNL     1      22.880  -0.217  53.287  1.00  0.00    -0.039 C 
HETATM   19  C15 UNL     1      22.601   0.655  52.339  1.00  0.00     0.008 C 
HETATM   20  C16 UNL     1      21.781   1.797  52.734  1.00  0.00     0.123 C 
HETATM   21  C17 UNL     1      20.409   1.255  53.101  1.00  0.00     0.177 C 
HETATM   22  N3  UNL     1      20.585   0.176  54.080  1.00  0.00    -0.299 NA
HETATM   23  C18 UNL     1      21.731  -0.427  54.200  1.00  0.00     0.117 C 
HETATM   24  N4  UNL     1      25.835   0.634  54.055  1.00  0.00    -0.393 N 
HETATM   25  C19 UNL     1      25.516   1.958  54.132  1.00  0.00     0.125 C 
HETATM   26  H16 UNL     1      26.283  -1.850  54.329  1.00  0.00     0.318 HD
HETATM   27  H25 UNL     1      25.989   0.200  55.020  1.00  0.00     0.155 HD
ENDROOT
TORSDOF 0
ENDMDL
MODEL 2
REMARK VINA RESULT:      -8.7      2.790      4.833
REMARK  0 active torsions:
REMARK  status: ('A' for Active; 'I' for Inactive)
ROOT
HETATM    1  F1  UNL     1      21.345   3.600  49.115  1.00  0.00    -0.206 F 
HETATM    2  C1  UNL     1      21.253   2.737  50.128  1.00  0.00     0.120 C 
HETATM    3  C2  UNL     1      21.140   1.425  49.988  1.00  0.00     0.035 C 
HETATM    4  C3  UNL     1      20.893   0.315  50.942  1.00  0.00     0.148 C 
HETATM    5  N1  UNL     1      21.156   0.611  52.307  1.00  0.00    -0.397 N 
HETATM    6  C4  UNL     1      20.308   1.618  52.882  1.00  0.00     0.146 C 
HETATM    7  C5  UNL     1      20.734   2.996  52.529  1.00  0.00     0.003 C 
HETATM    8  C6  UNL     1      21.292   3.485  51.377  1.00  0.00    -0.016 C 
HETATM    9  C7  UNL     1      21.875   4.795  51.567  1.00  0.00     0.041 C 
HETATM   10  C8  UNL     1      22.120   5.623  50.357  1.00  0.00     0.037 C 
HETATM   11  C9  UNL     1      22.767   6.924  50.699  1.00  0.00     0.168 C 
HETATM   12  O1  UNL     1      24.024   7.060  51.058  1.00  0.00    -0.389 OA
HETATM   13  C10 UNL     1      25.140   6.926  50.390  1.00  0.00     0.197 C 
HETATM   14  C11 UNL     1      25.670   5.710  49.725  1.00  0.00     0.298 C 
HETATM   15  N2  UNL     1      26.006   4.554  50.434  1.00  0.00     0.108 NA
HETATM   16  C12 UNL     1      24.897   3.770  51.013  1.00  0.00     0.319 C 
HETATM   17  C13 UNL     1      25.551   2.565  51.627  1.00  0.00     0.096 C 
HETATM   18  C14 UNL     1      24.649   1.517  52.119  1.00  0.00    -0.039 C 
HETATM   19  C15 UNL     1      23.478   1.097  51.682  1.00  0.00     0.008 C 
HETATM   20  C16 UNL     1      22.513   0.701  52.703  1.00  0.00     0.123 C 
HETATM   21  C17 UNL     1      23.073  -0.534  53.391  1.00  0.00     0.177 C 
HETATM   22  N3  UNL     1      24.441  -0.237  53.830  1.00  0.00    -0.299 NA
HETATM   23  C18 UNL     1      25.110   0.741  53.295  1.00  0.00     0.117 C 
HETATM   24  N4  UNL     1      24.301   4.659  51.885  1.00  0.00    -0.393 N 
HETATM   25  C19 UNL     1      23.080   4.646  52.492  1.00  0.00     0.125 C 
HETATM   26  H16 UNL     1      26.737   4.690  51.168  1.00  0.00     0.318 HD
HETATM   27  H25 UNL     1      25.064   5.053  52.523  1.00  0.00     0.155 HD
ENDROOT
TORSDOF 0
ENDMDL
MODEL 3
REMARK VINA RESULT:      -8.5      3.266      4.811
REMARK  0 active torsions:
REMARK  status: ('A' for Active; 'I' for Inactive)
ROOT
HETATM    1  F1  UNL     1      22.983   3.603  47.678  1.00  0.00    -0.206 F 
HETATM    2  C1  UNL     1      22.563   3.092  48.835  1.00  0.00     0.120 C 
HETATM    3  C2  UNL     1      22.204   1.829  49.011  1.00  0.00     0.035 C 
HETATM    4  C3  UNL     1      21.592   1.092  50.144  1.00  0.00     0.148 C 
HETATM    5  N1  UNL     1      21.701   1.719  51.414  1.00  0.00    -0.397 N 
HETATM    6  C4  UNL     1      21.004   2.970  51.534  1.00  0.00     0.146 C 
HETATM    7  C5  UNL     1      21.753   4.104  50.938  1.00  0.00     0.003 C 
HETATM    8  C6  UNL     1      22.568   4.150  49.837  1.00  0.00    -0.016 C 
HETATM    9  C7  UNL     1      23.374   5.349  49.803  1.00  0.00     0.041 C 
HETATM   10  C8  UNL     1      23.965   5.747  48.498  1.00  0.00     0.037 C 
HETATM   11  C9  UNL     1      24.808   6.972  48.624  1.00  0.00     0.168 C 
HETATM   12  O1  UNL     1      25.998   7.005  49.183  1.00  0.00    -0.389 OA
HETATM   13  C10 UNL     1      27.149   6.512  48.808  1.00  0.00     0.197 C 
HETATM   14  C11 UNL     1      27.510   5.088  48.593  1.00  0.00     0.298 C 
HETATM   15  N2  UNL     1      27.489   4.145  49.623  1.00  0.00     0.108 NA
HETATM   16  C12 UNL     1      26.166   3.744  50.146  1.00  0.00     0.319 C 
HETATM   17  C13 UNL     1      26.457   2.678  51.163  1.00  0.00     0.096 C 
HETATM   18  C14 UNL     1      25.294   1.970  51.711  1.00  0.00    -0.039 C 
HETATM   19  C15 UNL     1      24.141   1.633  51.168  1.00  0.00     0.008 C 
HETATM   20  C16 UNL     1      22.972   1.703  52.040  1.00  0.00     0.123 C 
HETATM   21  C17 UNL     1      23.154   0.644  53.116  1.00  0.00     0.177 C 
HETATM   22  N3  UNL     1      24.472   0.834  53.731  1.00  0.00    -0.299 NA
HETATM   23  C18 UNL     1      25.402   1.500  53.113  1.00  0.00     0.117 C 
HETATM   24  N4  UNL     1      25.644   4.928  50.628  1.00  0.00    -0.393 N 
HETATM   25  C19 UNL     1      24.369   5.283  50.959  1.00  0.00     0.125 C 
HETATM   26  H16 UNL     1      28.112   4.368  50.431  1.00  0.00     0.318 HD
HETATM   27  H25 UNL     1      26.367   5.363  51.285  1.00  0.00     0.155 HD
ENDROOT
TORSDOF 0
ENDMDL
MODEL 4
REMARK VINA RESULT:      -8.1      2.927      5.525
REMARK  0 active torsions:
REMARK  status: ('A' for Active; 'I' for Inactive)
ROOT
HETATM    1  F1  UNL     1      20.612   4.253  52.395  1.00  0.00    -0.206 F 
HETATM    2  C1  UNL     1      21.747   4.237  51.697  1.00  0.00     0.120 C 
HETATM    3  C2  UNL     1      22.782   5.031  51.930  1.00  0.00     0.035 C 
HETATM    4  C3  UNL     1      24.059   5.276  51.215  1.00  0.00     0.148 C 
HETATM    5  N1  UNL     1      24.453   4.265  50.298  1.00  0.00    -0.397 N 
HETATM    6  C4  UNL     1      23.575   4.092  49.174  1.00  0.00     0.146 C 
HETATM    7  C5  UNL     1      22.372   3.288  49.504  1.00  0.00     0.003 C 
HETATM    8  C6  UNL     1      21.638   3.221  50.659  1.00  0.00    -0.016 C 
HETATM    9  C7  UNL     1      20.766   2.068  50.686  1.00  0.00     0.041 C 
HETATM   10  C8  UNL     1      19.623   2.089  51.636  1.00  0.00     0.037 C 
HETATM   11  C9  UNL     1      18.842   0.818  51.589  1.00  0.00     0.168 C 
HETATM   12  O1  UNL     1      19.249  -0.327  52.089  1.00  0.00    -0.389 OA
HETATM   13  C10 UNL     1      19.417  -0.728  53.323  1.00  0.00     0.197 C 
HETATM   14  C11 UNL     1      20.342  -0.181  54.346  1.00  0.00     0.298 C 
HETATM   15  N2  UNL     1      21.730  -0.208  54.193  1.00  0.00     0.108 NA
HETATM   16  C12 UNL     1      22.315   0.683  53.170  1.00  0.00     0.319 C 
HETATM   17  C13 UNL     1      23.800   0.498  53.296  1.00  0.00     0.096 C 
HETATM   18  C14 UNL     1      24.637   1.414  52.511  1.00  0.00    -0.039 C 
HETATM   19  C15 UNL     1      24.466   2.675  52.167  1.00  0.00     0.008 C 
HETATM   20  C16 UNL     1      24.945   3.052  50.840  1.00  0.00     0.123 C 
HETATM   21  C17 UNL     1      26.459   2.914  50.856  1.00  0.00     0.177 C 
HETATM   22  N3  UNL     1      26.795   1.570  51.342  1.00  0.00    -0.299 NA
HETATM   23  C18 UNL     1      25.931   0.879  52.024  1.00  0.00     0.117 C 
HETATM   24  N4  UNL     1      21.738   0.239  51.996  1.00  0.00    -0.393 N 
HETATM   25  C19 UNL     1      21.638   0.818  50.765  1.00  0.00     0.125 C 
HETATM   26  H16 UNL     1      22.138  -1.163  54.075  1.00  0.00     0.318 HD
HETATM   27  H25 UNL     1      21.892  -0.817  51.933  1.00  0.00     0.155 HD
ENDROOT
TORSDOF 0
ENDMDL
MODEL 5
REMARK VINA RESULT:      -8.0      3.946      5.387
REMARK  0 active torsions:
REMARK  status: ('A' for Active; 'I' for Inactive)
ROOT
HETATM    1  F1  UNL     1      23.167   5.335  47.118  1.00  0.00    -0.206 F 
HETATM    2  C1  UNL     1      22.612   4.791  48.201  1.00  0.00     0.120 C 
HETATM    3  C2  UNL     1      21.984   3.624  48.216  1.00  0.00     0.035 C 
HETATM    4  C3  UNL     1      21.193   2.906  49.246  1.00  0.00     0.148 C 
HETATM    5  N1  UNL     1      21.397   3.335  50.585  1.00  0.00    -0.397 N 
HETATM    6  C4  UNL     1      20.983   4.683  50.859  1.00  0.00     0.146 C 
HETATM    7  C5  UNL     1      21.977   5.691  50.412  1.00  0.00     0.003 C 
HETATM    8  C6  UNL     1      22.815   5.692  49.328  1.00  0.00    -0.016 C 
HETATM    9  C7  UNL     1      23.862   6.682  49.447  1.00  0.00     0.041 C 
HETATM   10  C8  UNL     1      24.564   7.098  48.204  1.00  0.00     0.037 C 
HETATM   11  C9  UNL     1      25.647   8.085  48.485  1.00  0.00     0.168 C 
HETATM   12  O1  UNL     1      26.798   7.789  49.047  1.00  0.00    -0.389 OA
HETATM   13  C10 UNL     1      27.827   7.106  48.617  1.00  0.00     0.197 C 
HETATM   14  C11 UNL     1      27.878   5.675  48.225  1.00  0.00     0.298 C 
HETATM   15  N2  UNL     1      27.623   4.641  49.129  1.00  0.00     0.108 NA
HETATM   16  C12 UNL     1      26.230   4.478  49.593  1.00  0.00     0.319 C 
HETATM   17  C13 UNL     1      26.254   3.258  50.470  1.00  0.00     0.096 C 
HETATM   18  C14 UNL     1      24.949   2.759  50.921  1.00  0.00    -0.039 C 
HETATM   19  C15 UNL     1      23.767   2.750  50.337  1.00  0.00     0.008 C 
HETATM   20  C16 UNL     1      22.616   2.966  51.207  1.00  0.00     0.123 C 
HETATM   21  C17 UNL     1      22.532   1.770  52.142  1.00  0.00     0.177 C 
HETATM   22  N3  UNL     1      23.841   1.591  52.781  1.00  0.00    -0.299 NA
HETATM   23  C18 UNL     1      24.911   2.109  52.253  1.00  0.00     0.117 C 
HETATM   24  N4  UNL     1      25.961   5.679  50.218  1.00  0.00    -0.393 N 
HETATM   25  C19 UNL     1      24.784   6.260  50.588  1.00  0.00     0.125 C 
HETATM   26  H16 UNL     1      28.255   4.622  49.960  1.00  0.00     0.318 HD
HETATM   27  H25 UNL     1      26.741   5.862  50.927  1.00  0.00     0.155 HD
ENDROOT
TORSDOF 0
ENDMDL
MODEL 6
REMARK VINA RESULT:      -7.7      1.550      2.116
REMARK  0 active torsions:
REMARK  status: ('A' for Active; 'I' for Inactive)
ROOT
HETATM    1  F1  UNL     1      25.577   2.479  49.429  1.00  0.00    -0.206 F 
HETATM    2  C1  UNL     1      24.479   3.193  49.681  1.00  0.00     0.120 C 
HETATM    3  C2  UNL     1      23.439   3.283  48.865  1.00  0.00     0.035 C 
HETATM    4  C3  UNL     1      22.203   4.104  48.877  1.00  0.00     0.148 C 
HETATM    5  N1  UNL     1      21.852   4.665  50.134  1.00  0.00    -0.397 N 
HETATM    6  C4  UNL     1      22.786   5.627  50.651  1.00  0.00     0.146 C 
HETATM    7  C5  UNL     1      23.965   4.992  51.292  1.00  0.00     0.003 C 
HETATM    8  C6  UNL     1      24.637   3.841  50.976  1.00  0.00    -0.016 C 
HETATM    9  C7  UNL     1      25.498   3.398  52.049  1.00  0.00     0.041 C 
HETATM   10  C8  UNL     1      26.589   2.447  51.711  1.00  0.00     0.037 C 
HETATM   11  C9  UNL     1      27.363   2.041  52.921  1.00  0.00     0.168 C 
HETATM   12  O1  UNL     1      26.923   1.220  53.848  1.00  0.00    -0.389 OA
HETATM   13  C10 UNL     1      26.687  -0.066  53.832  1.00  0.00     0.197 C 
HETATM   14  C11 UNL     1      25.712  -0.809  52.994  1.00  0.00     0.298 C 
HETATM   15  N2  UNL     1      24.334  -0.600  53.083  1.00  0.00     0.108 NA
HETATM   16  C12 UNL     1      23.811   0.685  52.576  1.00  0.00     0.319 C 
HETATM   17  C13 UNL     1      22.319   0.583  52.726  1.00  0.00     0.096 C 
HETATM   18  C14 UNL     1      21.532   1.664  52.122  1.00  0.00    -0.039 C 
HETATM   19  C15 UNL     1      21.729   2.387  51.037  1.00  0.00     0.008 C 
HETATM   20  C16 UNL     1      21.324   3.788  51.113  1.00  0.00     0.123 C 
HETATM   21  C17 UNL     1      19.810   3.807  51.254  1.00  0.00     0.177 C 
HETATM   22  N3  UNL     1      19.440   2.932  52.373  1.00  0.00    -0.299 NA
HETATM   23  C18 UNL     1      20.262   2.019  52.799  1.00  0.00     0.117 C 
HETATM   24  N4  UNL     1      24.446   1.621  53.368  1.00  0.00    -0.393 N 
HETATM   25  C19 UNL     1      24.614   2.966  53.216  1.00  0.00     0.125 C 
HETATM   26  H16 UNL     1      23.927  -0.775  54.029  1.00  0.00     0.318 HD
HETATM   27  H25 UNL     1      24.288   1.348  54.390  1.00  0.00     0.155 HD
ENDROOT
TORSDOF 0
ENDMDL
MODEL 7
REMARK VINA RESULT:      -7.5      8.304      9.731
REMARK  0 active torsions:
REMARK  status: ('A' for Active; 'I' for Inactive)
ROOT
HETATM    1  F1  UNL     1      31.222   9.082  45.563  1.00  0.00    -0.206 F 
HETATM    2  C1  UNL     1      30.098   9.447  46.181  1.00  0.00     0.120 C 
HETATM    3  C2  UNL     1      28.936   9.639  45.574  1.00  0.00     0.035 C 
HETATM    4  C3  UNL     1      27.625  10.165  46.027  1.00  0.00     0.148 C 
HETATM    5  N1  UNL     1      27.414  10.158  47.432  1.00  0.00    -0.397 N 
HETATM    6  C4  UNL     1      28.290  11.017  48.180  1.00  0.00     0.146 C 
HETATM    7  C5  UNL     1      29.628  10.415  48.404  1.00  0.00     0.003 C 
HETATM    8  C6  UNL     1      30.381   9.597  47.602  1.00  0.00    -0.016 C 
HETATM    9  C7  UNL     1      31.454   8.956  48.329  1.00  0.00     0.041 C 
HETATM   10  C8  UNL     1      32.587   8.404  47.540  1.00  0.00     0.037 C 
HETATM   11  C9  UNL     1      33.593   7.732  48.415  1.00  0.00     0.168 C 
HETATM   12  O1  UNL     1      33.417   6.566  48.995  1.00  0.00    -0.389 OA
HETATM   13  C10 UNL     1      33.347   5.354  48.510  1.00  0.00     0.197 C 
HETATM   14  C11 UNL     1      32.351   4.805  47.555  1.00  0.00     0.298 C 
HETATM   15  N2  UNL     1      30.991   4.717  47.859  1.00  0.00     0.108 NA
HETATM   16  C12 UNL     1      30.233   5.982  47.941  1.00  0.00     0.319 C 
HETATM   17  C13 UNL     1      28.811   5.568  48.192  1.00  0.00     0.096 C 
HETATM   18  C14 UNL     1      27.805   6.635  48.134  1.00  0.00    -0.039 C 
HETATM   19  C15 UNL     1      27.729   7.725  47.397  1.00  0.00     0.008 C 
HETATM   20  C16 UNL     1      27.167   8.905  48.047  1.00  0.00     0.123 C 
HETATM   21  C17 UNL     1      25.707   8.601  48.339  1.00  0.00     0.177 C 
HETATM   22  N3  UNL     1      25.638   7.329  49.067  1.00  0.00    -0.299 NA
HETATM   23  C18 UNL     1      26.627   6.486  49.022  1.00  0.00     0.117 C 
HETATM   24  N4  UNL     1      30.864   6.664  48.963  1.00  0.00    -0.393 N 
HETATM   25  C19 UNL     1      30.834   7.979  49.323  1.00  0.00     0.125 C 
HETATM   26  H16 UNL     1      30.769   4.140  48.701  1.00  0.00     0.318 HD
HETATM   27  H25 UNL     1      30.911   6.014  49.812  1.00  0.00     0.155 HD
ENDROOT
TORSDOF 0
ENDMDL
MODEL 8
REMARK VINA RESULT:      -7.4      1.808      2.520
REMARK  0 active torsions:
REMARK  status: ('A' for Active; 'I' for Inactive)
ROOT
HETATM    1  F1  UNL     1      23.197   1.869  48.746  1.00  0.00    -0.206 F 
HETATM    2  C1  UNL     1      22.083   1.851  49.479  1.00  0.00     0.120 C 
HETATM    3  C2  UNL     1      21.029   1.088  49.223  1.00  0.00     0.035 C 
HETATM    4  C3  UNL     1      19.667   1.004  49.806  1.00  0.00     0.148 C 
HETATM    5  N1  UNL     1      19.515   1.581  51.095  1.00  0.00    -0.397 N 
HETATM    6  C4  UNL     1      19.715   3.002  51.151  1.00  0.00     0.146 C 
HETATM    7  C5  UNL     1      21.150   3.379  51.179  1.00  0.00     0.003 C 
HETATM    8  C6  UNL     1      22.233   2.799  50.574  1.00  0.00    -0.016 C 
HETATM    9  C7  UNL     1      23.484   3.259  51.135  1.00  0.00     0.041 C 
HETATM   10  C8  UNL     1      24.716   3.069  50.324  1.00  0.00     0.037 C 
HETATM   11  C9  UNL     1      25.932   3.544  51.047  1.00  0.00     0.168 C 
HETATM   12  O1  UNL     1      26.491   2.919  52.059  1.00  0.00    -0.389 OA
HETATM   13  C10 UNL     1      27.153   1.793  52.129  1.00  0.00     0.197 C 
HETATM   14  C11 UNL     1      26.671   0.426  51.809  1.00  0.00     0.298 C 
HETATM   15  N2  UNL     1      25.634  -0.188  52.515  1.00  0.00     0.108 NA
HETATM   16  C12 UNL     1      24.273   0.350  52.321  1.00  0.00     0.319 C 
HETATM   17  C13 UNL     1      23.380  -0.550  53.127  1.00  0.00     0.096 C 
HETATM   18  C14 UNL     1      21.935  -0.348  52.962  1.00  0.00    -0.039 C 
HETATM   19  C15 UNL     1      21.218   0.017  51.917  1.00  0.00     0.008 C 
HETATM   20  C16 UNL     1      20.070   0.875  52.192  1.00  0.00     0.123 C 
HETATM   21  C17 UNL     1      19.081   0.052  53.003  1.00  0.00     0.177 C 
HETATM   22  N3  UNL     1      19.791  -0.520  54.153  1.00  0.00    -0.299 NA
HETATM   23  C18 UNL     1      21.087  -0.624  54.145  1.00  0.00     0.117 C 
HETATM   24  N4  UNL     1      24.383   1.656  52.757  1.00  0.00    -0.393 N 
HETATM   25  C19 UNL     1      23.578   2.741  52.568  1.00  0.00     0.125 C 
HETATM   26  H16 UNL     1      25.808  -0.294  53.540  1.00  0.00     0.318 HD
HETATM   27  H25 UNL     1      24.815   1.641  53.735  1.00  0.00     0.155 HD
ENDROOT
TORSDOF 0
ENDMDL
MODEL 9
REMARK VINA RESULT:      -7.3      8.616     10.186
REMARK  0 active torsions:
REMARK  status: ('A' for Active; 'I' for Inactive)
ROOT
HETATM    1  F1  UNL     1      26.880  11.122  46.938  1.00  0.00    -0.206 F 
HETATM    2  C1  UNL     1      26.518  10.036  47.622  1.00  0.00     0.120 C 
HETATM    3  C2  UNL     1      25.648   9.134  47.193  1.00  0.00     0.035 C 
HETATM    4  C3  UNL     1      25.009   7.952  47.824  1.00  0.00     0.148 C 
HETATM    5  N1  UNL     1      25.664   7.446  48.979  1.00  0.00    -0.397 N 
HETATM    6  C4  UNL     1      25.685   8.340  50.104  1.00  0.00     0.146 C 
HETATM    7  C5  UNL     1      26.741   9.377  49.992  1.00  0.00     0.003 C 
HETATM    8  C6  UNL     1      27.231  10.031  48.892  1.00  0.00    -0.016 C 
HETATM    9  C7  UNL     1      28.483  10.700  49.168  1.00  0.00     0.041 C 
HETATM   10  C8  UNL     1      28.907  11.781  48.239  1.00  0.00     0.037 C 
HETATM   11  C9  UNL     1      30.236  12.345  48.617  1.00  0.00     0.168 C 
HETATM   12  O1  UNL     1      31.384  11.732  48.442  1.00  0.00    -0.389 OA
HETATM   13  C10 UNL     1      32.059  11.438  47.360  1.00  0.00     0.197 C 
HETATM   14  C11 UNL     1      31.647  10.563  46.234  1.00  0.00     0.298 C 
HETATM   15  N2  UNL     1      31.395   9.199  46.397  1.00  0.00     0.108 NA
HETATM   16  C12 UNL     1      30.182   8.821  47.150  1.00  0.00     0.319 C 
HETATM   17  C13 UNL     1      30.136   7.321  47.085  1.00  0.00     0.096 C 
HETATM   18  C14 UNL     1      28.919   6.686  47.604  1.00  0.00    -0.039 C 
HETATM   19  C15 UNL     1      27.660   7.078  47.600  1.00  0.00     0.008 C 
HETATM   20  C16 UNL     1      26.874   6.735  48.781  1.00  0.00     0.123 C 
HETATM   21  C17 UNL     1      26.750   5.220  48.811  1.00  0.00     0.177 C 
HETATM   22  N3  UNL     1      28.096   4.645  48.702  1.00  0.00    -0.299 NA
HETATM   23  C18 UNL     1      29.079   5.348  48.223  1.00  0.00     0.117 C 
HETATM   24  N4  UNL     1      30.396   9.376  48.396  1.00  0.00    -0.393 N 
HETATM   25  C19 UNL     1      29.542   9.632  49.428  1.00  0.00     0.125 C 
HETATM   26  H16 UNL     1      32.202   8.648  46.766  1.00  0.00     0.318 HD
HETATM   27  H25 UNL     1      31.357   9.055  48.738  1.00  0.00     0.155 HD
ENDROOT
TORSDOF 0
ENDMDL
