MODEL 1
REMARK VINA RESULT:      -8.0      0.000      0.000
REMARK  3 active torsions:
REMARK  status: ('A' for Active; 'I' for Inactive)
REMARK    1  A    between atoms: C12_16  and  C13_17 
REMARK    2  A    between atoms: C13_17  and  C14_18 
REMARK    3  A    between atoms: C14_18  and  N4_19 
ROOT
HETATM    1  C1  UNL     1      23.960   4.198  53.013  1.00  0.00     0.039 C 
HETATM    2  C2  UNL     1      24.074   3.037  52.442  1.00  0.00    -0.072 C 
HETATM    3  C3  UNL     1      23.662   2.001  53.375  1.00  0.00     0.001 C 
HETATM    4  C4  UNL     1      23.519   0.693  53.441  1.00  0.00    -0.005 C 
HETATM    5  C5  UNL     1      23.251  -0.718  53.843  1.00  0.00     0.177 C 
HETATM    6  N1  UNL     1      22.219  -1.214  52.877  1.00  0.00    -0.277 NA
HETATM    7  C6  UNL     1      21.567  -0.328  52.196  1.00  0.00     0.251 C 
HETATM    8  N2  UNL     1      20.809   0.576  51.409  1.00  0.00    -0.144 NA
HETATM    9  N3  UNL     1      20.971   0.613  50.129  1.00  0.00    -0.162 NA
HETATM   10  C7  UNL     1      20.205   1.529  49.347  1.00  0.00     0.137 C 
HETATM   11  C8  UNL     1      20.975   2.324  48.566  1.00  0.00    -0.001 C 
HETATM   12  C9  UNL     1      22.453   2.204  48.567  1.00  0.00     0.074 C 
HETATM   13  C10 UNL     1      23.187   3.388  49.009  1.00  0.00    -0.011 C 
HETATM   14 BR1  UNL     1      22.765   4.784  47.776  1.00  0.00    -0.056 Br
HETATM   15  C11 UNL     1      24.034   3.660  50.041  1.00  0.00    -0.003 C 
HETATM   16  C12 UNL     1      24.421   2.663  51.054  1.00  0.00     0.039 C 
ENDROOT
BRANCH  16  17
HETATM   17  C13 UNL     1      25.741   1.992  50.869  1.00  0.00     0.033 C 
BRANCH  17  18
HETATM   18  C14 UNL     1      26.822   2.570  51.763  1.00  0.00     0.127 C 
BRANCH  18  19
HETATM   19  N4  UNL     1      27.384   1.426  52.496  1.00  0.00    -0.348 N 
HETATM   20  C15 UNL     1      26.925   0.076  52.136  1.00  0.00     0.152 C 
HETATM   21  C16 UNL     1      26.905  -0.652  53.480  1.00  0.00     0.188 C 
HETATM   22  O1  UNL     1      28.179  -0.809  53.964  1.00  0.00    -0.380 OA
HETATM   23  C17 UNL     1      29.032   0.250  53.796  1.00  0.00     0.270 C 
HETATM   24  C18 UNL     1      28.360   1.553  53.551  1.00  0.00     0.243 C 
HETATM   25  O2  UNL     1      28.433   2.705  54.027  1.00  0.00    -0.271 OA
ENDBRANCH  18  19
ENDBRANCH  17  18
ENDBRANCH  16  17
TORSDOF 3
ENDMDL
MODEL 2
REMARK VINA RESULT:      -7.9      3.394      5.978
REMARK  3 active torsions:
REMARK  status: ('A' for Active; 'I' for Inactive)
REMARK    1  A    between atoms: C12_16  and  C13_17 
REMARK    2  A    between atoms: C13_17  and  C14_18 
REMARK    3  A    between atoms: C14_18  and  N4_19 
ROOT
HETATM    1  C1  UNL     1      23.994   3.995  53.597  1.00  0.00     0.039 C 
HETATM    2  C2  UNL     1      24.506   2.910  53.097  1.00  0.00    -0.072 C 
HETATM    3  C3  UNL     1      25.923   2.857  53.417  1.00  0.00     0.001 C 
HETATM    4  C4  UNL     1      26.973   2.080  53.247  1.00  0.00    -0.005 C 
HETATM    5  C5  UNL     1      28.326   1.452  53.237  1.00  0.00     0.177 C 
HETATM    6  N1  UNL     1      28.151   0.127  53.912  1.00  0.00    -0.277 NA
HETATM    7  C6  UNL     1      27.079  -0.046  54.616  1.00  0.00     0.251 C 
HETATM    8  N2  UNL     1      25.932  -0.318  55.404  1.00  0.00    -0.144 NA
HETATM    9  N3  UNL     1      25.071  -1.196  55.012  1.00  0.00    -0.162 NA
HETATM   10  C7  UNL     1      23.919  -1.460  55.812  1.00  0.00     0.137 C 
HETATM   11  C8  UNL     1      22.760  -1.330  55.122  1.00  0.00    -0.001 C 
HETATM   12  C9  UNL     1      22.757  -0.953  53.689  1.00  0.00     0.074 C 
HETATM   13  C10 UNL     1      22.089   0.306  53.364  1.00  0.00    -0.011 C 
HETATM   14 BR1  UNL     1      20.259   0.099  53.866  1.00  0.00    -0.056 Br
HETATM   15  C11 UNL     1      22.490   1.491  52.823  1.00  0.00    -0.003 C 
HETATM   16  C12 UNL     1      23.877   1.763  52.408  1.00  0.00     0.039 C 
ENDROOT
BRANCH  16  17
HETATM   17  C13 UNL     1      24.186   1.624  50.955  1.00  0.00     0.033 C 
BRANCH  17  18
HETATM   18  C14 UNL     1      23.099   2.203  50.068  1.00  0.00     0.127 C 
BRANCH  18  19
HETATM   19  N4  UNL     1      23.439   3.624  49.903  1.00  0.00    -0.348 N 
HETATM   20  C15 UNL     1      24.786   3.966  49.420  1.00  0.00     0.152 C 
HETATM   21  C16 UNL     1      25.111   5.249  50.186  1.00  0.00     0.188 C 
HETATM   22  O1  UNL     1      24.297   6.275  49.778  1.00  0.00    -0.380 OA
HETATM   23  C17 UNL     1      22.986   5.960  49.541  1.00  0.00     0.270 C 
HETATM   24  C18 UNL     1      22.525   4.703  50.190  1.00  0.00     0.243 C 
HETATM   25  O2  UNL     1      21.561   4.364  50.906  1.00  0.00    -0.271 OA
ENDBRANCH  18  19
ENDBRANCH  17  18
ENDBRANCH  16  17
TORSDOF 3
ENDMDL
MODEL 3
REMARK VINA RESULT:      -7.8      3.636      6.410
REMARK  3 active torsions:
REMARK  status: ('A' for Active; 'I' for Inactive)
REMARK    1  A    between atoms: C12_16  and  C13_17 
REMARK    2  A    between atoms: C13_17  and  C14_18 
REMARK    3  A    between atoms: C14_18  and  N4_19 
ROOT
HETATM    1  C1  UNL     1      21.576   0.863  49.639  1.00  0.00     0.039 C 
HETATM    2  C2  UNL     1      21.859   1.199  50.862  1.00  0.00    -0.072 C 
HETATM    3  C3  UNL     1      21.379   0.167  51.766  1.00  0.00     0.001 C 
HETATM    4  C4  UNL     1      21.349  -0.124  53.051  1.00  0.00    -0.005 C 
HETATM    5  C5  UNL     1      21.147  -0.740  54.394  1.00  0.00     0.177 C 
HETATM    6  N1  UNL     1      22.523  -0.927  54.954  1.00  0.00    -0.277 NA
HETATM    7  C6  UNL     1      23.516  -0.869  54.124  1.00  0.00     0.251 C 
HETATM    8  N2  UNL     1      24.658  -0.819  53.285  1.00  0.00    -0.144 NA
HETATM    9  N3  UNL     1      25.504   0.148  53.403  1.00  0.00    -0.162 NA
HETATM   10  C7  UNL     1      26.649   0.190  52.551  1.00  0.00     0.137 C 
HETATM   11  C8  UNL     1      26.764   1.363  51.884  1.00  0.00    -0.001 C 
HETATM   12  C9  UNL     1      25.773   2.451  52.065  1.00  0.00     0.074 C 
HETATM   13  C10 UNL     1      25.024   2.835  50.869  1.00  0.00    -0.011 C 
HETATM   14 BR1  UNL     1      26.303   3.481  49.608  1.00  0.00    -0.056 Br
HETATM   15  C11 UNL     1      23.709   2.816  50.517  1.00  0.00    -0.003 C 
HETATM   16  C12 UNL     1      22.639   2.331  51.406  1.00  0.00     0.039 C 
ENDROOT
BRANCH  16  17
HETATM   17  C13 UNL     1      21.860   3.364  52.150  1.00  0.00     0.033 C 
BRANCH  17  18
HETATM   18  C14 UNL     1      21.528   4.574  51.296  1.00  0.00     0.127 C 
BRANCH  18  19
HETATM   19  N4  UNL     1      20.278   4.234  50.598  1.00  0.00    -0.348 N 
HETATM   20  C15 UNL     1      19.137   3.770  51.401  1.00  0.00     0.152 C 
HETATM   21  C16 UNL     1      18.478   2.730  50.496  1.00  0.00     0.188 C 
HETATM   22  O1  UNL     1      17.935   3.328  49.387  1.00  0.00    -0.380 OA
HETATM   23  C17 UNL     1      18.665   4.336  48.816  1.00  0.00     0.270 C 
HETATM   24  C18 UNL     1      20.110   4.331  49.168  1.00  0.00     0.243 C 
HETATM   25  O2  UNL     1      21.187   4.387  48.541  1.00  0.00    -0.271 OA
ENDBRANCH  18  19
ENDBRANCH  17  18
ENDBRANCH  16  17
TORSDOF 3
ENDMDL
MODEL 4
REMARK VINA RESULT:      -7.7      3.599      6.251
REMARK  3 active torsions:
REMARK  status: ('A' for Active; 'I' for Inactive)
REMARK    1  A    between atoms: C12_16  and  C13_17 
REMARK    2  A    between atoms: C13_17  and  C14_18 
REMARK    3  A    between atoms: C14_18  and  N4_19 
ROOT
HETATM    1  C1  UNL     1      21.566   0.983  49.756  1.00  0.00     0.039 C 
HETATM    2  C2  UNL     1      21.876   1.291  50.979  1.00  0.00    -0.072 C 
HETATM    3  C3  UNL     1      21.353   0.274  51.877  1.00  0.00     0.001 C 
HETATM    4  C4  UNL     1      21.321  -0.029  53.159  1.00  0.00    -0.005 C 
HETATM    5  C5  UNL     1      21.099  -0.648  54.498  1.00  0.00     0.177 C 
HETATM    6  N1  UNL     1      22.470  -0.910  55.042  1.00  0.00    -0.277 NA
HETATM    7  C6  UNL     1      23.457  -0.893  54.204  1.00  0.00     0.251 C 
HETATM    8  N2  UNL     1      24.592  -0.891  53.355  1.00  0.00    -0.144 NA
HETATM    9  N3  UNL     1      25.487   0.031  53.475  1.00  0.00    -0.162 NA
HETATM   10  C7  UNL     1      26.625   0.026  52.613  1.00  0.00     0.137 C 
HETATM   11  C8  UNL     1      26.792   1.199  51.957  1.00  0.00    -0.001 C 
HETATM   12  C9  UNL     1      25.859   2.333  52.158  1.00  0.00     0.074 C 
HETATM   13  C10 UNL     1      25.119   2.766  50.974  1.00  0.00    -0.011 C 
HETATM   14 BR1  UNL     1      26.417   3.362  49.707  1.00  0.00    -0.056 Br
HETATM   15  C11 UNL     1      23.801   2.817  50.634  1.00  0.00    -0.003 C 
HETATM   16  C12 UNL     1      22.717   2.377  51.528  1.00  0.00     0.039 C 
ENDROOT
BRANCH  16  17
HETATM   17  C13 UNL     1      21.997   3.439  52.290  1.00  0.00     0.033 C 
BRANCH  17  18
HETATM   18  C14 UNL     1      20.744   3.919  51.581  1.00  0.00     0.127 C 
BRANCH  18  19
HETATM   19  N4  UNL     1      21.192   4.969  50.654  1.00  0.00    -0.348 N 
HETATM   20  C15 UNL     1      21.917   6.123  51.208  1.00  0.00     0.152 C 
HETATM   21  C16 UNL     1      21.433   7.284  50.338  1.00  0.00     0.188 C 
HETATM   22  O1  UNL     1      21.883   7.144  49.050  1.00  0.00    -0.380 OA
HETATM   23  C17 UNL     1      21.869   5.877  48.531  1.00  0.00     0.270 C 
HETATM   24  C18 UNL     1      20.959   4.931  49.230  1.00  0.00     0.243 C 
HETATM   25  O2  UNL     1      20.062   4.132  48.893  1.00  0.00    -0.271 OA
ENDBRANCH  18  19
ENDBRANCH  17  18
ENDBRANCH  16  17
TORSDOF 3
ENDMDL
MODEL 5
REMARK VINA RESULT:      -7.5      3.879      7.167
REMARK  3 active torsions:
REMARK  status: ('A' for Active; 'I' for Inactive)
REMARK    1  A    between atoms: C12_16  and  C13_17 
REMARK    2  A    between atoms: C13_17  and  C14_18 
REMARK    3  A    between atoms: C14_18  and  N4_19 
ROOT
HETATM    1  C1  UNL     1      22.050   4.396  52.635  1.00  0.00     0.039 C 
HETATM    2  C2  UNL     1      22.654   3.567  51.839  1.00  0.00    -0.072 C 
HETATM    3  C3  UNL     1      23.802   4.227  51.239  1.00  0.00     0.001 C 
HETATM    4  C4  UNL     1      24.796   3.981  50.409  1.00  0.00    -0.005 C 
HETATM    5  C5  UNL     1      26.004   4.038  49.537  1.00  0.00     0.177 C 
HETATM    6  N1  UNL     1      26.923   2.980  50.067  1.00  0.00    -0.277 NA
HETATM    7  C6  UNL     1      26.684   2.526  51.255  1.00  0.00     0.251 C 
HETATM    8  N2  UNL     1      26.494   1.974  52.547  1.00  0.00    -0.144 NA
HETATM    9  N3  UNL     1      26.140   0.739  52.677  1.00  0.00    -0.162 NA
HETATM   10  C7  UNL     1      25.948   0.194  53.982  1.00  0.00     0.137 C 
HETATM   11  C8  UNL     1      24.729  -0.375  54.138  1.00  0.00    -0.001 C 
HETATM   12  C9  UNL     1      23.743  -0.400  53.031  1.00  0.00     0.074 C 
HETATM   13  C10 UNL     1      22.490   0.312  53.279  1.00  0.00    -0.011 C 
HETATM   14 BR1  UNL     1      21.653  -0.557  54.759  1.00  0.00    -0.056 Br
HETATM   15  C11 UNL     1      21.867   1.381  52.709  1.00  0.00    -0.003 C 
HETATM   16  C12 UNL     1      22.425   2.130  51.570  1.00  0.00     0.039 C 
ENDROOT
BRANCH  16  17
HETATM   17  C13 UNL     1      21.894   1.795  50.217  1.00  0.00     0.033 C 
BRANCH  17  18
HETATM   18  C14 UNL     1      20.388   1.608  50.209  1.00  0.00     0.127 C 
BRANCH  18  19
HETATM   19  N4  UNL     1      19.825   2.950  49.997  1.00  0.00    -0.348 N 
HETATM   20  C15 UNL     1      20.253   3.705  48.809  1.00  0.00     0.152 C 
HETATM   21  C16 UNL     1      20.291   5.148  49.313  1.00  0.00     0.188 C 
HETATM   22  O1  UNL     1      19.026   5.593  49.601  1.00  0.00    -0.380 OA
HETATM   23  C17 UNL     1      18.188   4.700  50.212  1.00  0.00     0.270 C 
HETATM   24  C18 UNL     1      18.875   3.569  50.890  1.00  0.00     0.243 C 
HETATM   25  O2  UNL     1      18.831   3.037  52.018  1.00  0.00    -0.271 OA
ENDBRANCH  18  19
ENDBRANCH  17  18
ENDBRANCH  16  17
TORSDOF 3
ENDMDL
MODEL 6
REMARK VINA RESULT:      -7.3      3.256      5.277
REMARK  3 active torsions:
REMARK  status: ('A' for Active; 'I' for Inactive)
REMARK    1  A    between atoms: C12_16  and  C13_17 
REMARK    2  A    between atoms: C13_17  and  C14_18 
REMARK    3  A    between atoms: C14_18  and  N4_19 
ROOT
HETATM    1  C1  UNL     1      23.771   4.240  53.291  1.00  0.00     0.039 C 
HETATM    2  C2  UNL     1      24.034   3.096  52.734  1.00  0.00    -0.072 C 
HETATM    3  C3  UNL     1      25.165   2.482  53.410  1.00  0.00     0.001 C 
HETATM    4  C4  UNL     1      25.896   1.386  53.375  1.00  0.00    -0.005 C 
HETATM    5  C5  UNL     1      26.892   0.300  53.602  1.00  0.00     0.177 C 
HETATM    6  N1  UNL     1      26.080  -0.920  53.912  1.00  0.00    -0.277 NA
HETATM    7  C6  UNL     1      24.842  -0.743  54.244  1.00  0.00     0.251 C 
HETATM    8  N2  UNL     1      23.477  -0.637  54.616  1.00  0.00    -0.144 NA
HETATM    9  N3  UNL     1      22.557  -1.084  53.830  1.00  0.00    -0.162 NA
HETATM   10  C7  UNL     1      21.186  -0.970  54.212  1.00  0.00     0.137 C 
HETATM   11  C8  UNL     1      20.430  -0.347  53.276  1.00  0.00    -0.001 C 
HETATM   12  C9  UNL     1      21.023   0.138  52.007  1.00  0.00     0.074 C 
HETATM   13  C10 UNL     1      20.952   1.582  51.783  1.00  0.00    -0.011 C 
HETATM   14 BR1  UNL     1      19.098   2.033  51.713  1.00  0.00    -0.056 Br
HETATM   15  C11 UNL     1      21.873   2.574  51.632  1.00  0.00    -0.003 C 
HETATM   16  C12 UNL     1      23.327   2.342  51.677  1.00  0.00     0.039 C 
ENDROOT
BRANCH  16  17
HETATM   17  C13 UNL     1      24.034   2.236  50.367  1.00  0.00     0.033 C 
BRANCH  17  18
HETATM   18  C14 UNL     1      23.278   2.912  49.238  1.00  0.00     0.127 C 
BRANCH  18  19
HETATM   19  N4  UNL     1      23.923   4.222  49.060  1.00  0.00    -0.348 N 
HETATM   20  C15 UNL     1      25.364   4.331  49.332  1.00  0.00     0.152 C 
HETATM   21  C16 UNL     1      25.496   5.729  49.937  1.00  0.00     0.188 C 
HETATM   22  O1  UNL     1      25.220   6.690  48.998  1.00  0.00    -0.380 OA
HETATM   23  C17 UNL     1      24.180   6.433  48.146  1.00  0.00     0.270 C 
HETATM   24  C18 UNL     1      23.219   5.408  48.632  1.00  0.00     0.243 C 
HETATM   25  O2  UNL     1      21.981   5.326  48.760  1.00  0.00    -0.271 OA
ENDBRANCH  18  19
ENDBRANCH  17  18
ENDBRANCH  16  17
TORSDOF 3
ENDMDL
MODEL 7
REMARK VINA RESULT:      -6.8      8.966     11.542
REMARK  3 active torsions:
REMARK  status: ('A' for Active; 'I' for Inactive)
REMARK    1  A    between atoms: C12_16  and  C13_17 
REMARK    2  A    between atoms: C13_17  and  C14_18 
REMARK    3  A    between atoms: C14_18  and  N4_19 
ROOT
HETATM    1  C1  UNL     1      30.231   9.446  45.399  1.00  0.00     0.039 C 
HETATM    2  C2  UNL     1      29.996   9.049  46.613  1.00  0.00    -0.072 C 
HETATM    3  C3  UNL     1      28.754   8.294  46.639  1.00  0.00     0.001 C 
HETATM    4  C4  UNL     1      27.984   7.633  47.480  1.00  0.00    -0.005 C 
HETATM    5  C5  UNL     1      26.917   6.832  48.146  1.00  0.00     0.177 C 
HETATM    6  N1  UNL     1      27.621   5.644  48.727  1.00  0.00    -0.277 NA
HETATM    7  C6  UNL     1      28.808   5.379  48.283  1.00  0.00     0.251 C 
HETATM    8  N2  UNL     1      30.110   5.021  47.853  1.00  0.00    -0.144 NA
HETATM    9  N3  UNL     1      31.109   5.124  48.664  1.00  0.00    -0.162 NA
HETATM   10  C7  UNL     1      32.418   4.763  48.221  1.00  0.00     0.137 C 
HETATM   11  C8  UNL     1      33.324   5.754  48.399  1.00  0.00    -0.001 C 
HETATM   12  C9  UNL     1      32.937   7.052  49.001  1.00  0.00     0.074 C 
HETATM   13  C10 UNL     1      33.106   8.225  48.145  1.00  0.00    -0.011 C 
HETATM   14 BR1  UNL     1      34.970   8.353  47.755  1.00  0.00    -0.056 Br
HETATM   15  C11 UNL     1      32.261   9.156  47.618  1.00  0.00    -0.003 C 
HETATM   16  C12 UNL     1      30.806   9.150  47.846  1.00  0.00     0.039 C 
ENDROOT
BRANCH  16  17
HETATM   17  C13 UNL     1      30.284  10.070  48.899  1.00  0.00     0.033 C 
BRANCH  17  18
HETATM   18  C14 UNL     1      30.375  11.530  48.496  1.00  0.00     0.127 C 
BRANCH  18  19
HETATM   19  N4  UNL     1      28.991  12.026  48.490  1.00  0.00    -0.348 N 
HETATM   20  C15 UNL     1      27.935  11.148  49.016  1.00  0.00     0.152 C 
HETATM   21  C16 UNL     1      26.744  11.458  48.109  1.00  0.00     0.188 C 
HETATM   22  O1  UNL     1      26.300  12.739  48.315  1.00  0.00    -0.380 OA
HETATM   23  C17 UNL     1      27.261  13.698  48.498  1.00  0.00     0.270 C 
HETATM   24  C18 UNL     1      28.610  13.327  47.995  1.00  0.00     0.243 C 
HETATM   25  O2  UNL     1      29.473  13.856  47.265  1.00  0.00    -0.271 OA
ENDBRANCH  18  19
ENDBRANCH  17  18
ENDBRANCH  16  17
TORSDOF 3
ENDMDL
MODEL 8
REMARK VINA RESULT:      -6.6      3.757      6.140
REMARK  3 active torsions:
REMARK  status: ('A' for Active; 'I' for Inactive)
REMARK    1  A    between atoms: C12_16  and  C13_17 
REMARK    2  A    between atoms: C13_17  and  C14_18 
REMARK    3  A    between atoms: C14_18  and  N4_19 
ROOT
HETATM    1  C1  UNL     1      22.965   3.154  48.128  1.00  0.00     0.039 C 
HETATM    2  C2  UNL     1      22.592   3.585  49.296  1.00  0.00    -0.072 C 
HETATM    3  C3  UNL     1      21.140   3.653  49.340  1.00  0.00     0.001 C 
HETATM    4  C4  UNL     1      20.163   3.966  50.167  1.00  0.00    -0.005 C 
HETATM    5  C5  UNL     1      18.854   4.235  50.829  1.00  0.00     0.177 C 
HETATM    6  N1  UNL     1      18.821   3.327  52.020  1.00  0.00    -0.277 NA
HETATM    7  C6  UNL     1      19.662   2.342  52.041  1.00  0.00     0.251 C 
HETATM    8  N2  UNL     1      20.549   1.241  52.144  1.00  0.00    -0.144 NA
HETATM    9  N3  UNL     1      21.470   1.236  53.047  1.00  0.00    -0.162 NA
HETATM   10  C7  UNL     1      22.360   0.123  53.140  1.00  0.00     0.137 C 
HETATM   11  C8  UNL     1      23.664   0.488  53.089  1.00  0.00    -0.001 C 
HETATM   12  C9  UNL     1      24.060   1.910  52.953  1.00  0.00     0.074 C 
HETATM   13  C10 UNL     1      24.809   2.249  51.744  1.00  0.00    -0.011 C 
HETATM   14 BR1  UNL     1      26.432   1.246  51.808  1.00  0.00    -0.056 Br
HETATM   15  C11 UNL     1      24.586   3.066  50.677  1.00  0.00    -0.003 C 
HETATM   16  C12 UNL     1      23.367   3.878  50.520  1.00  0.00     0.039 C 
ENDROOT
BRANCH  16  17
HETATM   17  C13 UNL     1      23.460   5.317  50.906  1.00  0.00     0.033 C 
BRANCH  17  18
HETATM   18  C14 UNL     1      24.823   5.914  50.612  1.00  0.00     0.127 C 
BRANCH  18  19
HETATM   19  N4  UNL     1      24.693   6.571  49.303  1.00  0.00    -0.348 N 
HETATM   20  C15 UNL     1      23.400   7.181  48.956  1.00  0.00     0.152 C 
HETATM   21  C16 UNL     1      23.287   6.918  47.454  1.00  0.00     0.188 C 
HETATM   22  O1  UNL     1      24.233   7.632  46.765  1.00  0.00    -0.380 OA
HETATM   23  C17 UNL     1      25.477   7.707  47.332  1.00  0.00     0.270 C 
HETATM   24  C18 UNL     1      25.764   6.651  48.339  1.00  0.00     0.243 C 
HETATM   25  O2  UNL     1      26.684   5.834  48.546  1.00  0.00    -0.271 OA
ENDBRANCH  18  19
ENDBRANCH  17  18
ENDBRANCH  16  17
TORSDOF 3
ENDMDL
MODEL 9
REMARK VINA RESULT:      -6.5      8.480     10.586
REMARK  3 active torsions:
REMARK  status: ('A' for Active; 'I' for Inactive)
REMARK    1  A    between atoms: C12_16  and  C13_17 
REMARK    2  A    between atoms: C13_17  and  C14_18 
REMARK    3  A    between atoms: C14_18  and  N4_19 
ROOT
HETATM    1  C1  UNL     1      29.893   7.782  45.543  1.00  0.00     0.039 C 
HETATM    2  C2  UNL     1      30.051   8.236  46.750  1.00  0.00    -0.072 C 
HETATM    3  C3  UNL     1      30.607   9.578  46.688  1.00  0.00     0.001 C 
HETATM    4  C4  UNL     1      30.976  10.562  47.484  1.00  0.00    -0.005 C 
HETATM    5  C5  UNL     1      31.472  11.835  48.081  1.00  0.00     0.177 C 
HETATM    6  N1  UNL     1      30.318  12.378  48.866  1.00  0.00    -0.277 NA
HETATM    7  C6  UNL     1      29.145  11.894  48.611  1.00  0.00     0.251 C 
HETATM    8  N2  UNL     1      27.826  11.419  48.394  1.00  0.00    -0.144 NA
HETATM    9  N3  UNL     1      27.224  10.743  49.314  1.00  0.00    -0.162 NA
HETATM   10  C7  UNL     1      25.898  10.266  49.085  1.00  0.00     0.137 C 
HETATM   11  C8  UNL     1      25.780   8.931  49.280  1.00  0.00    -0.001 C 
HETATM   12  C9  UNL     1      26.941   8.108  49.692  1.00  0.00     0.074 C 
HETATM   13  C10 UNL     1      27.346   7.064  48.751  1.00  0.00    -0.011 C 
HETATM   14 BR1  UNL     1      25.869   5.864  48.598  1.00  0.00    -0.056 Br
HETATM   15  C11 UNL     1      28.472   6.811  48.028  1.00  0.00    -0.003 C 
HETATM   16  C12 UNL     1      29.667   7.673  48.062  1.00  0.00     0.039 C 
ENDROOT
BRANCH  16  17
HETATM   17  C13 UNL     1      30.792   7.232  48.938  1.00  0.00     0.033 C 
BRANCH  17  18
HETATM   18  C14 UNL     1      31.510   6.010  48.398  1.00  0.00     0.127 C 
BRANCH  18  19
HETATM   19  N4  UNL     1      32.944   6.325  48.481  1.00  0.00    -0.348 N 
HETATM   20  C15 UNL     1      33.337   7.724  48.704  1.00  0.00     0.152 C 
HETATM   21  C16 UNL     1      34.616   7.859  47.878  1.00  0.00     0.188 C 
HETATM   22  O1  UNL     1      35.623   7.099  48.417  1.00  0.00    -0.380 OA
HETATM   23  C17 UNL     1      35.270   5.866  48.894  1.00  0.00     0.270 C 
HETATM   24  C18 UNL     1      33.989   5.336  48.356  1.00  0.00     0.243 C 
HETATM   25  O2  UNL     1      33.606   4.270  47.833  1.00  0.00    -0.271 OA
ENDBRANCH  18  19
ENDBRANCH  17  18
ENDBRANCH  16  17
TORSDOF 3
ENDMDL
