MODEL 1
REMARK VINA RESULT:      -9.0      0.000      0.000
REMARK  6 active torsions:
REMARK  status: ('A' for Active; 'I' for Inactive)
REMARK    1  A    between atoms: C2_2  and  C3_3 
REMARK    2  A    between atoms: N1_9  and  C9_10 
REMARK    3  A    between atoms: C11_12  and  N2_13 
REMARK    4  A    between atoms: N2_13  and  P1_14 
REMARK    5  A    between atoms: P1_14  and  C12_15 
REMARK    6  A    between atoms: C18_23  and  N4_24 
ROOT
HETATM    1  C9  UNL     1      27.000   2.128  52.133  1.00  0.00     0.152 A 
HETATM    2  C10 UNL     1      26.281   1.015  52.509  1.00  0.00     0.102 A 
HETATM    3  C11 UNL     1      26.737   0.243  53.586  1.00  0.00     0.149 A 
HETATM    4  N3  UNL     1      27.864   0.633  54.201  1.00  0.00    -0.045 NA
HETATM    5  C18 UNL     1      28.562   1.721  53.830  1.00  0.00     0.724 A 
HETATM    6  N5  UNL     1      28.121   2.459  52.796  1.00  0.00    -0.045 NA
ENDROOT
BRANCH   1   7
HETATM    7  N1  UNL     1      26.356   2.739  51.028  1.00  0.00    -0.338 N 
HETATM    8  C8  UNL     1      26.492   3.142  49.656  1.00  0.00     0.157 C 
HETATM    9  C7  UNL     1      26.583   4.587  49.441  1.00  0.00    -0.007 C 
HETATM   10  C6  UNL     1      25.904   5.663  48.994  1.00  0.00    -0.003 C 
HETATM   11  C5  UNL     1      24.558   5.961  48.453  1.00  0.00    -0.004 C 
HETATM   12  C4  UNL     1      23.429   5.298  48.232  1.00  0.00    -0.018 C 
HETATM   13  C3  UNL     1      22.627   4.073  48.278  1.00  0.00     0.033 C 
HETATM   14  C21 UNL     1      23.327   2.888  48.931  1.00  0.00     0.041 C 
HETATM   15  C20 UNL     1      23.928   3.184  50.226  1.00  0.00    -0.008 C 
HETATM   16  C19 UNL     1      24.965   3.194  51.107  1.00  0.00     0.089 C 
BRANCH  13  17
HETATM   17  C2  UNL     1      21.409   4.410  49.138  1.00  0.00    -0.028 C 
HETATM   18  C1  UNL     1      20.958   5.654  49.357  1.00  0.00     0.007 C 
ENDBRANCH  13  17
ENDBRANCH   1   7
BRANCH   3  19
HETATM   19  N2  UNL     1      26.078  -0.920  54.068  1.00  0.00    -0.347 N 
HETATM   20  H12 UNL     1      26.460  -1.871  53.809  1.00  0.00     0.166 HD
BRANCH  19  21
HETATM   21  P1  UNL     1      24.639  -1.029  55.088  1.00  0.00     0.006 P 
HETATM   22  H13 UNL     1      24.717  -0.016  56.105  1.00  0.00     0.085 HD
BRANCH  21  23
HETATM   23  C12 UNL     1      23.119  -0.753  54.123  1.00  0.00    -0.016 C 
HETATM   24  C13 UNL     1      22.090  -1.429  54.659  1.00  0.00     0.013 C 
HETATM   25  C14 UNL     1      20.674  -1.457  54.154  1.00  0.00     0.196 C 
HETATM   26  O1  UNL     1      20.312  -0.136  53.865  1.00  0.00    -0.384 OA
HETATM   27  C15 UNL     1      20.553   0.151  52.525  1.00  0.00     0.195 C 
HETATM   28  C16 UNL     1      21.982   0.466  52.274  1.00  0.00     0.000 C 
HETATM   29  C17 UNL     1      23.066   0.094  52.933  1.00  0.00     0.011 C 
ENDBRANCH  21  23
ENDBRANCH  19  21
ENDBRANCH   3  19
BRANCH   5  30
HETATM   30  N4  UNL     1      29.761   2.161  54.463  1.00  0.00    -0.231 N 
HETATM   31  H21 UNL     1      30.274   3.062  54.416  1.00  0.00     0.174 HD
HETATM   32  H22 UNL     1      30.231   1.463  55.096  1.00  0.00     0.174 HD
ENDBRANCH   5  30
TORSDOF 6
ENDMDL
MODEL 2
REMARK VINA RESULT:      -8.4      4.233      8.660
REMARK  6 active torsions:
REMARK  status: ('A' for Active; 'I' for Inactive)
REMARK    1  A    between atoms: C2_2  and  C3_3 
REMARK    2  A    between atoms: N1_9  and  C9_10 
REMARK    3  A    between atoms: C11_12  and  N2_13 
REMARK    4  A    between atoms: N2_13  and  P1_14 
REMARK    5  A    between atoms: P1_14  and  C12_15 
REMARK    6  A    between atoms: C18_23  and  N4_24 
ROOT
HETATM    1  C9  UNL     1      23.216   4.135  51.209  1.00  0.00     0.152 A 
HETATM    2  C10 UNL     1      24.273   5.014  51.305  1.00  0.00     0.102 A 
HETATM    3  C11 UNL     1      24.063   6.366  51.000  1.00  0.00     0.149 A 
HETATM    4  N3  UNL     1      22.828   6.737  50.627  1.00  0.00    -0.045 NA
HETATM    5  C18 UNL     1      21.800   5.874  50.535  1.00  0.00     0.724 A 
HETATM    6  N5  UNL     1      22.007   4.579  50.829  1.00  0.00    -0.045 NA
ENDROOT
BRANCH   1   7
HETATM    7  N1  UNL     1      23.666   2.837  51.555  1.00  0.00    -0.338 N 
HETATM    8  C8  UNL     1      23.425   1.427  51.419  1.00  0.00     0.157 C 
HETATM    9  C7  UNL     1      22.938   0.763  52.630  1.00  0.00    -0.007 C 
HETATM   10  C6  UNL     1      23.293  -0.071  53.628  1.00  0.00    -0.003 C 
HETATM   11  C5  UNL     1      24.504  -0.802  54.065  1.00  0.00    -0.004 C 
HETATM   12  C4  UNL     1      25.772  -0.900  53.685  1.00  0.00    -0.018 C 
HETATM   13  C3  UNL     1      26.882  -0.532  52.803  1.00  0.00     0.033 C 
HETATM   14  C21 UNL     1      26.537   0.533  51.770  1.00  0.00     0.041 C 
HETATM   15  C20 UNL     1      25.877   1.711  52.319  1.00  0.00    -0.008 C 
HETATM   16  C19 UNL     1      24.877   2.633  52.356  1.00  0.00     0.089 C 
BRANCH  13  17
HETATM   17  C2  UNL     1      27.959   0.054  53.716  1.00  0.00    -0.028 C 
HETATM   18  C1  UNL     1      29.268  -0.220  53.616  1.00  0.00     0.007 C 
ENDBRANCH  13  17
ENDBRANCH   1   7
BRANCH   3  19
HETATM   19  N2  UNL     1      25.071   7.364  51.068  1.00  0.00    -0.347 N 
HETATM   20  H12 UNL     1      25.475   7.623  52.010  1.00  0.00     0.166 HD
BRANCH  19  21
HETATM   21  P1  UNL     1      25.794   8.292  49.749  1.00  0.00     0.006 P 
HETATM   22  H13 UNL     1      26.285   9.535  50.276  1.00  0.00     0.085 HD
BRANCH  21  23
HETATM   23  C12 UNL     1      27.190   7.398  48.996  1.00  0.00    -0.016 C 
HETATM   24  C13 UNL     1      28.193   8.245  48.708  1.00  0.00     0.013 C 
HETATM   25  C14 UNL     1      29.513   7.893  48.080  1.00  0.00     0.196 C 
HETATM   26  O1  UNL     1      29.990   6.753  48.736  1.00  0.00    -0.384 OA
HETATM   27  C15 UNL     1      29.608   5.603  48.052  1.00  0.00     0.195 C 
HETATM   28  C16 UNL     1      28.207   5.218  48.358  1.00  0.00     0.000 C 
HETATM   29  C17 UNL     1      27.185   5.958  48.754  1.00  0.00     0.011 C 
ENDBRANCH  21  23
ENDBRANCH  19  21
ENDBRANCH   3  19
BRANCH   5  30
HETATM   30  N4  UNL     1      20.479   6.238  50.143  1.00  0.00    -0.231 N 
HETATM   31  H21 UNL     1      19.862   5.881  49.388  1.00  0.00     0.174 HD
HETATM   32  H22 UNL     1      20.026   7.006  50.702  1.00  0.00     0.174 HD
ENDBRANCH   5  30
TORSDOF 6
ENDMDL
MODEL 3
REMARK VINA RESULT:      -8.3      3.388      7.361
REMARK  6 active torsions:
REMARK  status: ('A' for Active; 'I' for Inactive)
REMARK    1  A    between atoms: C2_2  and  C3_3 
REMARK    2  A    between atoms: N1_9  and  C9_10 
REMARK    3  A    between atoms: C11_12  and  N2_13 
REMARK    4  A    between atoms: N2_13  and  P1_14 
REMARK    5  A    between atoms: P1_14  and  C12_15 
REMARK    6  A    between atoms: C18_23  and  N4_24 
ROOT
HETATM    1  C9  UNL     1      24.378   0.299  52.925  1.00  0.00     0.152 A 
HETATM    2  C10 UNL     1      24.660   1.314  52.038  1.00  0.00     0.102 A 
HETATM    3  C11 UNL     1      25.997   1.578  51.708  1.00  0.00     0.149 A 
HETATM    4  N3  UNL     1      26.942   0.818  52.281  1.00  0.00    -0.045 NA
HETATM    5  C18 UNL     1      26.661  -0.173  53.147  1.00  0.00     0.724 A 
HETATM    6  N5  UNL     1      25.378  -0.422  53.459  1.00  0.00    -0.045 NA
ENDROOT
BRANCH   1   7
HETATM    7  N1  UNL     1      22.975   0.225  53.107  1.00  0.00    -0.338 N 
HETATM    8  C8  UNL     1      21.902   0.289  54.061  1.00  0.00     0.157 C 
HETATM    9  C7  UNL     1      21.250  -0.991  54.344  1.00  0.00    -0.007 C 
HETATM   10  C6  UNL     1      20.128  -1.708  54.131  1.00  0.00    -0.003 C 
HETATM   11  C5  UNL     1      18.851  -1.552  53.397  1.00  0.00    -0.004 C 
HETATM   12  C4  UNL     1      18.296  -0.655  52.590  1.00  0.00    -0.018 C 
HETATM   13  C3  UNL     1      18.335   0.609  51.852  1.00  0.00     0.033 C 
HETATM   14  C21 UNL     1      19.660   1.354  51.953  1.00  0.00     0.041 C 
HETATM   15  C20 UNL     1      20.833   0.535  51.673  1.00  0.00    -0.008 C 
HETATM   16  C19 UNL     1      22.063   0.037  51.974  1.00  0.00     0.089 C 
BRANCH  13  17
HETATM   17  C2  UNL     1      18.135   0.236  50.383  1.00  0.00    -0.028 C 
HETATM   18  C1  UNL     1      16.939   0.115  49.789  1.00  0.00     0.007 C 
ENDBRANCH  13  17
ENDBRANCH   1   7
BRANCH   3  19
HETATM   19  N2  UNL     1      26.409   2.593  50.804  1.00  0.00    -0.347 N 
HETATM   20  H12 UNL     1      27.442   2.765  50.662  1.00  0.00     0.166 HD
BRANCH  19  21
HETATM   21  P1  UNL     1      25.407   3.672  49.827  1.00  0.00     0.006 P 
HETATM   22  H13 UNL     1      24.446   4.310  50.684  1.00  0.00     0.085 HD
BRANCH  21  23
HETATM   23  C12 UNL     1      26.409   4.968  49.030  1.00  0.00    -0.016 C 
HETATM   24  C13 UNL     1      25.681   6.082  48.847  1.00  0.00     0.013 C 
HETATM   25  C14 UNL     1      26.149   7.367  48.223  1.00  0.00     0.196 C 
HETATM   26  O1  UNL     1      27.396   7.667  48.782  1.00  0.00    -0.384 OA
HETATM   27  C15 UNL     1      28.420   7.163  47.985  1.00  0.00     0.195 C 
HETATM   28  C16 UNL     1      28.641   5.714  48.219  1.00  0.00     0.000 C 
HETATM   29  C17 UNL     1      27.809   4.783  48.656  1.00  0.00     0.011 C 
ENDBRANCH  21  23
ENDBRANCH  19  21
ENDBRANCH   3  19
BRANCH   5  30
HETATM   30  N4  UNL     1      27.642  -0.997  53.771  1.00  0.00    -0.231 N 
HETATM   31  H21 UNL     1      28.355  -1.640  53.375  1.00  0.00     0.174 HD
HETATM   32  H22 UNL     1      27.668  -0.967  54.823  1.00  0.00     0.174 HD
ENDBRANCH   5  30
TORSDOF 6
ENDMDL
MODEL 4
REMARK VINA RESULT:      -8.2      2.507      6.040
REMARK  6 active torsions:
REMARK  status: ('A' for Active; 'I' for Inactive)
REMARK    1  A    between atoms: C2_2  and  C3_3 
REMARK    2  A    between atoms: N1_9  and  C9_10 
REMARK    3  A    between atoms: C11_12  and  N2_13 
REMARK    4  A    between atoms: N2_13  and  P1_14 
REMARK    5  A    between atoms: P1_14  and  C12_15 
REMARK    6  A    between atoms: C18_23  and  N4_24 
ROOT
HETATM    1  C9  UNL     1      24.630   0.186  53.048  1.00  0.00     0.152 A 
HETATM    2  C10 UNL     1      24.973   1.377  52.447  1.00  0.00     0.102 A 
HETATM    3  C11 UNL     1      26.323   1.633  52.167  1.00  0.00     0.149 A 
HETATM    4  N3  UNL     1      27.219   0.693  52.503  1.00  0.00    -0.045 NA
HETATM    5  C18 UNL     1      26.878  -0.469  53.089  1.00  0.00     0.724 A 
HETATM    6  N5  UNL     1      25.583  -0.710  53.356  1.00  0.00    -0.045 NA
ENDROOT
BRANCH   1   7
HETATM    7  N1  UNL     1      23.226   0.155  53.237  1.00  0.00    -0.338 N 
HETATM    8  C8  UNL     1      22.162   0.205  54.201  1.00  0.00     0.157 C 
HETATM    9  C7  UNL     1      21.462  -1.063  54.417  1.00  0.00    -0.007 C 
HETATM   10  C6  UNL     1      20.313  -1.724  54.172  1.00  0.00    -0.003 C 
HETATM   11  C5  UNL     1      19.039  -1.478  53.458  1.00  0.00    -0.004 C 
HETATM   12  C4  UNL     1      18.514  -0.518  52.707  1.00  0.00    -0.018 C 
HETATM   13  C3  UNL     1      18.597   0.784  52.040  1.00  0.00     0.033 C 
HETATM   14  C21 UNL     1      19.950   1.472  52.173  1.00  0.00     0.041 C 
HETATM   15  C20 UNL     1      21.089   0.626  51.839  1.00  0.00    -0.008 C 
HETATM   16  C19 UNL     1      22.301   0.065  52.102  1.00  0.00     0.089 C 
BRANCH  13  17
HETATM   17  C2  UNL     1      18.375   0.502  50.555  1.00  0.00    -0.028 C 
HETATM   18  C1  UNL     1      17.309  -0.142  50.058  1.00  0.00     0.007 C 
ENDBRANCH  13  17
ENDBRANCH   1   7
BRANCH   3  19
HETATM   19  N2  UNL     1      26.796   2.820  51.546  1.00  0.00    -0.347 N 
HETATM   20  H12 UNL     1      27.608   3.339  51.982  1.00  0.00     0.166 HD
BRANCH  19  21
HETATM   21  P1  UNL     1      26.205   3.608  50.079  1.00  0.00     0.006 P 
HETATM   22  H13 UNL     1      26.574   2.806  48.945  1.00  0.00     0.085 HD
BRANCH  21  23
HETATM   23  C12 UNL     1      24.391   3.769  50.098  1.00  0.00    -0.016 C 
HETATM   24  C13 UNL     1      24.016   4.789  50.888  1.00  0.00     0.013 C 
HETATM   25  C14 UNL     1      22.608   5.241  51.164  1.00  0.00     0.196 C 
HETATM   26  O1  UNL     1      21.942   5.287  49.934  1.00  0.00    -0.384 OA
HETATM   27  C15 UNL     1      21.277   4.088  49.697  1.00  0.00     0.195 C 
HETATM   28  C16 UNL     1      22.194   3.038  49.184  1.00  0.00     0.000 C 
HETATM   29  C17 UNL     1      23.499   2.892  49.344  1.00  0.00     0.011 C 
ENDBRANCH  21  23
ENDBRANCH  19  21
ENDBRANCH   3  19
BRANCH   5  30
HETATM   30  N4  UNL     1      27.806  -1.486  53.458  1.00  0.00    -0.231 N 
HETATM   31  H21 UNL     1      28.728  -1.438  53.932  1.00  0.00     0.174 HD
HETATM   32  H22 UNL     1      27.530  -2.473  53.213  1.00  0.00     0.174 HD
ENDBRANCH   5  30
TORSDOF 6
ENDMDL
MODEL 5
REMARK VINA RESULT:      -8.2      4.627      9.032
REMARK  6 active torsions:
REMARK  status: ('A' for Active; 'I' for Inactive)
REMARK    1  A    between atoms: C2_2  and  C3_3 
REMARK    2  A    between atoms: N1_9  and  C9_10 
REMARK    3  A    between atoms: C11_12  and  N2_13 
REMARK    4  A    between atoms: N2_13  and  P1_14 
REMARK    5  A    between atoms: P1_14  and  C12_15 
REMARK    6  A    between atoms: C18_23  and  N4_24 
ROOT
HETATM    1  C9  UNL     1      24.295   4.353  50.861  1.00  0.00     0.152 A 
HETATM    2  C10 UNL     1      25.274   4.643  49.936  1.00  0.00     0.102 A 
HETATM    3  C11 UNL     1      25.311   5.922  49.362  1.00  0.00     0.149 A 
HETATM    4  N3  UNL     1      24.379   6.806  49.749  1.00  0.00    -0.045 NA
HETATM    5  C18 UNL     1      23.425   6.518  50.653  1.00  0.00     0.724 A 
HETATM    6  N5  UNL     1      23.394   5.290  51.200  1.00  0.00    -0.045 NA
ENDROOT
BRANCH   1   7
HETATM    7  N1  UNL     1      24.453   3.013  51.291  1.00  0.00    -0.338 N 
HETATM    8  C8  UNL     1      23.925   1.678  51.220  1.00  0.00     0.157 C 
HETATM    9  C7  UNL     1      23.276   1.203  52.444  1.00  0.00    -0.007 C 
HETATM   10  C6  UNL     1      23.422   0.374  53.498  1.00  0.00    -0.003 C 
HETATM   11  C5  UNL     1      24.440  -0.566  54.019  1.00  0.00    -0.004 C 
HETATM   12  C4  UNL     1      25.669  -0.948  53.694  1.00  0.00    -0.018 C 
HETATM   13  C3  UNL     1      26.855  -0.872  52.837  1.00  0.00     0.033 C 
HETATM   14  C21 UNL     1      26.769   0.178  51.737  1.00  0.00     0.041 C 
HETATM   15  C20 UNL     1      26.357   1.498  52.198  1.00  0.00    -0.008 C 
HETATM   16  C19 UNL     1      25.572   2.609  52.148  1.00  0.00     0.089 C 
BRANCH  13  17
HETATM   17  C2  UNL     1      28.005  -0.470  53.759  1.00  0.00    -0.028 C 
HETATM   18  C1  UNL     1      29.300  -0.704  53.500  1.00  0.00     0.007 C 
ENDBRANCH  13  17
ENDBRANCH   1   7
BRANCH   3  19
HETATM   19  N2  UNL     1      26.274   6.338  48.405  1.00  0.00    -0.347 N 
HETATM   20  H12 UNL     1      26.418   5.756  47.535  1.00  0.00     0.166 HD
BRANCH  19  21
HETATM   21  P1  UNL     1      27.328   7.756  48.447  1.00  0.00     0.006 P 
HETATM   22  H13 UNL     1      27.080   8.480  49.663  1.00  0.00     0.085 HD
BRANCH  21  23
HETATM   23  C12 UNL     1      29.085   7.278  48.416  1.00  0.00    -0.016 C 
HETATM   24  C13 UNL     1      29.856   8.278  48.875  1.00  0.00     0.013 C 
HETATM   25  C14 UNL     1      31.353   8.271  49.005  1.00  0.00     0.196 C 
HETATM   26  O1  UNL     1      31.710   7.052  49.592  1.00  0.00    -0.384 OA
HETATM   27  C15 UNL     1      32.010   6.111  48.612  1.00  0.00     0.195 C 
HETATM   28  C16 UNL     1      30.785   5.499  48.039  1.00  0.00     0.000 C 
HETATM   29  C17 UNL     1      29.555   5.976  47.949  1.00  0.00     0.011 C 
ENDBRANCH  21  23
ENDBRANCH  19  21
ENDBRANCH   3  19
BRANCH   5  30
HETATM   30  N4  UNL     1      22.423   7.435  51.084  1.00  0.00    -0.231 N 
HETATM   31  H21 UNL     1      22.212   7.836  52.018  1.00  0.00     0.174 HD
HETATM   32  H22 UNL     1      21.764   7.782  50.340  1.00  0.00     0.174 HD
ENDBRANCH   5  30
TORSDOF 6
ENDMDL
MODEL 6
REMARK VINA RESULT:      -8.1      3.238      5.378
REMARK  6 active torsions:
REMARK  status: ('A' for Active; 'I' for Inactive)
REMARK    1  A    between atoms: C2_2  and  C3_3 
REMARK    2  A    between atoms: N1_9  and  C9_10 
REMARK    3  A    between atoms: C11_12  and  N2_13 
REMARK    4  A    between atoms: N2_13  and  P1_14 
REMARK    5  A    between atoms: P1_14  and  C12_15 
REMARK    6  A    between atoms: C18_23  and  N4_24 
ROOT
HETATM    1  C9  UNL     1      21.919   3.259  50.955  1.00  0.00     0.152 A 
HETATM    2  C10 UNL     1      22.401   2.308  51.828  1.00  0.00     0.102 A 
HETATM    3  C11 UNL     1      21.512   1.685  52.714  1.00  0.00     0.149 A 
HETATM    4  N3  UNL     1      20.222   2.052  52.665  1.00  0.00    -0.045 NA
HETATM    5  C18 UNL     1      19.756   2.981  51.811  1.00  0.00     0.724 A 
HETATM    6  N5  UNL     1      20.613   3.575  50.963  1.00  0.00    -0.045 NA
ENDROOT
BRANCH   1   7
HETATM    7  N1  UNL     1      22.992   3.749  50.171  1.00  0.00    -0.338 N 
HETATM    8  C8  UNL     1      23.883   3.468  49.079  1.00  0.00     0.157 C 
HETATM    9  C7  UNL     1      25.271   3.207  49.464  1.00  0.00    -0.007 C 
HETATM   10  C6  UNL     1      26.514   3.731  49.468  1.00  0.00    -0.003 C 
HETATM   11  C5  UNL     1      27.170   4.993  49.057  1.00  0.00    -0.004 C 
HETATM   12  C4  UNL     1      26.799   6.167  48.560  1.00  0.00    -0.018 C 
HETATM   13  C3  UNL     1      25.769   7.097  48.091  1.00  0.00     0.033 C 
HETATM   14  C21 UNL     1      24.344   6.578  48.232  1.00  0.00     0.041 C 
HETATM   15  C20 UNL     1      24.025   6.049  49.552  1.00  0.00    -0.008 C 
HETATM   16  C19 UNL     1      23.554   5.085  50.390  1.00  0.00     0.089 C 
BRANCH  13  17
HETATM   17  C2  UNL     1      25.893   8.333  48.982  1.00  0.00    -0.028 C 
HETATM   18  C1  UNL     1      26.852   8.508  49.903  1.00  0.00     0.007 C 
ENDBRANCH  13  17
ENDBRANCH   1   7
BRANCH   3  19
HETATM   19  N2  UNL     1      21.890   0.688  53.653  1.00  0.00    -0.347 N 
HETATM   20  H12 UNL     1      21.501   0.734  54.635  1.00  0.00     0.166 HD
BRANCH  19  21
HETATM   21  P1  UNL     1      22.971  -0.691  53.422  1.00  0.00     0.006 P 
HETATM   22  H13 UNL     1      22.685  -1.292  52.148  1.00  0.00     0.085 HD
BRANCH  21  23
HETATM   23  C12 UNL     1      24.717  -0.173  53.429  1.00  0.00    -0.016 C 
HETATM   24  C13 UNL     1      25.254  -0.340  54.649  1.00  0.00     0.013 C 
HETATM   25  C14 UNL     1      26.667  -0.029  55.059  1.00  0.00     0.196 C 
HETATM   26  O1  UNL     1      27.507  -0.544  54.065  1.00  0.00    -0.384 OA
HETATM   27  C15 UNL     1      27.798   0.435  53.121  1.00  0.00     0.195 C 
HETATM   28  C16 UNL     1      26.700   0.597  52.136  1.00  0.00     0.000 C 
HETATM   29  C17 UNL     1      25.406   0.348  52.251  1.00  0.00     0.011 C 
ENDBRANCH  21  23
ENDBRANCH  19  21
ENDBRANCH   3  19
BRANCH   5  30
HETATM   30  N4  UNL     1      18.394   3.392  51.735  1.00  0.00    -0.231 N 
HETATM   31  H21 UNL     1      17.646   3.436  52.454  1.00  0.00     0.174 HD
HETATM   32  H22 UNL     1      18.060   3.712  50.789  1.00  0.00     0.174 HD
ENDBRANCH   5  30
TORSDOF 6
ENDMDL
MODEL 7
REMARK VINA RESULT:      -8.0      5.429      9.310
REMARK  6 active torsions:
REMARK  status: ('A' for Active; 'I' for Inactive)
REMARK    1  A    between atoms: C2_2  and  C3_3 
REMARK    2  A    between atoms: N1_9  and  C9_10 
REMARK    3  A    between atoms: C11_12  and  N2_13 
REMARK    4  A    between atoms: N2_13  and  P1_14 
REMARK    5  A    between atoms: P1_14  and  C12_15 
REMARK    6  A    between atoms: C18_23  and  N4_24 
ROOT
HETATM    1  C9  UNL     1      26.066   4.776  49.574  1.00  0.00     0.152 A 
HETATM    2  C10 UNL     1      27.335   4.573  49.076  1.00  0.00     0.102 A 
HETATM    3  C11 UNL     1      27.969   5.616  48.386  1.00  0.00     0.149 A 
HETATM    4  N3  UNL     1      27.299   6.769  48.245  1.00  0.00    -0.045 NA
HETATM    5  C18 UNL     1      26.060   6.962  48.734  1.00  0.00     0.724 A 
HETATM    6  N5  UNL     1      25.457   5.960  49.395  1.00  0.00    -0.045 NA
ENDROOT
BRANCH   1   7
HETATM    7  N1  UNL     1      25.632   3.592  50.219  1.00  0.00    -0.338 N 
HETATM    8  C8  UNL     1      24.626   2.567  50.256  1.00  0.00     0.157 C 
HETATM    9  C7  UNL     1      23.721   2.629  51.406  1.00  0.00    -0.007 C 
HETATM   10  C6  UNL     1      23.415   2.040  52.580  1.00  0.00    -0.003 C 
HETATM   11  C5  UNL     1      23.916   0.916  53.404  1.00  0.00    -0.004 C 
HETATM   12  C4  UNL     1      24.917   0.045  53.357  1.00  0.00    -0.018 C 
HETATM   13  C3  UNL     1      26.115  -0.504  52.718  1.00  0.00     0.033 C 
HETATM   14  C21 UNL     1      26.567   0.254  51.476  1.00  0.00     0.041 C 
HETATM   15  C20 UNL     1      26.671   1.696  51.657  1.00  0.00    -0.008 C 
HETATM   16  C19 UNL     1      26.404   2.984  51.308  1.00  0.00     0.089 C 
BRANCH  13  17
HETATM   17  C2  UNL     1      27.230  -0.381  53.756  1.00  0.00    -0.028 C 
HETATM   18  C1  UNL     1      28.492  -0.793  53.563  1.00  0.00     0.007 C 
ENDBRANCH  13  17
ENDBRANCH   1   7
BRANCH   3  19
HETATM   19  N2  UNL     1      29.275   5.527  47.834  1.00  0.00    -0.347 N 
HETATM   20  H12 UNL     1      29.417   4.992  46.933  1.00  0.00     0.166 HD
BRANCH  19  21
HETATM   21  P1  UNL     1      30.783   6.207  48.457  1.00  0.00     0.006 P 
HETATM   22  H13 UNL     1      30.686   6.314  49.886  1.00  0.00     0.085 HD
BRANCH  21  23
HETATM   23  C12 UNL     1      32.205   5.140  48.060  1.00  0.00    -0.016 C 
HETATM   24  C13 UNL     1      31.813   4.080  47.333  1.00  0.00     0.013 C 
HETATM   25  C14 UNL     1      32.689   2.975  46.812  1.00  0.00     0.196 C 
HETATM   26  O1  UNL     1      33.822   3.576  46.253  1.00  0.00    -0.384 OA
HETATM   27  C15 UNL     1      34.846   3.648  47.191  1.00  0.00     0.195 C 
HETATM   28  C16 UNL     1      34.670   4.795  48.117  1.00  0.00     0.000 C 
HETATM   29  C17 UNL     1      33.571   5.430  48.490  1.00  0.00     0.011 C 
ENDBRANCH  21  23
ENDBRANCH  19  21
ENDBRANCH   3  19
BRANCH   5  30
HETATM   30  N4  UNL     1      25.324   8.175  48.601  1.00  0.00    -0.231 N 
HETATM   31  H21 UNL     1      25.391   9.080  49.104  1.00  0.00     0.174 HD
HETATM   32  H22 UNL     1      24.569   8.178  47.867  1.00  0.00     0.174 HD
ENDBRANCH   5  30
TORSDOF 6
ENDMDL
MODEL 8
REMARK VINA RESULT:      -7.8      1.888      2.536
REMARK  6 active torsions:
REMARK  status: ('A' for Active; 'I' for Inactive)
REMARK    1  A    between atoms: C2_2  and  C3_3 
REMARK    2  A    between atoms: N1_9  and  C9_10 
REMARK    3  A    between atoms: C11_12  and  N2_13 
REMARK    4  A    between atoms: N2_13  and  P1_14 
REMARK    5  A    between atoms: P1_14  and  C12_15 
REMARK    6  A    between atoms: C18_23  and  N4_24 
ROOT
HETATM    1  C9  UNL     1      25.940   1.412  51.796  1.00  0.00     0.152 A 
HETATM    2  C10 UNL     1      24.720   1.134  52.373  1.00  0.00     0.102 A 
HETATM    3  C11 UNL     1      24.652   0.166  53.386  1.00  0.00     0.149 A 
HETATM    4  N3  UNL     1      25.792  -0.444  53.743  1.00  0.00    -0.045 NA
HETATM    5  C18 UNL     1      26.981  -0.169  53.175  1.00  0.00     0.724 A 
HETATM    6  N5  UNL     1      27.041   0.760  52.205  1.00  0.00    -0.045 NA
ENDROOT
BRANCH   1   7
HETATM    7  N1  UNL     1      25.761   2.407  50.803  1.00  0.00    -0.338 N 
HETATM    8  C8  UNL     1      26.070   2.802  49.457  1.00  0.00     0.157 C 
HETATM    9  C7  UNL     1      27.008   3.920  49.340  1.00  0.00    -0.007 C 
HETATM   10  C6  UNL     1      27.101   5.231  49.037  1.00  0.00    -0.003 C 
HETATM   11  C5  UNL     1      26.192   6.333  48.647  1.00  0.00    -0.004 C 
HETATM   12  C4  UNL     1      24.885   6.505  48.485  1.00  0.00    -0.018 C 
HETATM   13  C3  UNL     1      23.508   6.006  48.518  1.00  0.00     0.033 C 
HETATM   14  C21 UNL     1      23.372   4.572  49.014  1.00  0.00     0.041 C 
HETATM   15  C20 UNL     1      24.069   4.301  50.266  1.00  0.00    -0.008 C 
HETATM   16  C19 UNL     1      24.929   3.590  51.044  1.00  0.00     0.089 C 
BRANCH  13  17
HETATM   17  C2  UNL     1      22.768   6.902  49.509  1.00  0.00    -0.028 C 
HETATM   18  C1  UNL     1      23.196   8.111  49.902  1.00  0.00     0.007 C 
ENDBRANCH  13  17
ENDBRANCH   1   7
BRANCH   3  19
HETATM   19  N2  UNL     1      23.456  -0.200  54.058  1.00  0.00    -0.347 N 
HETATM   20  H12 UNL     1      23.419  -0.136  55.113  1.00  0.00     0.166 HD
BRANCH  19  21
HETATM   21  P1  UNL     1      21.936  -0.780  53.366  1.00  0.00     0.006 P 
HETATM   22  H13 UNL     1      20.990  -0.974  54.430  1.00  0.00     0.085 HD
BRANCH  21  23
HETATM   23  C12 UNL     1      21.238   0.426  52.193  1.00  0.00    -0.016 C 
HETATM   24  C13 UNL     1      20.570   1.390  52.849  1.00  0.00     0.013 C 
HETATM   25  C14 UNL     1      19.855   2.562  52.236  1.00  0.00     0.196 C 
HETATM   26  O1  UNL     1      20.711   3.109  51.273  1.00  0.00    -0.384 OA
HETATM   27  C15 UNL     1      20.439   2.569  50.020  1.00  0.00     0.195 C 
HETATM   28  C16 UNL     1      21.063   1.233  49.845  1.00  0.00     0.000 C 
HETATM   29  C17 UNL     1      21.403   0.326  50.745  1.00  0.00     0.011 C 
ENDBRANCH  21  23
ENDBRANCH  19  21
ENDBRANCH   3  19
BRANCH   5  30
HETATM   30  N4  UNL     1      28.208  -0.800  53.533  1.00  0.00    -0.231 N 
HETATM   31  H21 UNL     1      28.784  -0.747  54.394  1.00  0.00     0.174 HD
HETATM   32  H22 UNL     1      28.625  -1.440  52.808  1.00  0.00     0.174 HD
ENDBRANCH   5  30
TORSDOF 6
ENDMDL
MODEL 9
REMARK VINA RESULT:      -7.7      3.533      6.821
REMARK  6 active torsions:
REMARK  status: ('A' for Active; 'I' for Inactive)
REMARK    1  A    between atoms: C2_2  and  C3_3 
REMARK    2  A    between atoms: N1_9  and  C9_10 
REMARK    3  A    between atoms: C11_12  and  N2_13 
REMARK    4  A    between atoms: N2_13  and  P1_14 
REMARK    5  A    between atoms: P1_14  and  C12_15 
REMARK    6  A    between atoms: C18_23  and  N4_24 
ROOT
HETATM    1  C9  UNL     1      23.258   4.167  51.472  1.00  0.00     0.152 A 
HETATM    2  C10 UNL     1      21.946   4.064  51.064  1.00  0.00     0.102 A 
HETATM    3  C11 UNL     1      21.244   5.230  50.728  1.00  0.00     0.149 A 
HETATM    4  N3  UNL     1      21.896   6.399  50.823  1.00  0.00    -0.045 NA
HETATM    5  C18 UNL     1      23.178   6.494  51.222  1.00  0.00     0.724 A 
HETATM    6  N5  UNL     1      23.846   5.373  51.542  1.00  0.00    -0.045 NA
ENDROOT
BRANCH   1   7
HETATM    7  N1  UNL     1      23.751   2.871  51.762  1.00  0.00    -0.338 N 
HETATM    8  C8  UNL     1      23.575   1.462  51.541  1.00  0.00     0.157 C 
HETATM    9  C7  UNL     1      23.077   0.712  52.696  1.00  0.00    -0.007 C 
HETATM   10  C6  UNL     1      23.434  -0.161  53.659  1.00  0.00    -0.003 C 
HETATM   11  C5  UNL     1      24.661  -0.866  54.098  1.00  0.00    -0.004 C 
HETATM   12  C4  UNL     1      25.944  -0.891  53.757  1.00  0.00    -0.018 C 
HETATM   13  C3  UNL     1      27.065  -0.429  52.936  1.00  0.00     0.033 C 
HETATM   14  C21 UNL     1      26.709   0.677  51.951  1.00  0.00     0.041 C 
HETATM   15  C20 UNL     1      25.982   1.795  52.540  1.00  0.00    -0.008 C 
HETATM   16  C19 UNL     1      24.943   2.672  52.593  1.00  0.00     0.089 C 
BRANCH  13  17
HETATM   17  C2  UNL     1      28.085   0.148  53.917  1.00  0.00    -0.028 C 
HETATM   18  C1  UNL     1      29.362   0.420  53.608  1.00  0.00     0.007 C 
ENDBRANCH  13  17
ENDBRANCH   1   7
BRANCH   3  19
HETATM   19  N2  UNL     1      19.894   5.249  50.290  1.00  0.00    -0.347 N 
HETATM   20  H12 UNL     1      19.273   6.057  50.572  1.00  0.00     0.166 HD
BRANCH  19  21
HETATM   21  P1  UNL     1      19.042   4.064  49.293  1.00  0.00     0.006 P 
HETATM   22  H13 UNL     1      19.891   3.688  48.196  1.00  0.00     0.085 HD
BRANCH  21  23
HETATM   23  C12 UNL     1      18.640   2.563  50.243  1.00  0.00    -0.016 C 
HETATM   24  C13 UNL     1      17.333   2.535  50.551  1.00  0.00     0.013 C 
HETATM   25  C14 UNL     1      16.615   1.464  51.325  1.00  0.00     0.196 C 
HETATM   26  O1  UNL     1      17.039   0.232  50.814  1.00  0.00    -0.384 OA
HETATM   27  C15 UNL     1      18.110  -0.258  51.553  1.00  0.00     0.195 C 
HETATM   28  C16 UNL     1      19.393   0.372  51.152  1.00  0.00     0.000 C 
HETATM   29  C17 UNL     1      19.631   1.552  50.603  1.00  0.00     0.011 C 
ENDBRANCH  21  23
ENDBRANCH  19  21
ENDBRANCH   3  19
BRANCH   5  30
HETATM   30  N4  UNL     1      23.896   7.720  51.332  1.00  0.00    -0.231 N 
HETATM   31  H21 UNL     1      24.898   7.947  51.186  1.00  0.00     0.174 HD
HETATM   32  H22 UNL     1      23.330   8.563  51.613  1.00  0.00     0.174 HD
ENDBRANCH   5  30
TORSDOF 6
ENDMDL
