MODEL 1
REMARK VINA RESULT:      -6.2      0.000      0.000
REMARK  10 active torsions:
REMARK  status: ('A' for Active; 'I' for Inactive)
REMARK    1  A    between atoms: O1_1  and  C1_2 
REMARK    2  A    between atoms: C1_2  and  C2_3 
REMARK    3  A    between atoms: C3_4  and  C4_5 
REMARK    4  A    between atoms: C5_6  and  S1_7 
REMARK    5  A    between atoms: S1_7  and  C6_8 
REMARK    6  A    between atoms: C6_8  and  N1_9 
REMARK    7  A    between atoms: N1_9  and  C7_10 
REMARK    8  A    between atoms: C10_15  and  N4_16 
REMARK    9  A    between atoms: N4_16  and  C11_17 
REMARK   10  A    between atoms: C11_17  and  C12_18 
ROOT
HETATM    1  C7  UNL     1      27.476   0.282  53.463  1.00  0.00     0.103 A 
HETATM    2  C8  UNL     1      28.181   0.198  54.640  1.00  0.00     0.152 A 
HETATM    3  N2  UNL     1      28.991   1.254  54.955  1.00  0.00    -0.252 NA
HETATM    4  C9  UNL     1      29.052   2.309  54.103  1.00  0.00     0.235 A 
HETATM    5  N3  UNL     1      28.338   2.338  52.964  1.00  0.00    -0.222 NA
HETATM    6  C10 UNL     1      27.527   1.337  52.596  1.00  0.00     0.153 A 
ENDROOT
BRANCH   1   7
HETATM    7  N1  UNL     1      26.608  -0.807  53.090  1.00  0.00    -0.311 N 
HETATM    8  H8  UNL     1      26.832  -1.720  52.646  1.00  0.00     0.176 HD
BRANCH   7   9
HETATM    9  C6  UNL     1      25.304  -0.622  53.356  1.00  0.00     0.009 C 
BRANCH   9  10
HETATM   10  S1  UNL     1      23.878  -0.415  53.620  1.00  0.00    -0.041 SA
BRANCH  10  11
HETATM   11  C5  UNL     1      22.199  -0.140  53.931  1.00  0.00     0.059 C 
HETATM   12  C4  UNL     1      21.358  -0.312  52.934  1.00  0.00     0.007 C 
BRANCH  12  13
HETATM   13  C3  UNL     1      19.957  -0.073  53.229  1.00  0.00    -0.001 C 
HETATM   14  C2  UNL     1      18.988  -0.747  52.666  1.00  0.00    -0.001 C 
BRANCH  14  15
HETATM   15  C1  UNL     1      17.529  -0.709  52.779  1.00  0.00     0.191 C 
BRANCH  15  16
HETATM   16  O1  UNL     1      17.163  -1.285  53.997  1.00  0.00    -0.397 OA
HETATM   17  H1  UNL     1      16.367  -0.874  54.407  1.00  0.00     0.209 HD
ENDBRANCH  15  16
ENDBRANCH  14  15
ENDBRANCH  12  13
ENDBRANCH  10  11
ENDBRANCH   9  10
ENDBRANCH   7   9
ENDBRANCH   1   7
BRANCH   6  18
HETATM   18  N4  UNL     1      26.735   1.262  51.431  1.00  0.00    -0.372 N 
HETATM   19  H11 UNL     1      26.558   0.548  50.733  1.00  0.00     0.161 HD
BRANCH  18  20
HETATM   20  C11 UNL     1      26.020   2.483  51.188  1.00  0.00     0.127 C 
BRANCH  20  21
HETATM   21  C12 UNL     1      26.586   3.172  49.984  1.00  0.00     0.026 C 
HETATM   22  C13 UNL     1      26.711   4.251  49.209  1.00  0.00     0.186 C 
HETATM   23 BR1  UNL     1      25.958   5.994  49.342  1.00  0.00    -0.198 Br
ENDBRANCH  20  21
ENDBRANCH  18  20
ENDBRANCH   6  18
TORSDOF 10
ENDMDL
MODEL 2
REMARK VINA RESULT:      -6.0      1.465      1.640
REMARK  10 active torsions:
REMARK  status: ('A' for Active; 'I' for Inactive)
REMARK    1  A    between atoms: O1_1  and  C1_2 
REMARK    2  A    between atoms: C1_2  and  C2_3 
REMARK    3  A    between atoms: C3_4  and  C4_5 
REMARK    4  A    between atoms: C5_6  and  S1_7 
REMARK    5  A    between atoms: S1_7  and  C6_8 
REMARK    6  A    between atoms: C6_8  and  N1_9 
REMARK    7  A    between atoms: N1_9  and  C7_10 
REMARK    8  A    between atoms: C10_15  and  N4_16 
REMARK    9  A    between atoms: N4_16  and  C11_17 
REMARK   10  A    between atoms: C11_17  and  C12_18 
ROOT
HETATM    1  C7  UNL     1      26.504   1.566  53.674  1.00  0.00     0.103 A 
HETATM    2  C8  UNL     1      26.578   0.576  54.625  1.00  0.00     0.152 A 
HETATM    3  N2  UNL     1      27.753  -0.119  54.705  1.00  0.00    -0.252 NA
HETATM    4  C9  UNL     1      28.764   0.202  53.856  1.00  0.00     0.235 A 
HETATM    5  N3  UNL     1      28.634   1.182  52.945  1.00  0.00    -0.222 NA
HETATM    6  C10 UNL     1      27.511   1.900  52.814  1.00  0.00     0.153 A 
ENDROOT
BRANCH   1   7
HETATM    7  N1  UNL     1      25.285   2.326  53.553  1.00  0.00    -0.311 N 
HETATM    8  H8  UNL     1      25.127   3.352  53.606  1.00  0.00     0.176 HD
BRANCH   7   9
HETATM    9  C6  UNL     1      24.173   1.602  53.336  1.00  0.00     0.009 C 
BRANCH   9  10
HETATM   10  S1  UNL     1      22.966   0.802  53.123  1.00  0.00    -0.041 SA
BRANCH  10  11
HETATM   11  C5  UNL     1      21.538  -0.133  52.844  1.00  0.00     0.059 C 
HETATM   12  C4  UNL     1      20.828  -0.491  53.893  1.00  0.00     0.007 C 
BRANCH  12  13
HETATM   13  C3  UNL     1      19.636  -1.274  53.623  1.00  0.00    -0.001 C 
HETATM   14  C2  UNL     1      18.577  -0.777  53.039  1.00  0.00    -0.001 C 
BRANCH  14  15
HETATM   15  C1  UNL     1      17.276  -1.330  52.659  1.00  0.00     0.191 C 
BRANCH  15  16
HETATM   16  O1  UNL     1      16.306  -0.814  53.519  1.00  0.00    -0.397 OA
HETATM   17  H1  UNL     1      15.565  -0.358  53.054  1.00  0.00     0.209 HD
ENDBRANCH  15  16
ENDBRANCH  14  15
ENDBRANCH  12  13
ENDBRANCH  10  11
ENDBRANCH   9  10
ENDBRANCH   7   9
ENDBRANCH   1   7
BRANCH   6  18
HETATM   18  N4  UNL     1      27.267   2.946  51.899  1.00  0.00    -0.372 N 
HETATM   19  H11 UNL     1      27.422   3.948  51.901  1.00  0.00     0.161 HD
BRANCH  18  20
HETATM   20  C11 UNL     1      26.654   2.470  50.690  1.00  0.00     0.127 C 
BRANCH  20  21
HETATM   21  C12 UNL     1      26.298   3.629  49.810  1.00  0.00     0.026 C 
HETATM   22  C13 UNL     1      26.652   4.647  49.023  1.00  0.00     0.186 C 
HETATM   23 BR1  UNL     1      28.360   5.298  48.492  1.00  0.00    -0.198 Br
ENDBRANCH  20  21
ENDBRANCH  18  20
ENDBRANCH   6  18
TORSDOF 10
ENDMDL
MODEL 3
REMARK VINA RESULT:      -5.9      4.993      8.061
REMARK  10 active torsions:
REMARK  status: ('A' for Active; 'I' for Inactive)
REMARK    1  A    between atoms: O1_1  and  C1_2 
REMARK    2  A    between atoms: C1_2  and  C2_3 
REMARK    3  A    between atoms: C3_4  and  C4_5 
REMARK    4  A    between atoms: C5_6  and  S1_7 
REMARK    5  A    between atoms: S1_7  and  C6_8 
REMARK    6  A    between atoms: C6_8  and  N1_9 
REMARK    7  A    between atoms: N1_9  and  C7_10 
REMARK    8  A    between atoms: C10_15  and  N4_16 
REMARK    9  A    between atoms: N4_16  and  C11_17 
REMARK   10  A    between atoms: C11_17  and  C12_18 
ROOT
HETATM    1  C7  UNL     1      27.340   0.822  52.948  1.00  0.00     0.103 A 
HETATM    2  C8  UNL     1      28.295   1.805  53.067  1.00  0.00     0.152 A 
HETATM    3  N2  UNL     1      29.070   1.783  54.193  1.00  0.00    -0.252 NA
HETATM    4  C9  UNL     1      28.858   0.808  55.115  1.00  0.00     0.235 A 
HETATM    5  N3  UNL     1      27.909  -0.128  54.945  1.00  0.00    -0.222 NA
HETATM    6  C10 UNL     1      27.116  -0.164  53.867  1.00  0.00     0.153 A 
ENDROOT
BRANCH   1   7
HETATM    7  N1  UNL     1      26.500   0.805  51.777  1.00  0.00    -0.311 N 
HETATM    8  H8  UNL     1      25.909   0.043  51.387  1.00  0.00     0.176 HD
BRANCH   7   9
HETATM    9  C6  UNL     1      26.468   1.950  51.073  1.00  0.00     0.009 C 
BRANCH   9  10
HETATM   10  S1  UNL     1      26.461   3.198  50.307  1.00  0.00    -0.041 SA
BRANCH  10  11
HETATM   11  C5  UNL     1      26.482   4.674  49.407  1.00  0.00     0.059 C 
HETATM   12  C4  UNL     1      27.619   5.031  48.848  1.00  0.00     0.007 C 
BRANCH  12  13
HETATM   13  C3  UNL     1      27.603   6.275  48.100  1.00  0.00    -0.001 C 
HETATM   14  C2  UNL     1      28.676   6.791  47.558  1.00  0.00    -0.001 C 
BRANCH  14  15
HETATM   15  C1  UNL     1      28.932   8.000  46.774  1.00  0.00     0.191 C 
BRANCH  15  16
HETATM   16  O1  UNL     1      29.839   8.799  47.472  1.00  0.00    -0.397 OA
HETATM   17  H1  UNL     1      30.485   8.287  48.012  1.00  0.00     0.209 HD
ENDBRANCH  15  16
ENDBRANCH  14  15
ENDBRANCH  12  13
ENDBRANCH  10  11
ENDBRANCH   9  10
ENDBRANCH   7   9
ENDBRANCH   1   7
BRANCH   6  18
HETATM   18  N4  UNL     1      26.094  -1.095  53.586  1.00  0.00    -0.372 N 
HETATM   19  H11 UNL     1      25.978  -1.846  52.915  1.00  0.00     0.161 HD
BRANCH  18  20
HETATM   20  C11 UNL     1      24.963  -0.931  54.456  1.00  0.00     0.127 C 
BRANCH  20  21
HETATM   21  C12 UNL     1      23.768  -0.505  53.660  1.00  0.00     0.026 C 
HETATM   22  C13 UNL     1      22.455  -0.537  53.419  1.00  0.00     0.186 C 
HETATM   23 BR1  UNL     1      21.036  -1.465  54.283  1.00  0.00    -0.198 Br
ENDBRANCH  20  21
ENDBRANCH  18  20
ENDBRANCH   6  18
TORSDOF 10
ENDMDL
MODEL 4
REMARK VINA RESULT:      -5.9      6.264      9.918
REMARK  10 active torsions:
REMARK  status: ('A' for Active; 'I' for Inactive)
REMARK    1  A    between atoms: O1_1  and  C1_2 
REMARK    2  A    between atoms: C1_2  and  C2_3 
REMARK    3  A    between atoms: C3_4  and  C4_5 
REMARK    4  A    between atoms: C5_6  and  S1_7 
REMARK    5  A    between atoms: S1_7  and  C6_8 
REMARK    6  A    between atoms: C6_8  and  N1_9 
REMARK    7  A    between atoms: N1_9  and  C7_10 
REMARK    8  A    between atoms: C10_15  and  N4_16 
REMARK    9  A    between atoms: N4_16  and  C11_17 
REMARK   10  A    between atoms: C11_17  and  C12_18 
ROOT
HETATM    1  C7  UNL     1      19.229  -0.308  52.960  1.00  0.00     0.103 A 
HETATM    2  C8  UNL     1      19.841   0.476  52.010  1.00  0.00     0.152 A 
HETATM    3  N2  UNL     1      19.162   0.673  50.839  1.00  0.00    -0.252 NA
HETATM    4  C9  UNL     1      17.944   0.095  50.683  1.00  0.00     0.235 A 
HETATM    5  N3  UNL     1      17.394  -0.663  51.647  1.00  0.00    -0.222 NA
HETATM    6  C10 UNL     1      18.005  -0.896  52.816  1.00  0.00     0.153 A 
ENDROOT
BRANCH   1   7
HETATM    7  N1  UNL     1      19.906  -0.543  54.211  1.00  0.00    -0.311 N 
HETATM    8  H8  UNL     1      19.520  -0.697  55.163  1.00  0.00     0.176 HD
BRANCH   7   9
HETATM    9  C6  UNL     1      21.248  -0.569  54.144  1.00  0.00     0.009 C 
BRANCH   9  10
HETATM   10  S1  UNL     1      22.711  -0.612  54.095  1.00  0.00    -0.041 SA
BRANCH  10  11
HETATM   11  C5  UNL     1      24.440  -0.654  54.066  1.00  0.00     0.059 C 
HETATM   12  C4  UNL     1      25.044  -0.178  52.997  1.00  0.00     0.007 C 
BRANCH  12  13
HETATM   13  C3  UNL     1      26.494  -0.228  53.005  1.00  0.00    -0.001 C 
HETATM   14  C2  UNL     1      27.210   0.081  54.056  1.00  0.00    -0.001 C 
BRANCH  14  15
HETATM   15  C1  UNL     1      28.647   0.115  54.328  1.00  0.00     0.191 C 
BRANCH  15  16
HETATM   16  O1  UNL     1      28.913   1.190  55.177  1.00  0.00    -0.397 OA
HETATM   17  H1  UNL     1      28.525   1.090  56.078  1.00  0.00     0.209 HD
ENDBRANCH  15  16
ENDBRANCH  14  15
ENDBRANCH  12  13
ENDBRANCH  10  11
ENDBRANCH   9  10
ENDBRANCH   7   9
ENDBRANCH   1   7
BRANCH   6  18
HETATM   18  N4  UNL     1      17.523  -1.670  53.894  1.00  0.00    -0.372 N 
HETATM   19  H11 UNL     1      17.038  -1.464  54.760  1.00  0.00     0.161 HD
BRANCH  18  20
HETATM   20  C11 UNL     1      17.789  -3.069  53.711  1.00  0.00     0.127 C 
BRANCH  20  21
HETATM   21  C12 UNL     1      16.538  -3.772  53.282  1.00  0.00     0.026 C 
HETATM   22  C13 UNL     1      15.590  -4.691  53.479  1.00  0.00     0.186 C 
HETATM   23 BR1  UNL     1      15.327  -5.952  54.880  1.00  0.00    -0.198 Br
ENDBRANCH  20  21
ENDBRANCH  18  20
ENDBRANCH   6  18
TORSDOF 10
ENDMDL
MODEL 5
REMARK VINA RESULT:      -5.9      4.779      8.033
REMARK  10 active torsions:
REMARK  status: ('A' for Active; 'I' for Inactive)
REMARK    1  A    between atoms: O1_1  and  C1_2 
REMARK    2  A    between atoms: C1_2  and  C2_3 
REMARK    3  A    between atoms: C3_4  and  C4_5 
REMARK    4  A    between atoms: C5_6  and  S1_7 
REMARK    5  A    between atoms: S1_7  and  C6_8 
REMARK    6  A    between atoms: C6_8  and  N1_9 
REMARK    7  A    between atoms: N1_9  and  C7_10 
REMARK    8  A    between atoms: C10_15  and  N4_16 
REMARK    9  A    between atoms: N4_16  and  C11_17 
REMARK   10  A    between atoms: C11_17  and  C12_18 
ROOT
HETATM    1  C7  UNL     1      24.967   0.971  53.265  1.00  0.00     0.103 A 
HETATM    2  C8  UNL     1      26.064   1.737  53.581  1.00  0.00     0.152 A 
HETATM    3  N2  UNL     1      26.895   1.256  54.555  1.00  0.00    -0.252 NA
HETATM    4  C9  UNL     1      26.596   0.071  55.145  1.00  0.00     0.235 A 
HETATM    5  N3  UNL     1      25.507  -0.636  54.795  1.00  0.00    -0.222 NA
HETATM    6  C10 UNL     1      24.653  -0.223  53.850  1.00  0.00     0.153 A 
ENDROOT
BRANCH   1   7
HETATM    7  N1  UNL     1      24.063   1.436  52.243  1.00  0.00    -0.311 N 
HETATM    8  H8  UNL     1      23.069   1.189  52.064  1.00  0.00     0.176 HD
BRANCH   7   9
HETATM    9  C6  UNL     1      24.577   2.332  51.382  1.00  0.00     0.009 C 
BRANCH   9  10
HETATM   10  S1  UNL     1      25.114   3.322  50.448  1.00  0.00    -0.041 SA
BRANCH  10  11
HETATM   11  C5  UNL     1      25.753   4.512  49.367  1.00  0.00     0.059 C 
HETATM   12  C4  UNL     1      27.061   4.651  49.317  1.00  0.00     0.007 C 
BRANCH  12  13
HETATM   13  C3  UNL     1      27.564   5.658  48.400  1.00  0.00    -0.001 C 
HETATM   14  C2  UNL     1      28.840   5.853  48.191  1.00  0.00    -0.001 C 
BRANCH  14  15
HETATM   15  C1  UNL     1      29.598   6.776  47.344  1.00  0.00     0.191 C 
BRANCH  15  16
HETATM   16  O1  UNL     1      30.733   7.190  48.042  1.00  0.00    -0.397 OA
HETATM   17  H1  UNL     1      30.560   7.407  48.988  1.00  0.00     0.209 HD
ENDBRANCH  15  16
ENDBRANCH  14  15
ENDBRANCH  12  13
ENDBRANCH  10  11
ENDBRANCH   9  10
ENDBRANCH   7   9
ENDBRANCH   1   7
BRANCH   6  18
HETATM   18  N4  UNL     1      23.487  -0.881  53.404  1.00  0.00    -0.372 N 
HETATM   19  H11 UNL     1      23.156  -1.218  52.507  1.00  0.00     0.161 HD
BRANCH  18  20
HETATM   20  C11 UNL     1      22.563  -1.121  54.477  1.00  0.00     0.127 C 
BRANCH  20  21
HETATM   21  C12 UNL     1      21.369  -0.230  54.327  1.00  0.00     0.026 C 
HETATM   22  C13 UNL     1      20.479   0.410  53.565  1.00  0.00     0.186 C 
HETATM   23 BR1  UNL     1      20.271   0.503  51.676  1.00  0.00    -0.198 Br
ENDBRANCH  20  21
ENDBRANCH  18  20
ENDBRANCH   6  18
TORSDOF 10
ENDMDL
MODEL 6
REMARK VINA RESULT:      -5.8      3.989      5.027
REMARK  10 active torsions:
REMARK  status: ('A' for Active; 'I' for Inactive)
REMARK    1  A    between atoms: O1_1  and  C1_2 
REMARK    2  A    between atoms: C1_2  and  C2_3 
REMARK    3  A    between atoms: C3_4  and  C4_5 
REMARK    4  A    between atoms: C5_6  and  S1_7 
REMARK    5  A    between atoms: S1_7  and  C6_8 
REMARK    6  A    between atoms: C6_8  and  N1_9 
REMARK    7  A    between atoms: N1_9  and  C7_10 
REMARK    8  A    between atoms: C10_15  and  N4_16 
REMARK    9  A    between atoms: N4_16  and  C11_17 
REMARK   10  A    between atoms: C11_17  and  C12_18 
ROOT
HETATM    1  C7  UNL     1      27.212   1.599  53.969  1.00  0.00     0.103 A 
HETATM    2  C8  UNL     1      28.332   1.990  53.273  1.00  0.00     0.152 A 
HETATM    3  N2  UNL     1      29.392   1.127  53.270  1.00  0.00    -0.252 NA
HETATM    4  C9  UNL     1      29.284  -0.047  53.943  1.00  0.00     0.235 A 
HETATM    5  N3  UNL     1      28.163  -0.377  54.608  1.00  0.00    -0.222 NA
HETATM    6  C10 UNL     1      27.088   0.421  54.651  1.00  0.00     0.153 A 
ENDROOT
BRANCH   1   7
HETATM    7  N1  UNL     1      26.068   2.475  53.999  1.00  0.00    -0.311 N 
HETATM    8  H8  UNL     1      25.733   3.115  54.747  1.00  0.00     0.176 HD
BRANCH   7   9
HETATM    9  C6  UNL     1      25.310   2.472  52.889  1.00  0.00     0.009 C 
BRANCH   9  10
HETATM   10  S1  UNL     1      24.466   2.485  51.693  1.00  0.00    -0.041 SA
BRANCH  10  11
HETATM   11  C5  UNL     1      23.494   2.511  50.262  1.00  0.00     0.059 C 
HETATM   12  C4  UNL     1      22.509   1.642  50.179  1.00  0.00     0.007 C 
BRANCH  12  13
HETATM   13  C3  UNL     1      21.713   1.690  48.966  1.00  0.00    -0.001 C 
HETATM   14  C2  UNL     1      21.090   2.770  48.569  1.00  0.00    -0.001 C 
BRANCH  14  15
HETATM   15  C1  UNL     1      20.242   3.084  47.418  1.00  0.00     0.191 C 
BRANCH  15  16
HETATM   16  O1  UNL     1      19.037   2.392  47.552  1.00  0.00    -0.397 OA
HETATM   17  H1  UNL     1      19.145   1.462  47.861  1.00  0.00     0.209 HD
ENDBRANCH  15  16
ENDBRANCH  14  15
ENDBRANCH  12  13
ENDBRANCH  10  11
ENDBRANCH   9  10
ENDBRANCH   7   9
ENDBRANCH   1   7
BRANCH   6  18
HETATM   18  N4  UNL     1      25.866   0.177  55.312  1.00  0.00    -0.372 N 
HETATM   19  H11 UNL     1      25.355   0.633  56.059  1.00  0.00     0.161 HD
BRANCH  18  20
HETATM   20  C11 UNL     1      25.203  -0.990  54.801  1.00  0.00     0.127 C 
BRANCH  20  21
HETATM   21  C12 UNL     1      24.086  -0.582  53.891  1.00  0.00     0.026 C 
HETATM   22  C13 UNL     1      22.796  -0.599  53.548  1.00  0.00     0.186 C 
HETATM   23 BR1  UNL     1      21.290  -1.450  54.341  1.00  0.00    -0.198 Br
ENDBRANCH  20  21
ENDBRANCH  18  20
ENDBRANCH   6  18
TORSDOF 10
ENDMDL
MODEL 7
REMARK VINA RESULT:      -5.8      4.824      6.683
REMARK  10 active torsions:
REMARK  status: ('A' for Active; 'I' for Inactive)
REMARK    1  A    between atoms: O1_1  and  C1_2 
REMARK    2  A    between atoms: C1_2  and  C2_3 
REMARK    3  A    between atoms: C3_4  and  C4_5 
REMARK    4  A    between atoms: C5_6  and  S1_7 
REMARK    5  A    between atoms: S1_7  and  C6_8 
REMARK    6  A    between atoms: C6_8  and  N1_9 
REMARK    7  A    between atoms: N1_9  and  C7_10 
REMARK    8  A    between atoms: C10_15  and  N4_16 
REMARK    9  A    between atoms: N4_16  and  C11_17 
REMARK   10  A    between atoms: C11_17  and  C12_18 
ROOT
HETATM    1  C7  UNL     1      24.013   7.558  50.834  1.00  0.00     0.103 A 
HETATM    2  C8  UNL     1      22.679   7.612  50.508  1.00  0.00     0.152 A 
HETATM    3  N2  UNL     1      22.345   8.308  49.379  1.00  0.00    -0.252 NA
HETATM    4  C9  UNL     1      23.332   8.897  48.656  1.00  0.00     0.235 A 
HETATM    5  N3  UNL     1      24.623   8.811  49.024  1.00  0.00    -0.222 NA
HETATM    6  C10 UNL     1      25.017   8.145  50.118  1.00  0.00     0.153 A 
ENDROOT
BRANCH   1   7
HETATM    7  N1  UNL     1      24.413   6.835  52.015  1.00  0.00    -0.311 N 
HETATM    8  H8  UNL     1      25.008   7.132  52.815  1.00  0.00     0.176 HD
BRANCH   7   9
HETATM    9  C6  UNL     1      23.948   5.577  52.106  1.00  0.00     0.009 C 
BRANCH   9  10
HETATM   10  S1  UNL     1      23.462   4.198  52.189  1.00  0.00    -0.041 SA
BRANCH  10  11
HETATM   11  C5  UNL     1      22.916   2.559  52.280  1.00  0.00     0.059 C 
HETATM   12  C4  UNL     1      23.758   1.661  52.745  1.00  0.00     0.007 C 
BRANCH  12  13
HETATM   13  C3  UNL     1      23.269   0.296  52.808  1.00  0.00    -0.001 C 
HETATM   14  C2  UNL     1      22.433  -0.117  53.726  1.00  0.00    -0.001 C 
BRANCH  14  15
HETATM   15  C1  UNL     1      21.799  -1.404  54.013  1.00  0.00     0.191 C 
BRANCH  15  16
HETATM   16  O1  UNL     1      20.566  -1.166  54.621  1.00  0.00    -0.397 OA
HETATM   17  H1  UNL     1      20.000  -1.969  54.700  1.00  0.00     0.209 HD
ENDBRANCH  15  16
ENDBRANCH  14  15
ENDBRANCH  12  13
ENDBRANCH  10  11
ENDBRANCH   9  10
ENDBRANCH   7   9
ENDBRANCH   1   7
BRANCH   6  18
HETATM   18  N4  UNL     1      26.336   7.990  50.595  1.00  0.00    -0.372 N 
HETATM   19  H11 UNL     1      26.829   7.267  51.106  1.00  0.00     0.161 HD
BRANCH  18  20
HETATM   20  C11 UNL     1      27.158   9.124  50.280  1.00  0.00     0.127 C 
BRANCH  20  21
HETATM   21  C12 UNL     1      28.180   8.741  49.254  1.00  0.00     0.026 C 
HETATM   22  C13 UNL     1      28.772   7.826  48.482  1.00  0.00     0.186 C 
HETATM   23 BR1  UNL     1      28.469   5.958  48.281  1.00  0.00    -0.198 Br
ENDBRANCH  20  21
ENDBRANCH  18  20
ENDBRANCH   6  18
TORSDOF 10
ENDMDL
MODEL 8
REMARK VINA RESULT:      -5.6      4.151      5.746
REMARK  10 active torsions:
REMARK  status: ('A' for Active; 'I' for Inactive)
REMARK    1  A    between atoms: O1_1  and  C1_2 
REMARK    2  A    between atoms: C1_2  and  C2_3 
REMARK    3  A    between atoms: C3_4  and  C4_5 
REMARK    4  A    between atoms: C5_6  and  S1_7 
REMARK    5  A    between atoms: S1_7  and  C6_8 
REMARK    6  A    between atoms: C6_8  and  N1_9 
REMARK    7  A    between atoms: N1_9  and  C7_10 
REMARK    8  A    between atoms: C10_15  and  N4_16 
REMARK    9  A    between atoms: N4_16  and  C11_17 
REMARK   10  A    between atoms: C11_17  and  C12_18 
ROOT
HETATM    1  C7  UNL     1      27.528   1.285  53.978  1.00  0.00     0.103 A 
HETATM    2  C8  UNL     1      28.783   1.718  53.618  1.00  0.00     0.152 A 
HETATM    3  N2  UNL     1      29.779   0.782  53.598  1.00  0.00    -0.252 NA
HETATM    4  C9  UNL     1      29.481  -0.500  53.928  1.00  0.00     0.235 A 
HETATM    5  N3  UNL     1      28.234  -0.868  54.273  1.00  0.00    -0.222 NA
HETATM    6  C10 UNL     1      27.213  -0.002  54.313  1.00  0.00     0.153 A 
ENDROOT
BRANCH   1   7
HETATM    7  N1  UNL     1      26.445   2.235  54.012  1.00  0.00    -0.311 N 
HETATM    8  H8  UNL     1      26.013   2.730  54.818  1.00  0.00     0.176 HD
BRANCH   7   9
HETATM    9  C6  UNL     1      25.904   2.536  52.819  1.00  0.00     0.009 C 
BRANCH   9  10
HETATM   10  S1  UNL     1      25.310   2.837  51.515  1.00  0.00    -0.041 SA
BRANCH  10  11
HETATM   11  C5  UNL     1      24.601   3.162  49.972  1.00  0.00     0.059 C 
HETATM   12  C4  UNL     1      23.379   2.722  49.757  1.00  0.00     0.007 C 
BRANCH  12  13
HETATM   13  C3  UNL     1      22.814   3.012  48.452  1.00  0.00    -0.001 C 
HETATM   14  C2  UNL     1      22.628   4.231  48.014  1.00  0.00    -0.001 C 
BRANCH  14  15
HETATM   15  C1  UNL     1      22.090   4.789  46.772  1.00  0.00     0.191 C 
BRANCH  15  16
HETATM   16  O1  UNL     1      21.685   6.102  47.015  1.00  0.00    -0.397 OA
HETATM   17  H1  UNL     1      22.311   6.781  46.670  1.00  0.00     0.209 HD
ENDBRANCH  15  16
ENDBRANCH  14  15
ENDBRANCH  12  13
ENDBRANCH  10  11
ENDBRANCH   9  10
ENDBRANCH   7   9
ENDBRANCH   1   7
BRANCH   6  18
HETATM   18  N4  UNL     1      25.872  -0.275  54.657  1.00  0.00    -0.372 N 
HETATM   19  H11 UNL     1      25.288  -0.079  55.462  1.00  0.00     0.161 HD
BRANCH  18  20
HETATM   20  C11 UNL     1      25.190  -1.001  53.623  1.00  0.00     0.127 C 
BRANCH  20  21
HETATM   21  C12 UNL     1      23.862  -0.365  53.348  1.00  0.00     0.026 C 
HETATM   22  C13 UNL     1      22.535  -0.329  53.487  1.00  0.00     0.186 C 
HETATM   23 BR1  UNL     1      21.332  -1.474  54.418  1.00  0.00    -0.198 Br
ENDBRANCH  20  21
ENDBRANCH  18  20
ENDBRANCH   6  18
TORSDOF 10
ENDMDL
MODEL 9
REMARK VINA RESULT:      -5.6      1.995      2.704
REMARK  10 active torsions:
REMARK  status: ('A' for Active; 'I' for Inactive)
REMARK    1  A    between atoms: O1_1  and  C1_2 
REMARK    2  A    between atoms: C1_2  and  C2_3 
REMARK    3  A    between atoms: C3_4  and  C4_5 
REMARK    4  A    between atoms: C5_6  and  S1_7 
REMARK    5  A    between atoms: S1_7  and  C6_8 
REMARK    6  A    between atoms: C6_8  and  N1_9 
REMARK    7  A    between atoms: N1_9  and  C7_10 
REMARK    8  A    between atoms: C10_15  and  N4_16 
REMARK    9  A    between atoms: N4_16  and  C11_17 
REMARK   10  A    between atoms: C11_17  and  C12_18 
ROOT
HETATM    1  C7  UNL     1      25.184   1.684  52.744  1.00  0.00     0.103 A 
HETATM    2  C8  UNL     1      25.004   0.519  53.452  1.00  0.00     0.152 A 
HETATM    3  N2  UNL     1      26.034  -0.379  53.438  1.00  0.00    -0.252 NA
HETATM    4  C9  UNL     1      27.159  -0.077  52.740  1.00  0.00     0.235 A 
HETATM    5  N3  UNL     1      27.280   1.080  52.066  1.00  0.00    -0.222 NA
HETATM    6  C10 UNL     1      26.309   2.002  52.037  1.00  0.00     0.153 A 
ENDROOT
BRANCH   1   7
HETATM    7  N1  UNL     1      24.126   2.663  52.730  1.00  0.00    -0.311 N 
HETATM    8  H8  UNL     1      24.170   3.700  52.785  1.00  0.00     0.176 HD
BRANCH   7   9
HETATM    9  C6  UNL     1      22.881   2.164  52.629  1.00  0.00     0.009 C 
BRANCH   9  10
HETATM   10  S1  UNL     1      21.523   1.634  52.495  1.00  0.00    -0.041 SA
BRANCH  10  11
HETATM   11  C5  UNL     1      19.920   1.011  52.307  1.00  0.00     0.059 C 
HETATM   12  C4  UNL     1      19.620   0.440  51.160  1.00  0.00     0.007 C 
BRANCH  12  13
HETATM   13  C3  UNL     1      18.267  -0.072  51.034  1.00  0.00    -0.001 C 
HETATM   14  C2  UNL     1      17.471  -0.235  52.060  1.00  0.00    -0.001 C 
BRANCH  14  15
HETATM   15  C1  UNL     1      16.099  -0.720  52.210  1.00  0.00     0.191 C 
BRANCH  15  16
HETATM   16  O1  UNL     1      15.672  -0.450  53.510  1.00  0.00    -0.397 OA
HETATM   17  H1  UNL     1      15.173  -1.191  53.927  1.00  0.00     0.209 HD
ENDBRANCH  15  16
ENDBRANCH  14  15
ENDBRANCH  12  13
ENDBRANCH  10  11
ENDBRANCH   9  10
ENDBRANCH   7   9
ENDBRANCH   1   7
BRANCH   6  18
HETATM   18  N4  UNL     1      26.328   3.244  51.368  1.00  0.00    -0.372 N 
HETATM   19  H11 UNL     1      26.251   4.212  51.657  1.00  0.00     0.161 HD
BRANCH  18  20
HETATM   20  C11 UNL     1      26.496   3.087  49.950  1.00  0.00     0.127 C 
BRANCH  20  21
HETATM   21  C12 UNL     1      26.510   4.431  49.288  1.00  0.00     0.026 C 
HETATM   22  C13 UNL     1      27.163   5.425  48.682  1.00  0.00     0.186 C 
HETATM   23 BR1  UNL     1      29.001   5.645  48.242  1.00  0.00    -0.198 Br
ENDBRANCH  20  21
ENDBRANCH  18  20
ENDBRANCH   6  18
TORSDOF 10
ENDMDL
