MODEL 1
REMARK VINA RESULT:      -9.8      0.000      0.000
REMARK  5 active torsions:
REMARK  status: ('A' for Active; 'I' for Inactive)
REMARK    1  A    between atoms: C5_5  and  C6_6 
REMARK    2  A    between atoms: C6_6  and  C7_8 
REMARK    3  A    between atoms: C14_15  and  N1_16 
REMARK    4  A    between atoms: N1_16  and  C15_17 
REMARK    5  A    between atoms: C18_21  and  C19_22 
ROOT
HETATM    1  C1  UNL     1      20.781   0.731  51.506  1.00  0.00     0.050 C 
HETATM    2  C2  UNL     1      22.061   0.439  52.192  1.00  0.00    -0.035 A 
HETATM    3  C3  UNL     1      22.092  -0.464  53.199  1.00  0.00     0.010 A 
HETATM    4  C4  UNL     1      23.307  -0.731  53.840  1.00  0.00     0.016 A 
HETATM    5  C5  UNL     1      24.508  -0.104  53.490  1.00  0.00     0.017 A 
HETATM    6  C13 UNL     1      24.344   0.784  52.458  1.00  0.00     0.046 A 
HETATM    7  C14 UNL     1      23.205   1.116  51.768  1.00  0.00     0.056 A 
ENDROOT
BRANCH   7   8
HETATM    8  N1  UNL     1      23.172   2.076  50.732  1.00  0.00    -0.188 N 
HETATM    9  H12 UNL     1      22.821   1.668  49.809  1.00  0.00     0.184 HD
BRANCH   8  10
HETATM   10  C15 UNL     1      23.511   3.456  50.683  1.00  0.00     0.727 A 
HETATM   11  N2  UNL     1      22.646   4.364  51.228  1.00  0.00    -0.075 NA
HETATM   12  C16 UNL     1      22.908   5.673  51.190  1.00  0.00     0.139 A 
HETATM   13  C17 UNL     1      24.072   6.075  50.584  1.00  0.00     0.053 A 
HETATM   14  C18 UNL     1      24.965   5.199  50.026  1.00  0.00     0.089 A 
HETATM   15  N4  UNL     1      24.633   3.908  50.104  1.00  0.00    -0.062 NA
BRANCH  14  16
HETATM   16  C19 UNL     1      26.179   5.631  49.361  1.00  0.00     0.011 A 
HETATM   17  C20 UNL     1      27.144   4.692  48.978  1.00  0.00     0.017 A 
HETATM   18  C21 UNL     1      28.275   5.213  48.346  1.00  0.00     0.020 A 
HETATM   19  C22 UNL     1      28.536   6.548  48.063  1.00  0.00     0.116 A 
HETATM   20  N3  UNL     1      27.561   7.431  48.459  1.00  0.00    -0.272 NA
HETATM   21  C23 UNL     1      26.466   6.936  49.069  1.00  0.00     0.130 A 
ENDBRANCH  14  16
ENDBRANCH   8  10
ENDBRANCH   7   8
BRANCH   5  22
HETATM   22  C6  UNL     1      25.692  -0.465  54.238  1.00  0.00     0.192 C 
HETATM   23  O1  UNL     1      25.286  -1.064  55.302  1.00  0.00    -0.287 OA
BRANCH  22  24
HETATM   24  C7  UNL     1      27.112  -0.296  54.049  1.00  0.00     0.015 A 
HETATM   25  C8  UNL     1      27.984   0.691  54.411  1.00  0.00     0.015 A 
HETATM   26  C9  UNL     1      29.341   0.744  54.201  1.00  0.00     0.001 A 
HETATM   27  C10 UNL     1      29.865  -0.355  53.538  1.00  0.00     0.000 A 
HETATM   28  C11 UNL     1      29.089  -1.406  53.124  1.00  0.00     0.001 A 
HETATM   29  C12 UNL     1      27.756  -1.350  53.386  1.00  0.00     0.015 A 
ENDBRANCH  22  24
ENDBRANCH   5  22
TORSDOF 5
ENDMDL
MODEL 2
REMARK VINA RESULT:      -9.6      2.679      6.934
REMARK  5 active torsions:
REMARK  status: ('A' for Active; 'I' for Inactive)
REMARK    1  A    between atoms: C5_5  and  C6_6 
REMARK    2  A    between atoms: C6_6  and  C7_8 
REMARK    3  A    between atoms: C14_15  and  N1_16 
REMARK    4  A    between atoms: N1_16  and  C15_17 
REMARK    5  A    between atoms: C18_21  and  C19_22 
ROOT
HETATM    1  C1  UNL     1      21.339   0.838  49.463  1.00  0.00     0.050 C 
HETATM    2  C2  UNL     1      22.276   1.979  49.587  1.00  0.00    -0.035 A 
HETATM    3  C3  UNL     1      22.714   2.612  48.474  1.00  0.00     0.010 A 
HETATM    4  C4  UNL     1      23.600   3.688  48.604  1.00  0.00     0.016 A 
HETATM    5  C5  UNL     1      24.063   4.150  49.841  1.00  0.00     0.017 A 
HETATM    6  C13 UNL     1      23.545   3.429  50.887  1.00  0.00     0.046 A 
HETATM    7  C14 UNL     1      22.678   2.366  50.866  1.00  0.00     0.056 A 
ENDROOT
BRANCH   7   8
HETATM    8  N1  UNL     1      22.241   1.694  52.029  1.00  0.00    -0.188 N 
HETATM    9  H12 UNL     1      21.238   1.949  52.295  1.00  0.00     0.184 HD
BRANCH   8  10
HETATM   10  C15 UNL     1      22.868   0.758  52.898  1.00  0.00     0.727 A 
HETATM   11  N2  UNL     1      22.081  -0.046  53.674  1.00  0.00    -0.075 NA
HETATM   12  C16 UNL     1      22.620  -0.927  54.521  1.00  0.00     0.139 A 
HETATM   13  C17 UNL     1      23.989  -0.996  54.585  1.00  0.00     0.053 A 
HETATM   14  C18 UNL     1      24.814  -0.209  53.826  1.00  0.00     0.089 A 
HETATM   15  N4  UNL     1      24.200   0.646  53.004  1.00  0.00    -0.062 NA
BRANCH  14  16
HETATM   16  C19 UNL     1      26.260  -0.265  53.920  1.00  0.00     0.011 A 
HETATM   17  C20 UNL     1      26.992  -1.059  53.030  1.00  0.00     0.017 A 
HETATM   18  C21 UNL     1      28.378  -1.042  53.207  1.00  0.00     0.020 A 
HETATM   19  C22 UNL     1      29.092  -0.329  54.161  1.00  0.00     0.116 A 
HETATM   20  N3  UNL     1      28.329   0.434  55.012  1.00  0.00    -0.272 NA
HETATM   21  C23 UNL     1      26.992   0.424  54.848  1.00  0.00     0.130 A 
ENDBRANCH  14  16
ENDBRANCH   8  10
ENDBRANCH   7   8
BRANCH   5  22
HETATM   22  C6  UNL     1      24.982   5.267  49.835  1.00  0.00     0.192 C 
HETATM   23  O1  UNL     1      24.463   6.174  50.586  1.00  0.00    -0.287 OA
BRANCH  22  24
HETATM   24  C7  UNL     1      26.249   5.544  49.204  1.00  0.00     0.015 A 
HETATM   25  C8  UNL     1      27.350   4.774  48.957  1.00  0.00     0.015 A 
HETATM   26  C9  UNL     1      28.512   5.134  48.317  1.00  0.00     0.001 A 
HETATM   27  C10 UNL     1      28.545   6.448  47.878  1.00  0.00     0.000 A 
HETATM   28  C11 UNL     1      27.501   7.316  48.069  1.00  0.00     0.001 A 
HETATM   29  C12 UNL     1      26.400   6.849  48.716  1.00  0.00     0.015 A 
ENDBRANCH  22  24
ENDBRANCH   5  22
TORSDOF 5
ENDMDL
MODEL 3
REMARK VINA RESULT:      -9.6      3.751      7.903
REMARK  5 active torsions:
REMARK  status: ('A' for Active; 'I' for Inactive)
REMARK    1  A    between atoms: C5_5  and  C6_6 
REMARK    2  A    between atoms: C6_6  and  C7_8 
REMARK    3  A    between atoms: C14_15  and  N1_16 
REMARK    4  A    between atoms: N1_16  and  C15_17 
REMARK    5  A    between atoms: C18_21  and  C19_22 
ROOT
HETATM    1  C1  UNL     1      25.130   6.553  48.722  1.00  0.00     0.050 C 
HETATM    2  C2  UNL     1      26.581   6.330  48.526  1.00  0.00    -0.035 A 
HETATM    3  C3  UNL     1      27.372   7.357  48.137  1.00  0.00     0.010 A 
HETATM    4  C4  UNL     1      28.741   7.133  47.955  1.00  0.00     0.016 A 
HETATM    5  C5  UNL     1      29.344   5.886  48.156  1.00  0.00     0.017 A 
HETATM    6  C13 UNL     1      28.439   4.934  48.548  1.00  0.00     0.046 A 
HETATM    7  C14 UNL     1      27.087   5.050  48.754  1.00  0.00     0.056 A 
ENDROOT
BRANCH   7   8
HETATM    8  N1  UNL     1      26.261   3.970  49.137  1.00  0.00    -0.188 N 
HETATM    9  H12 UNL     1      25.753   3.531  48.306  1.00  0.00     0.184 HD
BRANCH   8  10
HETATM   10  C15 UNL     1      25.982   3.365  50.393  1.00  0.00     0.727 A 
HETATM   11  N2  UNL     1      24.840   3.721  51.054  1.00  0.00    -0.075 NA
HETATM   12  C16 UNL     1      24.541   3.197  52.246  1.00  0.00     0.139 A 
HETATM   13  C17 UNL     1      25.420   2.291  52.784  1.00  0.00     0.053 A 
HETATM   14  C18 UNL     1      26.575   1.907  52.156  1.00  0.00     0.089 A 
HETATM   15  N4  UNL     1      26.804   2.475  50.969  1.00  0.00    -0.062 NA
BRANCH  14  16
HETATM   16  C19 UNL     1      27.516   0.972  52.742  1.00  0.00     0.011 A 
HETATM   17  C20 UNL     1      28.698   1.438  53.330  1.00  0.00     0.017 A 
HETATM   18  C21 UNL     1      29.534   0.454  53.864  1.00  0.00     0.020 A 
HETATM   19  C22 UNL     1      29.314  -0.918  53.873  1.00  0.00     0.116 A 
HETATM   20  N3  UNL     1      28.142  -1.325  53.284  1.00  0.00    -0.272 NA
HETATM   21  C23 UNL     1      27.330  -0.383  52.766  1.00  0.00     0.130 A 
ENDBRANCH  14  16
ENDBRANCH   8  10
ENDBRANCH   7   8
BRANCH   5  22
HETATM   22  C6  UNL     1      30.769   5.789  47.925  1.00  0.00     0.192 C 
HETATM   23  O1  UNL     1      31.246   6.976  48.067  1.00  0.00    -0.287 OA
BRANCH  22  24
HETATM   24  C7  UNL     1      31.680   4.722  47.590  1.00  0.00     0.015 A 
HETATM   25  C8  UNL     1      31.513   3.530  46.945  1.00  0.00     0.015 A 
HETATM   26  C9  UNL     1      32.465   2.583  46.650  1.00  0.00     0.001 A 
HETATM   27  C10 UNL     1      33.746   2.904  47.071  1.00  0.00     0.000 A 
HETATM   28  C11 UNL     1      34.036   4.071  47.729  1.00  0.00     0.001 A 
HETATM   29  C12 UNL     1      33.012   4.934  47.967  1.00  0.00     0.015 A 
ENDBRANCH  22  24
ENDBRANCH   5  22
TORSDOF 5
ENDMDL
MODEL 4
REMARK VINA RESULT:      -9.5      2.405      3.839
REMARK  5 active torsions:
REMARK  status: ('A' for Active; 'I' for Inactive)
REMARK    1  A    between atoms: C5_5  and  C6_6 
REMARK    2  A    between atoms: C6_6  and  C7_8 
REMARK    3  A    between atoms: C14_15  and  N1_16 
REMARK    4  A    between atoms: N1_16  and  C15_17 
REMARK    5  A    between atoms: C18_21  and  C19_22 
ROOT
HETATM    1  C1  UNL     1      23.313   4.086  50.701  1.00  0.00     0.050 C 
HETATM    2  C2  UNL     1      24.474   3.424  51.338  1.00  0.00    -0.035 A 
HETATM    3  C3  UNL     1      24.340   2.866  52.563  1.00  0.00     0.010 A 
HETATM    4  C4  UNL     1      25.445   2.244  53.155  1.00  0.00     0.016 A 
HETATM    5  C5  UNL     1      26.699   2.168  52.538  1.00  0.00     0.017 A 
HETATM    6  C13 UNL     1      26.704   2.766  51.305  1.00  0.00     0.046 A 
HETATM    7  C14 UNL     1      25.683   3.399  50.640  1.00  0.00     0.056 A 
ENDROOT
BRANCH   7   8
HETATM    8  N1  UNL     1      25.833   4.000  49.371  1.00  0.00    -0.188 N 
HETATM    9  H12 UNL     1      25.159   3.596  48.647  1.00  0.00     0.184 HD
BRANCH   8  10
HETATM   10  C15 UNL     1      26.692   5.021  48.881  1.00  0.00     0.727 A 
HETATM   11  N2  UNL     1      26.139   6.193  48.447  1.00  0.00    -0.075 NA
HETATM   12  C16 UNL     1      26.900   7.176  47.959  1.00  0.00     0.139 A 
HETATM   13  C17 UNL     1      28.256   6.968  47.907  1.00  0.00     0.053 A 
HETATM   14  C18 UNL     1      28.851   5.809  48.330  1.00  0.00     0.089 A 
HETATM   15  N4  UNL     1      28.024   4.875  48.805  1.00  0.00    -0.062 NA
BRANCH  14  16
HETATM   16  C19 UNL     1      30.281   5.584  48.246  1.00  0.00     0.011 A 
HETATM   17  C20 UNL     1      30.787   4.586  47.404  1.00  0.00     0.017 A 
HETATM   18  C21 UNL     1      32.178   4.451  47.398  1.00  0.00     0.020 A 
HETATM   19  C22 UNL     1      33.095   5.195  48.129  1.00  0.00     0.116 A 
HETATM   20  N3  UNL     1      32.550   6.160  48.940  1.00  0.00    -0.272 NA
HETATM   21  C23 UNL     1      31.210   6.298  48.952  1.00  0.00     0.130 A 
ENDBRANCH  14  16
ENDBRANCH   8  10
ENDBRANCH   7   8
BRANCH   5  22
HETATM   22  C6  UNL     1      27.761   1.504  53.263  1.00  0.00     0.192 C 
HETATM   23  O1  UNL     1      28.283   2.386  54.040  1.00  0.00    -0.287 OA
BRANCH  22  24
HETATM   24  C7  UNL     1      28.306   0.169  53.281  1.00  0.00     0.015 A 
HETATM   25  C8  UNL     1      29.512  -0.335  53.679  1.00  0.00     0.015 A 
HETATM   26  C9  UNL     1      29.927  -1.645  53.678  1.00  0.00     0.001 A 
HETATM   27  C10 UNL     1      28.986  -2.547  53.209  1.00  0.00     0.000 A 
HETATM   28  C11 UNL     1      27.742  -2.161  52.781  1.00  0.00     0.001 A 
HETATM   29  C12 UNL     1      27.441  -0.836  52.827  1.00  0.00     0.015 A 
ENDBRANCH  22  24
ENDBRANCH   5  22
TORSDOF 5
ENDMDL
MODEL 5
REMARK VINA RESULT:      -9.4      1.647      2.552
REMARK  5 active torsions:
REMARK  status: ('A' for Active; 'I' for Inactive)
REMARK    1  A    between atoms: C5_5  and  C6_6 
REMARK    2  A    between atoms: C6_6  and  C7_8 
REMARK    3  A    between atoms: C14_15  and  N1_16 
REMARK    4  A    between atoms: N1_16  and  C15_17 
REMARK    5  A    between atoms: C18_21  and  C19_22 
ROOT
HETATM    1  C1  UNL     1      19.623  -0.540  53.315  1.00  0.00     0.050 C 
HETATM    2  C2  UNL     1      21.073  -0.492  53.615  1.00  0.00    -0.035 A 
HETATM    3  C3  UNL     1      21.589  -1.300  54.568  1.00  0.00     0.010 A 
HETATM    4  C4  UNL     1      22.960  -1.245  54.843  1.00  0.00     0.016 A 
HETATM    5  C5  UNL     1      23.838  -0.385  54.173  1.00  0.00     0.017 A 
HETATM    6  C13 UNL     1      23.195   0.377  53.232  1.00  0.00     0.046 A 
HETATM    7  C14 UNL     1      21.866   0.399  52.890  1.00  0.00     0.056 A 
ENDROOT
BRANCH   7   8
HETATM    8  N1  UNL     1      21.328   1.261  51.909  1.00  0.00    -0.188 N 
HETATM    9  H12 UNL     1      20.388   1.677  52.204  1.00  0.00     0.184 HD
BRANCH   8  10
HETATM   10  C15 UNL     1      21.787   1.676  50.629  1.00  0.00     0.727 A 
HETATM   11  N2  UNL     1      21.246   1.094  49.517  1.00  0.00    -0.075 NA
HETATM   12  C16 UNL     1      21.657   1.434  48.292  1.00  0.00     0.139 A 
HETATM   13  C17 UNL     1      22.641   2.385  48.189  1.00  0.00     0.053 A 
HETATM   14  C18 UNL     1      23.211   2.992  49.278  1.00  0.00     0.089 A 
HETATM   15  N4  UNL     1      22.747   2.599  50.466  1.00  0.00    -0.062 NA
BRANCH  14  16
HETATM   16  C19 UNL     1      24.271   3.974  49.164  1.00  0.00     0.011 A 
HETATM   17  C20 UNL     1      23.989   5.264  48.698  1.00  0.00     0.017 A 
HETATM   18  C21 UNL     1      25.081   6.132  48.627  1.00  0.00     0.020 A 
HETATM   19  C22 UNL     1      26.399   5.850  48.967  1.00  0.00     0.116 A 
HETATM   20  N3  UNL     1      26.625   4.572  49.417  1.00  0.00    -0.272 NA
HETATM   21  C23 UNL     1      25.577   3.729  49.489  1.00  0.00     0.130 A 
ENDBRANCH  14  16
ENDBRANCH   8  10
ENDBRANCH   7   8
BRANCH   5  22
HETATM   22  C6  UNL     1      25.232  -0.421  54.559  1.00  0.00     0.192 C 
HETATM   23  O1  UNL     1      25.332  -1.304  55.490  1.00  0.00    -0.287 OA
BRANCH  22  24
HETATM   24  C7  UNL     1      26.424   0.278  54.149  1.00  0.00     0.015 A 
HETATM   25  C8  UNL     1      26.667   1.580  53.815  1.00  0.00     0.015 A 
HETATM   26  C9  UNL     1      27.862   2.157  53.459  1.00  0.00     0.001 A 
HETATM   27  C10 UNL     1      28.940   1.286  53.444  1.00  0.00     0.000 A 
HETATM   28  C11 UNL     1      28.820  -0.043  53.758  1.00  0.00     0.001 A 
HETATM   29  C12 UNL     1      27.586  -0.504  54.097  1.00  0.00     0.015 A 
ENDBRANCH  22  24
ENDBRANCH   5  22
TORSDOF 5
ENDMDL
MODEL 6
REMARK VINA RESULT:      -8.9      3.366      8.206
REMARK  5 active torsions:
REMARK  status: ('A' for Active; 'I' for Inactive)
REMARK    1  A    between atoms: C5_5  and  C6_6 
REMARK    2  A    between atoms: C6_6  and  C7_8 
REMARK    3  A    between atoms: C14_15  and  N1_16 
REMARK    4  A    between atoms: N1_16  and  C15_17 
REMARK    5  A    between atoms: C18_21  and  C19_22 
ROOT
HETATM    1  C1  UNL     1      24.159   4.697  49.860  1.00  0.00     0.050 C 
HETATM    2  C2  UNL     1      25.479   5.102  49.323  1.00  0.00    -0.035 A 
HETATM    3  C3  UNL     1      25.647   6.348  48.824  1.00  0.00     0.010 A 
HETATM    4  C4  UNL     1      26.899   6.719  48.318  1.00  0.00     0.016 A 
HETATM    5  C5  UNL     1      28.000   5.855  48.301  1.00  0.00     0.017 A 
HETATM    6  C13 UNL     1      27.702   4.628  48.835  1.00  0.00     0.046 A 
HETATM    7  C14 UNL     1      26.517   4.169  49.352  1.00  0.00     0.056 A 
ENDROOT
BRANCH   7   8
HETATM    8  N1  UNL     1      26.339   2.859  49.850  1.00  0.00    -0.188 N 
HETATM    9  H12 UNL     1      26.182   2.144  49.071  1.00  0.00     0.184 HD
BRANCH   8  10
HETATM   10  C15 UNL     1      26.330   2.318  51.166  1.00  0.00     0.727 A 
HETATM   11  N2  UNL     1      27.463   2.416  51.924  1.00  0.00    -0.075 NA
HETATM   12  C16 UNL     1      27.512   1.907  53.158  1.00  0.00     0.139 A 
HETATM   13  C17 UNL     1      26.387   1.282  53.637  1.00  0.00     0.053 A 
HETATM   14  C18 UNL     1      25.232   1.162  52.910  1.00  0.00     0.089 A 
HETATM   15  N4  UNL     1      25.261   1.696  51.687  1.00  0.00    -0.062 NA
BRANCH  14  16
HETATM   16  C19 UNL     1      24.057   0.475  53.410  1.00  0.00     0.011 A 
HETATM   17  C20 UNL     1      22.780   0.889  53.016  1.00  0.00     0.017 A 
HETATM   18  C21 UNL     1      21.716   0.161  53.555  1.00  0.00     0.020 A 
HETATM   19  C22 UNL     1      21.797  -0.917  54.428  1.00  0.00     0.116 A 
HETATM   20  N3  UNL     1      23.071  -1.285  54.785  1.00  0.00    -0.272 NA
HETATM   21  C23 UNL     1      24.102  -0.588  54.270  1.00  0.00     0.130 A 
ENDBRANCH  14  16
ENDBRANCH   8  10
ENDBRANCH   7   8
BRANCH   5  22
HETATM   22  C6  UNL     1      29.236   6.361  47.743  1.00  0.00     0.192 C 
HETATM   23  O1  UNL     1      28.908   7.247  46.869  1.00  0.00    -0.287 OA
BRANCH  22  24
HETATM   24  C7  UNL     1      30.637   6.090  47.949  1.00  0.00     0.015 A 
HETATM   25  C8  UNL     1      31.438   5.039  47.604  1.00  0.00     0.015 A 
HETATM   26  C9  UNL     1      32.785   4.888  47.829  1.00  0.00     0.001 A 
HETATM   27  C10 UNL     1      33.382   5.950  48.490  1.00  0.00     0.000 A 
HETATM   28  C11 UNL     1      32.681   7.059  48.887  1.00  0.00     0.001 A 
HETATM   29  C12 UNL     1      31.350   7.099  48.611  1.00  0.00     0.015 A 
ENDBRANCH  22  24
ENDBRANCH   5  22
TORSDOF 5
ENDMDL
MODEL 7
REMARK VINA RESULT:      -8.8      1.584      2.444
REMARK  5 active torsions:
REMARK  status: ('A' for Active; 'I' for Inactive)
REMARK    1  A    between atoms: C5_5  and  C6_6 
REMARK    2  A    between atoms: C6_6  and  C7_8 
REMARK    3  A    between atoms: C14_15  and  N1_16 
REMARK    4  A    between atoms: N1_16  and  C15_17 
REMARK    5  A    between atoms: C18_21  and  C19_22 
ROOT
HETATM    1  C1  UNL     1      22.306   3.356  49.847  1.00  0.00     0.050 C 
HETATM    2  C2  UNL     1      23.239   2.585  50.701  1.00  0.00    -0.035 A 
HETATM    3  C3  UNL     1      22.754   1.819  51.704  1.00  0.00     0.010 A 
HETATM    4  C4  UNL     1      23.646   1.096  52.505  1.00  0.00     0.016 A 
HETATM    5  C5  UNL     1      25.033   1.125  52.319  1.00  0.00     0.017 A 
HETATM    6  C13 UNL     1      25.396   1.934  51.274  1.00  0.00     0.046 A 
HETATM    7  C14 UNL     1      24.606   2.680  50.435  1.00  0.00     0.056 A 
ENDROOT
BRANCH   7   8
HETATM    8  N1  UNL     1      25.118   3.497  49.403  1.00  0.00    -0.188 N 
HETATM    9  H12 UNL     1      25.065   3.025  48.445  1.00  0.00     0.184 HD
BRANCH   8  10
HETATM   10  C15 UNL     1      25.680   4.803  49.393  1.00  0.00     0.727 A 
HETATM   11  N2  UNL     1      25.017   5.808  50.040  1.00  0.00    -0.075 NA
HETATM   12  C16 UNL     1      25.492   7.057  50.043  1.00  0.00     0.139 A 
HETATM   13  C17 UNL     1      26.667   7.295  49.375  1.00  0.00     0.053 A 
HETATM   14  C18 UNL     1      27.362   6.317  48.715  1.00  0.00     0.089 A 
HETATM   15  N4  UNL     1      26.824   5.097  48.757  1.00  0.00    -0.062 NA
BRANCH  14  16
HETATM   16  C19 UNL     1      28.588   6.581  47.985  1.00  0.00     0.011 A 
HETATM   17  C20 UNL     1      29.706   5.760  48.170  1.00  0.00     0.017 A 
HETATM   18  C21 UNL     1      30.835   6.101  47.420  1.00  0.00     0.020 A 
HETATM   19  C22 UNL     1      30.958   7.156  46.524  1.00  0.00     0.116 A 
HETATM   20  N3  UNL     1      29.834   7.932  46.378  1.00  0.00    -0.272 NA
HETATM   21  C23 UNL     1      28.741   7.610  47.097  1.00  0.00     0.130 A 
ENDBRANCH  14  16
ENDBRANCH   8  10
ENDBRANCH   7   8
BRANCH   5  22
HETATM   22  C6  UNL     1      25.844   0.337  53.222  1.00  0.00     0.192 C 
HETATM   23  O1  UNL     1      25.044  -0.150  54.104  1.00  0.00    -0.287 OA
BRANCH  22  24
HETATM   24  C7  UNL     1      27.248   0.023  53.325  1.00  0.00     0.015 A 
HETATM   25  C8  UNL     1      28.342   0.768  53.659  1.00  0.00     0.015 A 
HETATM   26  C9  UNL     1      29.651   0.359  53.753  1.00  0.00     0.001 A 
HETATM   27  C10 UNL     1      29.858  -0.981  53.468  1.00  0.00     0.000 A 
HETATM   28  C11 UNL     1      28.838  -1.828  53.119  1.00  0.00     0.001 A 
HETATM   29  C12 UNL     1      27.581  -1.312  53.058  1.00  0.00     0.015 A 
ENDBRANCH  22  24
ENDBRANCH   5  22
TORSDOF 5
ENDMDL
MODEL 8
REMARK VINA RESULT:      -8.8      3.209      7.745
REMARK  5 active torsions:
REMARK  status: ('A' for Active; 'I' for Inactive)
REMARK    1  A    between atoms: C5_5  and  C6_6 
REMARK    2  A    between atoms: C6_6  and  C7_8 
REMARK    3  A    between atoms: C14_15  and  N1_16 
REMARK    4  A    between atoms: N1_16  and  C15_17 
REMARK    5  A    between atoms: C18_21  and  C19_22 
ROOT
HETATM    1  C1  UNL     1      23.032   4.951  48.760  1.00  0.00     0.050 C 
HETATM    2  C2  UNL     1      24.402   5.509  48.667  1.00  0.00    -0.035 A 
HETATM    3  C3  UNL     1      24.591   6.739  48.138  1.00  0.00     0.010 A 
HETATM    4  C4  UNL     1      25.890   7.254  48.054  1.00  0.00     0.016 A 
HETATM    5  C5  UNL     1      27.018   6.554  48.495  1.00  0.00     0.017 A 
HETATM    6  C13 UNL     1      26.694   5.325  49.011  1.00  0.00     0.046 A 
HETATM    7  C14 UNL     1      25.462   4.732  49.136  1.00  0.00     0.056 A 
ENDROOT
BRANCH   7   8
HETATM    8  N1  UNL     1      25.271   3.438  49.668  1.00  0.00    -0.188 N 
HETATM    9  H12 UNL     1      25.006   2.724  48.918  1.00  0.00     0.184 HD
BRANCH   8  10
HETATM   10  C15 UNL     1      25.363   2.911  50.986  1.00  0.00     0.727 A 
HETATM   11  N2  UNL     1      24.439   3.300  51.915  1.00  0.00    -0.075 NA
HETATM   12  C16 UNL     1      24.493   2.849  53.171  1.00  0.00     0.139 A 
HETATM   13  C17 UNL     1      25.508   1.984  53.497  1.00  0.00     0.053 A 
HETATM   14  C18 UNL     1      26.454   1.570  52.597  1.00  0.00     0.089 A 
HETATM   15  N4  UNL     1      26.333   2.064  51.362  1.00  0.00    -0.062 NA
BRANCH  14  16
HETATM   16  C19 UNL     1      27.542   0.679  52.954  1.00  0.00     0.011 A 
HETATM   17  C20 UNL     1      27.403  -0.703  52.783  1.00  0.00     0.017 A 
HETATM   18  C21 UNL     1      28.509  -1.470  53.159  1.00  0.00     0.020 A 
HETATM   19  C22 UNL     1      29.713  -1.008  53.675  1.00  0.00     0.116 A 
HETATM   20  N3  UNL     1      29.800   0.355  53.825  1.00  0.00    -0.272 NA
HETATM   21  C23 UNL     1      28.738   1.102  53.465  1.00  0.00     0.130 A 
ENDBRANCH  14  16
ENDBRANCH   8  10
ENDBRANCH   7   8
BRANCH   5  22
HETATM   22  C6  UNL     1      28.305   7.198  48.344  1.00  0.00     0.192 C 
HETATM   23  O1  UNL     1      28.232   8.316  48.976  1.00  0.00    -0.287 OA
BRANCH  22  24
HETATM   24  C7  UNL     1      29.541   6.868  47.678  1.00  0.00     0.015 A 
HETATM   25  C8  UNL     1      30.270   7.500  46.711  1.00  0.00     0.015 A 
HETATM   26  C9  UNL     1      31.465   7.108  46.157  1.00  0.00     0.001 A 
HETATM   27  C10 UNL     1      31.971   5.920  46.659  1.00  0.00     0.000 A 
HETATM   28  C11 UNL     1      31.329   5.196  47.630  1.00  0.00     0.001 A 
HETATM   29  C12 UNL     1      30.151   5.681  48.106  1.00  0.00     0.015 A 
ENDBRANCH  22  24
ENDBRANCH   5  22
TORSDOF 5
ENDMDL
MODEL 9
REMARK VINA RESULT:      -8.8      2.399      6.499
REMARK  5 active torsions:
REMARK  status: ('A' for Active; 'I' for Inactive)
REMARK    1  A    between atoms: C5_5  and  C6_6 
REMARK    2  A    between atoms: C6_6  and  C7_8 
REMARK    3  A    between atoms: C14_15  and  N1_16 
REMARK    4  A    between atoms: N1_16  and  C15_17 
REMARK    5  A    between atoms: C18_21  and  C19_22 
ROOT
HETATM    1  C1  UNL     1      24.708   4.699  49.127  1.00  0.00     0.050 C 
HETATM    2  C2  UNL     1      25.032   3.592  50.058  1.00  0.00    -0.035 A 
HETATM    3  C3  UNL     1      26.303   3.141  50.148  1.00  0.00     0.010 A 
HETATM    4  C4  UNL     1      26.597   2.095  51.030  1.00  0.00     0.016 A 
HETATM    5  C5  UNL     1      25.629   1.483  51.836  1.00  0.00     0.017 A 
HETATM    6  C13 UNL     1      24.385   2.031  51.654  1.00  0.00     0.046 A 
HETATM    7  C14 UNL     1      23.996   3.049  50.820  1.00  0.00     0.056 A 
ENDROOT
BRANCH   7   8
HETATM    8  N1  UNL     1      22.663   3.502  50.712  1.00  0.00    -0.188 N 
HETATM    9  H12 UNL     1      22.555   4.525  51.003  1.00  0.00     0.184 HD
BRANCH   8  10
HETATM   10  C15 UNL     1      21.458   2.871  50.297  1.00  0.00     0.727 A 
HETATM   11  N2  UNL     1      20.905   3.233  49.101  1.00  0.00    -0.075 NA
HETATM   12  C16 UNL     1      19.764   2.685  48.674  1.00  0.00     0.139 A 
HETATM   13  C17 UNL     1      19.166   1.748  49.479  1.00  0.00     0.053 A 
HETATM   14  C18 UNL     1      19.686   1.357  50.684  1.00  0.00     0.089 A 
HETATM   15  N4  UNL     1      20.828   1.950  51.041  1.00  0.00    -0.062 NA
BRANCH  14  16
HETATM   16  C19 UNL     1      19.034   0.387  51.544  1.00  0.00     0.011 A 
HETATM   17  C20 UNL     1      17.783  -0.133  51.195  1.00  0.00     0.017 A 
HETATM   18  C21 UNL     1      17.243  -1.058  52.092  1.00  0.00     0.020 A 
HETATM   19  C22 UNL     1      17.814  -1.509  53.276  1.00  0.00     0.116 A 
HETATM   20  N3  UNL     1      19.041  -0.968  53.575  1.00  0.00    -0.272 NA
HETATM   21  C23 UNL     1      19.569  -0.075  52.715  1.00  0.00     0.130 A 
ENDBRANCH  14  16
ENDBRANCH   8  10
ENDBRANCH   7   8
BRANCH   5  22
HETATM   22  C6  UNL     1      26.063   0.407  52.699  1.00  0.00     0.192 C 
HETATM   23  O1  UNL     1      25.013  -0.028  53.301  1.00  0.00    -0.287 OA
BRANCH  22  24
HETATM   24  C7  UNL     1      27.329  -0.216  52.999  1.00  0.00     0.015 A 
HETATM   25  C8  UNL     1      27.791  -1.493  52.853  1.00  0.00     0.015 A 
HETATM   26  C9  UNL     1      29.040  -1.983  53.150  1.00  0.00     0.001 A 
HETATM   27  C10 UNL     1      29.922  -1.043  53.660  1.00  0.00     0.000 A 
HETATM   28  C11 UNL     1      29.573   0.269  53.852  1.00  0.00     0.001 A 
HETATM   29  C12 UNL     1      28.307   0.641  53.522  1.00  0.00     0.015 A 
ENDBRANCH  22  24
ENDBRANCH   5  22
TORSDOF 5
ENDMDL
