MODEL 1
REMARK VINA RESULT:      -7.8      0.000      0.000
REMARK  5 active torsions:
REMARK  status: ('A' for Active; 'I' for Inactive)
REMARK    1  A    between atoms: C2_2  and  C3_4 
REMARK    2  A    between atoms: C4_5  and  C5_6 
REMARK    3  A    between atoms: C5_6  and  N1_7 
REMARK    4  A    between atoms: N1_7  and  C6_8 
REMARK    5  A    between atoms: N5_22  and  C17_23 
ROOT
HETATM    1  C6  UNL     1      23.837   1.429  52.039  1.00  0.00     0.069 C 
HETATM    2  C7  UNL     1      24.600   2.019  51.157  1.00  0.00     0.037 C 
HETATM    3  C8  UNL     1      23.524   2.912  50.725  1.00  0.00     0.172 C 
HETATM    4  C9  UNL     1      22.630   1.895  50.024  1.00  0.00     0.188 C 
HETATM    5  C10 UNL     1      22.517   1.391  51.254  1.00  0.00     0.050 C 
HETATM    6  C11 UNL     1      21.451   0.927  52.285  1.00  0.00     0.076 C 
HETATM    7  C12 UNL     1      21.767  -0.301  52.878  1.00  0.00     0.102 C 
HETATM    8  N2  UNL     1      22.011  -1.255  53.360  1.00  0.00    -0.191 NA
HETATM    9  C13 UNL     1      20.323   1.742  52.614  1.00  0.00     0.141 C 
HETATM   10  N3  UNL     1      20.324   3.242  52.439  1.00  0.00    -0.255 NA
HETATM   11  C14 UNL     1      21.501   3.948  52.317  1.00  0.00     0.205 C 
HETATM   12  N4  UNL     1      22.723   3.800  51.464  1.00  0.00    -0.360 N 
HETATM   13  C15 UNL     1      23.008   5.263  51.437  1.00  0.00     0.155 C 
HETATM   14  C16 UNL     1      23.246   5.684  49.995  1.00  0.00     0.292 C 
HETATM   15  N5  UNL     1      22.161   5.214  49.140  1.00  0.00     0.089 N 
HETATM   16  C19 UNL     1      22.641   5.077  47.834  1.00  0.00     0.277 C 
HETATM   17  C20 UNL     1      21.888   4.086  46.938  1.00  0.00     0.111 C 
HETATM   18  C21 UNL     1      22.041   2.775  47.672  1.00  0.00     0.359 A 
HETATM   19  O1  UNL     1      22.348   3.201  48.777  1.00  0.00    -0.146 OA
HETATM   20  N6  UNL     1      22.265   1.778  48.627  1.00  0.00     0.118 N 
HETATM   21  H23 UNL     1      22.161   0.807  48.275  1.00  0.00     0.329 HD
ENDROOT
BRANCH   1  22
HETATM   22  N1  UNL     1      24.107   0.893  53.327  1.00  0.00    -0.261 NA
BRANCH  22  23
HETATM   23  C5  UNL     1      25.293   0.883  53.804  1.00  0.00     0.117 C 
BRANCH  23  24
HETATM   24  C4  UNL     1      26.658   0.507  54.026  1.00  0.00     0.016 C 
HETATM   25  C3  UNL     1      27.578   0.161  54.856  1.00  0.00    -0.009 C 
BRANCH  25  26
HETATM   26  C2  UNL     1      28.884  -0.068  54.100  1.00  0.00     0.021 A 
HETATM   27  C1  UNL     1      30.103  -0.205  53.418  1.00  0.00     0.149 A 
HETATM   28 BR1  UNL     1      29.353  -1.765  53.334  1.00  0.00    -0.157 Br
ENDBRANCH  25  26
ENDBRANCH  23  24
ENDBRANCH  22  23
ENDBRANCH   1  22
BRANCH  15  29
HETATM   29  C17 UNL     1      21.020   5.983  49.431  1.00  0.00     0.268 C 
HETATM   30  C18 UNL     1      19.697   5.298  49.486  1.00  0.00     0.037 C 
ENDBRANCH  15  29
TORSDOF 5
ENDMDL
MODEL 2
REMARK VINA RESULT:      -7.3      4.124      6.281
REMARK  5 active torsions:
REMARK  status: ('A' for Active; 'I' for Inactive)
REMARK    1  A    between atoms: C2_2  and  C3_4 
REMARK    2  A    between atoms: C4_5  and  C5_6 
REMARK    3  A    between atoms: C5_6  and  N1_7 
REMARK    4  A    between atoms: N1_7  and  C6_8 
REMARK    5  A    between atoms: N5_22  and  C17_23 
ROOT
HETATM    1  C6  UNL     1      26.059   5.381  49.217  1.00  0.00     0.069 C 
HETATM    2  C7  UNL     1      26.142   4.077  49.257  1.00  0.00     0.037 C 
HETATM    3  C8  UNL     1      24.729   3.931  49.607  1.00  0.00     0.172 C 
HETATM    4  C9  UNL     1      24.770   4.486  51.026  1.00  0.00     0.188 C 
HETATM    5  C10 UNL     1      25.107   5.614  50.401  1.00  0.00     0.050 C 
HETATM    6  C11 UNL     1      24.728   7.119  50.319  1.00  0.00     0.076 C 
HETATM    7  C12 UNL     1      25.845   7.962  50.345  1.00  0.00     0.102 C 
HETATM    8  N2  UNL     1      26.713   8.633  50.349  1.00  0.00    -0.191 NA
HETATM    9  C13 UNL     1      23.372   7.542  50.158  1.00  0.00     0.141 C 
HETATM   10  N3  UNL     1      22.311   6.659  49.545  1.00  0.00    -0.255 NA
HETATM   11  C14 UNL     1      22.646   5.566  48.775  1.00  0.00     0.205 C 
HETATM   12  N4  UNL     1      23.575   4.405  48.959  1.00  0.00    -0.360 N 
HETATM   13  C15 UNL     1      22.749   3.481  48.130  1.00  0.00     0.155 C 
HETATM   14  C16 UNL     1      22.549   2.186  48.902  1.00  0.00     0.292 C 
HETATM   15  N5  UNL     1      22.063   2.464  50.249  1.00  0.00     0.089 N 
HETATM   16  C19 UNL     1      22.433   1.410  51.090  1.00  0.00     0.277 C 
HETATM   17  C20 UNL     1      22.547   1.746  52.582  1.00  0.00     0.111 C 
HETATM   18  C21 UNL     1      23.613   2.814  52.614  1.00  0.00     0.359 A 
HETATM   19  O1  UNL     1      23.589   3.153  51.439  1.00  0.00    -0.146 OA
HETATM   20  N6  UNL     1      24.521   3.829  52.293  1.00  0.00     0.118 N 
HETATM   21  H23 UNL     1      25.110   4.152  53.085  1.00  0.00     0.329 HD
ENDROOT
BRANCH   1  22
HETATM   22  N1  UNL     1      26.693   6.354  48.398  1.00  0.00    -0.261 NA
BRANCH  22  23
HETATM   23  C5  UNL     1      27.939   6.273  48.122  1.00  0.00     0.117 C 
BRANCH  23  24
HETATM   24  C4  UNL     1      29.264   5.742  47.991  1.00  0.00     0.016 C 
HETATM   25  C3  UNL     1      30.493   5.756  48.372  1.00  0.00    -0.009 C 
BRANCH  25  26
HETATM   26  C2  UNL     1      31.282   4.717  47.581  1.00  0.00     0.021 A 
HETATM   27  C1  UNL     1      31.967   3.708  46.888  1.00  0.00     0.149 A 
HETATM   28 BR1  UNL     1      32.678   5.194  46.351  1.00  0.00    -0.157 Br
ENDBRANCH  25  26
ENDBRANCH  23  24
ENDBRANCH  22  23
ENDBRANCH   1  22
BRANCH  15  29
HETATM   29  C17 UNL     1      20.728   2.893  50.146  1.00  0.00     0.268 C 
HETATM   30  C18 UNL     1      20.260   3.986  51.045  1.00  0.00     0.037 C 
ENDBRANCH  15  29
TORSDOF 5
ENDMDL
MODEL 3
REMARK VINA RESULT:      -7.2      2.196      4.517
REMARK  5 active torsions:
REMARK  status: ('A' for Active; 'I' for Inactive)
REMARK    1  A    between atoms: C2_2  and  C3_4 
REMARK    2  A    between atoms: C4_5  and  C5_6 
REMARK    3  A    between atoms: C5_6  and  N1_7 
REMARK    4  A    between atoms: N1_7  and  C6_8 
REMARK    5  A    between atoms: N5_22  and  C17_23 
ROOT
HETATM    1  C6  UNL     1      23.215   3.327  51.448  1.00  0.00     0.069 C 
HETATM    2  C7  UNL     1      22.377   3.290  52.450  1.00  0.00     0.037 C 
HETATM    3  C8  UNL     1      21.313   2.715  51.626  1.00  0.00     0.172 C 
HETATM    4  C9  UNL     1      21.003   3.923  50.750  1.00  0.00     0.188 C 
HETATM    5  C10 UNL     1      22.250   3.726  50.321  1.00  0.00     0.050 C 
HETATM    6  C11 UNL     1      23.076   3.571  49.014  1.00  0.00     0.076 C 
HETATM    7  C12 UNL     1      24.250   4.333  49.020  1.00  0.00     0.102 C 
HETATM    8  N2  UNL     1      25.180   4.914  49.019  1.00  0.00    -0.191 NA
HETATM    9  C13 UNL     1      22.674   2.673  47.976  1.00  0.00     0.141 C 
HETATM   10  N3  UNL     1      21.795   1.473  48.233  1.00  0.00    -0.255 NA
HETATM   11  C14 UNL     1      21.639   0.958  49.502  1.00  0.00     0.205 C 
HETATM   12  N4  UNL     1      21.299   1.553  50.835  1.00  0.00    -0.360 N 
HETATM   13  C15 UNL     1      20.631   0.316  51.332  1.00  0.00     0.155 C 
HETATM   14  C16 UNL     1      19.278   0.696  51.913  1.00  0.00     0.292 C 
HETATM   15  N5  UNL     1      18.525   1.507  50.964  1.00  0.00     0.089 N 
HETATM   16  C19 UNL     1      17.618   2.304  51.669  1.00  0.00     0.277 C 
HETATM   17  C20 UNL     1      17.166   3.593  50.972  1.00  0.00     0.111 C 
HETATM   18  C21 UNL     1      18.459   4.350  50.780  1.00  0.00     0.359 A 
HETATM   19  O1  UNL     1      19.251   3.428  50.919  1.00  0.00    -0.146 OA
HETATM   20  N6  UNL     1      19.801   4.726  50.658  1.00  0.00     0.118 N 
HETATM   21  H23 UNL     1      19.955   5.738  50.484  1.00  0.00     0.329 HD
ENDROOT
BRANCH   1  22
HETATM   22  N1  UNL     1      24.621   3.138  51.372  1.00  0.00    -0.261 NA
BRANCH  22  23
HETATM   23  C5  UNL     1      25.173   2.088  51.849  1.00  0.00     0.117 C 
BRANCH  23  24
HETATM   24  C4  UNL     1      26.166   1.214  52.401  1.00  0.00     0.016 C 
HETATM   25  C3  UNL     1      26.813   0.105  52.325  1.00  0.00    -0.009 C 
BRANCH  25  26
HETATM   26  C2  UNL     1      27.794   0.008  53.490  1.00  0.00     0.021 A 
HETATM   27  C1  UNL     1      28.654  -0.029  54.599  1.00  0.00     0.149 A 
HETATM   28 BR1  UNL     1      29.338  -1.134  53.452  1.00  0.00    -0.157 Br
ENDBRANCH  25  26
ENDBRANCH  23  24
ENDBRANCH  22  23
ENDBRANCH   1  22
BRANCH  15  29
HETATM   29  C17 UNL     1      18.110   0.668  49.914  1.00  0.00     0.268 C 
HETATM   30  C18 UNL     1      16.899  -0.177  50.116  1.00  0.00     0.037 C 
ENDBRANCH  15  29
TORSDOF 5
ENDMDL
MODEL 4
REMARK VINA RESULT:      -7.1      8.628     11.118
REMARK  5 active torsions:
REMARK  status: ('A' for Active; 'I' for Inactive)
REMARK    1  A    between atoms: C2_2  and  C3_4 
REMARK    2  A    between atoms: C4_5  and  C5_6 
REMARK    3  A    between atoms: C5_6  and  N1_7 
REMARK    4  A    between atoms: N1_7  and  C6_8 
REMARK    5  A    between atoms: N5_22  and  C17_23 
ROOT
HETATM    1  C6  UNL     1      28.711   8.480  47.139  1.00  0.00     0.069 C 
HETATM    2  C7  UNL     1      29.032   7.840  46.045  1.00  0.00     0.037 C 
HETATM    3  C8  UNL     1      30.418   7.660  46.478  1.00  0.00     0.172 C 
HETATM    4  C9  UNL     1      30.895   9.104  46.379  1.00  0.00     0.188 C 
HETATM    5  C10 UNL     1      29.997   9.294  47.346  1.00  0.00     0.050 C 
HETATM    6  C11 UNL     1      29.847   9.927  48.758  1.00  0.00     0.076 C 
HETATM    7  C12 UNL     1      28.686  10.699  48.886  1.00  0.00     0.102 C 
HETATM    8  N2  UNL     1      27.773  11.295  49.003  1.00  0.00    -0.191 NA
HETATM    9  C13 UNL     1      30.782   9.655  49.804  1.00  0.00     0.141 C 
HETATM   10  N3  UNL     1      31.631   8.406  49.833  1.00  0.00    -0.255 NA
HETATM   11  C14 UNL     1      31.299   7.298  49.084  1.00  0.00     0.205 C 
HETATM   12  N4  UNL     1      30.941   7.079  47.646  1.00  0.00    -0.360 N 
HETATM   13  C15 UNL     1      31.503   5.698  47.609  1.00  0.00     0.155 C 
HETATM   14  C16 UNL     1      32.403   5.574  46.389  1.00  0.00     0.292 C 
HETATM   15  N5  UNL     1      33.364   6.670  46.349  1.00  0.00     0.089 N 
HETATM   16  C19 UNL     1      33.751   6.885  45.023  1.00  0.00     0.277 C 
HETATM   17  C20 UNL     1      34.264   8.291  44.688  1.00  0.00     0.111 C 
HETATM   18  C21 UNL     1      33.085   9.174  45.018  1.00  0.00     0.359 A 
HETATM   19  O1  UNL     1      32.454   8.405  45.731  1.00  0.00    -0.146 OA
HETATM   20  N6  UNL     1      31.887   9.703  45.510  1.00  0.00     0.118 N 
HETATM   21  H23 UNL     1      31.676  10.669  45.194  1.00  0.00     0.329 HD
ENDROOT
BRANCH   1  22
HETATM   22  N1  UNL     1      27.519   8.512  47.911  1.00  0.00    -0.261 NA
BRANCH  22  23
HETATM   23  C5  UNL     1      26.933   7.433  48.267  1.00  0.00     0.117 C 
BRANCH  23  24
HETATM   24  C4  UNL     1      26.735   6.076  48.686  1.00  0.00     0.016 C 
HETATM   25  C3  UNL     1      27.210   4.887  48.810  1.00  0.00    -0.009 C 
BRANCH  25  26
HETATM   26  C2  UNL     1      26.155   3.981  49.437  1.00  0.00     0.021 A 
HETATM   27  C1  UNL     1      25.134   3.178  49.967  1.00  0.00     0.149 A 
HETATM   28 BR1  UNL     1      26.557   2.757  50.862  1.00  0.00    -0.157 Br
ENDBRANCH  25  26
ENDBRANCH  23  24
ENDBRANCH  22  23
ENDBRANCH   1  22
BRANCH  15  29
HETATM   29  C17 UNL     1      34.308   6.453  47.369  1.00  0.00     0.268 C 
HETATM   30  C18 UNL     1      34.813   7.630  48.132  1.00  0.00     0.037 C 
ENDBRANCH  15  29
TORSDOF 5
ENDMDL
MODEL 5
REMARK VINA RESULT:      -7.1      8.318     10.599
REMARK  5 active torsions:
REMARK  status: ('A' for Active; 'I' for Inactive)
REMARK    1  A    between atoms: C2_2  and  C3_4 
REMARK    2  A    between atoms: C4_5  and  C5_6 
REMARK    3  A    between atoms: C5_6  and  N1_7 
REMARK    4  A    between atoms: N1_7  and  C6_8 
REMARK    5  A    between atoms: N5_22  and  C17_23 
ROOT
HETATM    1  C6  UNL     1      29.167   7.338  48.447  1.00  0.00     0.069 C 
HETATM    2  C7  UNL     1      28.152   8.159  48.391  1.00  0.00     0.037 C 
HETATM    3  C8  UNL     1      28.911   9.153  47.632  1.00  0.00     0.172 C 
HETATM    4  C9  UNL     1      29.874   9.610  48.722  1.00  0.00     0.188 C 
HETATM    5  C10 UNL     1      30.306   8.352  48.639  1.00  0.00     0.050 C 
HETATM    6  C11 UNL     1      31.611   7.522  48.480  1.00  0.00     0.076 C 
HETATM    7  C12 UNL     1      31.682   6.446  49.373  1.00  0.00     0.102 C 
HETATM    8  N2  UNL     1      31.744   5.591  50.057  1.00  0.00    -0.191 NA
HETATM    9  C13 UNL     1      32.569   7.821  47.462  1.00  0.00     0.141 C 
HETATM   10  N3  UNL     1      32.205   8.551  46.191  1.00  0.00    -0.255 NA
HETATM   11  C14 UNL     1      30.898   8.636  45.764  1.00  0.00     0.205 C 
HETATM   12  N4  UNL     1      29.610   9.035  46.418  1.00  0.00    -0.360 N 
HETATM   13  C15 UNL     1      29.007   9.548  45.154  1.00  0.00     0.155 C 
HETATM   14  C16 UNL     1      28.436  10.932  45.417  1.00  0.00     0.292 C 
HETATM   15  N5  UNL     1      29.433  11.783  46.057  1.00  0.00     0.089 N 
HETATM   16  C19 UNL     1      28.777  12.773  46.794  1.00  0.00     0.277 C 
HETATM   17  C20 UNL     1      29.565  13.379  47.962  1.00  0.00     0.111 C 
HETATM   18  C21 UNL     1      29.836  12.186  48.848  1.00  0.00     0.359 A 
HETATM   19  O1  UNL     1      29.638  11.290  48.040  1.00  0.00    -0.146 OA
HETATM   20  N6  UNL     1      30.008  10.899  49.369  1.00  0.00     0.118 N 
HETATM   21  H23 UNL     1      30.262  10.867  50.374  1.00  0.00     0.329 HD
ENDROOT
BRANCH   1  22
HETATM   22  N1  UNL     1      29.251   5.920  48.419  1.00  0.00    -0.261 NA
BRANCH  22  23
HETATM   23  C5  UNL     1      28.197   5.196  48.433  1.00  0.00     0.117 C 
BRANCH  23  24
HETATM   24  C4  UNL     1      27.072   4.456  48.923  1.00  0.00     0.016 C 
HETATM   25  C3  UNL     1      26.629   3.441  49.579  1.00  0.00    -0.009 C 
BRANCH  25  26
HETATM   26  C2  UNL     1      25.103   3.466  49.583  1.00  0.00     0.021 A 
HETATM   27  C1  UNL     1      23.702   3.520  49.518  1.00  0.00     0.149 A 
HETATM   28 BR1  UNL     1      24.062   2.846  51.073  1.00  0.00    -0.157 Br
ENDBRANCH  25  26
ENDBRANCH  23  24
ENDBRANCH  22  23
ENDBRANCH   1  22
BRANCH  15  29
HETATM   29  C17 UNL     1      30.408  12.103  45.095  1.00  0.00     0.268 C 
HETATM   30  C18 UNL     1      31.839  12.120  45.511  1.00  0.00     0.037 C 
ENDBRANCH  15  29
TORSDOF 5
ENDMDL
MODEL 6
REMARK VINA RESULT:      -7.1     10.024     12.013
REMARK  5 active torsions:
REMARK  status: ('A' for Active; 'I' for Inactive)
REMARK    1  A    between atoms: C2_2  and  C3_4 
REMARK    2  A    between atoms: C4_5  and  C5_6 
REMARK    3  A    between atoms: C5_6  and  N1_7 
REMARK    4  A    between atoms: N1_7  and  C6_8 
REMARK    5  A    between atoms: N5_22  and  C17_23 
ROOT
HETATM    1  C6  UNL     1      32.234   5.543  47.758  1.00  0.00     0.069 C 
HETATM    2  C7  UNL     1      30.927   5.545  47.769  1.00  0.00     0.037 C 
HETATM    3  C8  UNL     1      30.859   6.963  47.414  1.00  0.00     0.172 C 
HETATM    4  C9  UNL     1      31.378   7.566  48.714  1.00  0.00     0.188 C 
HETATM    5  C10 UNL     1      32.498   6.927  48.371  1.00  0.00     0.050 C 
HETATM    6  C11 UNL     1      34.024   7.159  48.194  1.00  0.00     0.076 C 
HETATM    7  C12 UNL     1      34.798   6.149  48.777  1.00  0.00     0.102 C 
HETATM    8  N2  UNL     1      35.416   5.356  49.216  1.00  0.00    -0.191 NA
HETATM    9  C13 UNL     1      34.532   8.263  47.440  1.00  0.00     0.141 C 
HETATM   10  N3  UNL     1      33.727   8.951  46.363  1.00  0.00    -0.255 NA
HETATM   11  C14 UNL     1      32.634   8.343  45.786  1.00  0.00     0.205 C 
HETATM   12  N4  UNL     1      31.415   7.658  46.326  1.00  0.00    -0.360 N 
HETATM   13  C15 UNL     1      30.560   8.040  45.166  1.00  0.00     0.155 C 
HETATM   14  C16 UNL     1      29.263   8.633  45.693  1.00  0.00     0.292 C 
HETATM   15  N5  UNL     1      29.541   9.679  46.670  1.00  0.00     0.089 N 
HETATM   16  C19 UNL     1      28.449   9.791  47.536  1.00  0.00     0.277 C 
HETATM   17  C20 UNL     1      28.744  10.375  48.923  1.00  0.00     0.111 C 
HETATM   18  C21 UNL     1      29.746   9.402  49.498  1.00  0.00     0.359 A 
HETATM   19  O1  UNL     1      30.110   8.859  48.465  1.00  0.00    -0.146 OA
HETATM   20  N6  UNL     1      30.710   8.407  49.686  1.00  0.00     0.118 N 
HETATM   21  H23 UNL     1      30.980   8.243  50.675  1.00  0.00     0.329 HD
ENDROOT
BRANCH   1  22
HETATM   22  N1  UNL     1      33.184   4.559  47.375  1.00  0.00    -0.261 NA
BRANCH  22  23
HETATM   23  C5  UNL     1      33.390   4.283  46.144  1.00  0.00     0.117 C 
BRANCH  23  24
HETATM   24  C4  UNL     1      33.529   4.446  44.726  1.00  0.00     0.016 C 
HETATM   25  C3  UNL     1      34.178   4.958  43.740  1.00  0.00    -0.009 C 
BRANCH  25  26
HETATM   26  C2  UNL     1      33.521   4.540  42.428  1.00  0.00     0.021 A 
HETATM   27  C1  UNL     1      32.939   4.083  41.236  1.00  0.00     0.149 A 
HETATM   28 BR1  UNL     1      32.659   5.793  41.256  1.00  0.00    -0.157 Br
ENDBRANCH  25  26
ENDBRANCH  23  24
ENDBRANCH  22  23
ENDBRANCH   1  22
BRANCH  15  29
HETATM   29  C17 UNL     1      30.051  10.792  45.977  1.00  0.00     0.268 C 
HETATM   30  C18 UNL     1      31.171  11.560  46.592  1.00  0.00     0.037 C 
ENDBRANCH  15  29
TORSDOF 5
ENDMDL
MODEL 7
REMARK VINA RESULT:      -7.0      4.306      6.954
REMARK  5 active torsions:
REMARK  status: ('A' for Active; 'I' for Inactive)
REMARK    1  A    between atoms: C2_2  and  C3_4 
REMARK    2  A    between atoms: C4_5  and  C5_6 
REMARK    3  A    between atoms: C5_6  and  N1_7 
REMARK    4  A    between atoms: N1_7  and  C6_8 
REMARK    5  A    between atoms: N5_22  and  C17_23 
ROOT
HETATM    1  C6  UNL     1      24.721   5.584  49.526  1.00  0.00     0.069 C 
HETATM    2  C7  UNL     1      23.449   5.799  49.312  1.00  0.00     0.037 C 
HETATM    3  C8  UNL     1      23.054   4.594  50.042  1.00  0.00     0.172 C 
HETATM    4  C9  UNL     1      23.562   3.539  49.066  1.00  0.00     0.188 C 
HETATM    5  C10 UNL     1      24.750   4.055  49.383  1.00  0.00     0.050 C 
HETATM    6  C11 UNL     1      26.171   3.636  49.855  1.00  0.00     0.076 C 
HETATM    7  C12 UNL     1      27.191   4.270  49.136  1.00  0.00     0.102 C 
HETATM    8  N2  UNL     1      27.999   4.772  48.590  1.00  0.00    -0.191 NA
HETATM    9  C13 UNL     1      26.361   2.752  50.962  1.00  0.00     0.141 C 
HETATM   10  N3  UNL     1      25.330   2.577  52.052  1.00  0.00    -0.255 NA
HETATM   11  C14 UNL     1      24.336   3.510  52.252  1.00  0.00     0.205 C 
HETATM   12  N4  UNL     1      23.345   4.187  51.356  1.00  0.00    -0.360 N 
HETATM   13  C15 UNL     1      22.320   4.335  52.429  1.00  0.00     0.155 C 
HETATM   14  C16 UNL     1      20.986   3.834  51.897  1.00  0.00     0.292 C 
HETATM   15  N5  UNL     1      21.134   2.505  51.315  1.00  0.00     0.089 N 
HETATM   16  C19 UNL     1      20.133   2.315  50.358  1.00  0.00     0.277 C 
HETATM   17  C20 UNL     1      20.435   1.289  49.259  1.00  0.00     0.111 C 
HETATM   18  C21 UNL     1      21.669   1.852  48.594  1.00  0.00     0.359 A 
HETATM   19  O1  UNL     1      22.035   2.620  49.473  1.00  0.00    -0.146 OA
HETATM   20  N6  UNL     1      22.833   2.563  48.283  1.00  0.00     0.118 N 
HETATM   21  H23 UNL     1      23.226   2.364  47.343  1.00  0.00     0.329 HD
ENDROOT
BRANCH   1  22
HETATM   22  N1  UNL     1      25.812   6.464  49.755  1.00  0.00    -0.261 NA
BRANCH  22  23
HETATM   23  C5  UNL     1      25.745   7.699  49.428  1.00  0.00     0.117 C 
BRANCH  23  24
HETATM   24  C4  UNL     1      26.145   9.015  49.026  1.00  0.00     0.016 C 
HETATM   25  C3  UNL     1      25.804  10.191  48.631  1.00  0.00    -0.009 C 
BRANCH  25  26
HETATM   26  C2  UNL     1      27.055  11.040  48.425  1.00  0.00     0.021 A 
HETATM   27  C1  UNL     1      28.248  11.758  48.245  1.00  0.00     0.149 A 
HETATM   28 BR1  UNL     1      26.981  12.929  48.089  1.00  0.00    -0.157 Br
ENDBRANCH  25  26
ENDBRANCH  23  24
ENDBRANCH  22  23
ENDBRANCH   1  22
BRANCH  15  29
HETATM   29  C17 UNL     1      21.333   1.593  52.368  1.00  0.00     0.268 C 
HETATM   30  C18 UNL     1      22.299   0.476  52.168  1.00  0.00     0.037 C 
ENDBRANCH  15  29
TORSDOF 5
ENDMDL
MODEL 8
REMARK VINA RESULT:      -7.0      7.957     10.522
REMARK  5 active torsions:
REMARK  status: ('A' for Active; 'I' for Inactive)
REMARK    1  A    between atoms: C2_2  and  C3_4 
REMARK    2  A    between atoms: C4_5  and  C5_6 
REMARK    3  A    between atoms: C5_6  and  N1_7 
REMARK    4  A    between atoms: N1_7  and  C6_8 
REMARK    5  A    between atoms: N5_22  and  C17_23 
ROOT
HETATM    1  C6  UNL     1      28.212   7.316  48.109  1.00  0.00     0.069 C 
HETATM    2  C7  UNL     1      28.868   6.220  47.833  1.00  0.00     0.037 C 
HETATM    3  C8  UNL     1      30.158   6.910  47.840  1.00  0.00     0.172 C 
HETATM    4  C9  UNL     1      29.998   7.739  46.570  1.00  0.00     0.188 C 
HETATM    5  C10 UNL     1      29.019   8.317  47.267  1.00  0.00     0.050 C 
HETATM    6  C11 UNL     1      28.491   9.715  47.693  1.00  0.00     0.076 C 
HETATM    7  C12 UNL     1      27.108   9.849  47.521  1.00  0.00     0.102 C 
HETATM    8  N2  UNL     1      26.023   9.961  47.405  1.00  0.00    -0.191 NA
HETATM    9  C13 UNL     1      29.355  10.699  48.266  1.00  0.00     0.141 C 
HETATM   10  N3  UNL     1      30.639  10.340  48.976  1.00  0.00    -0.255 NA
HETATM   11  C14 UNL     1      30.868   9.064  49.440  1.00  0.00     0.205 C 
HETATM   12  N4  UNL     1      30.766   7.698  48.833  1.00  0.00    -0.360 N 
HETATM   13  C15 UNL     1      31.851   7.127  49.681  1.00  0.00     0.155 C 
HETATM   14  C16 UNL     1      32.829   6.385  48.782  1.00  0.00     0.292 C 
HETATM   15  N5  UNL     1      33.246   7.233  47.672  1.00  0.00     0.089 N 
HETATM   16  C19 UNL     1      33.629   6.421  46.600  1.00  0.00     0.277 C 
HETATM   17  C20 UNL     1      33.540   7.055  45.207  1.00  0.00     0.111 C 
HETATM   18  C21 UNL     1      32.075   7.400  45.080  1.00  0.00     0.359 A 
HETATM   19  O1  UNL     1      31.759   7.360  46.261  1.00  0.00    -0.146 OA
HETATM   20  N6  UNL     1      30.727   7.682  45.320  1.00  0.00     0.118 N 
HETATM   21  H23 UNL     1      30.164   7.871  44.468  1.00  0.00     0.329 HD
ENDROOT
BRANCH   1  22
HETATM   22  N1  UNL     1      27.049   7.562  48.887  1.00  0.00    -0.261 NA
BRANCH  22  23
HETATM   23  C5  UNL     1      26.313   6.601  49.297  1.00  0.00     0.117 C 
BRANCH  23  24
HETATM   24  C4  UNL     1      25.692   5.311  49.375  1.00  0.00     0.016 C 
HETATM   25  C3  UNL     1      25.822   4.039  49.513  1.00  0.00    -0.009 C 
BRANCH  25  26
HETATM   26  C2  UNL     1      24.447   3.379  49.466  1.00  0.00     0.021 A 
HETATM   27  C1  UNL     1      23.174   2.801  49.351  1.00  0.00     0.149 A 
HETATM   28 BR1  UNL     1      23.731   2.370  50.934  1.00  0.00    -0.157 Br
ENDBRANCH  25  26
ENDBRANCH  23  24
ENDBRANCH  22  23
ENDBRANCH   1  22
BRANCH  15  29
HETATM   29  C17 UNL     1      34.098   8.228  48.186  1.00  0.00     0.268 C 
HETATM   30  C18 UNL     1      35.560   7.947  48.251  1.00  0.00     0.037 C 
ENDBRANCH  15  29
TORSDOF 5
ENDMDL
MODEL 9
REMARK VINA RESULT:      -7.0      7.379      9.005
REMARK  5 active torsions:
REMARK  status: ('A' for Active; 'I' for Inactive)
REMARK    1  A    between atoms: C2_2  and  C3_4 
REMARK    2  A    between atoms: C4_5  and  C5_6 
REMARK    3  A    between atoms: C5_6  and  N1_7 
REMARK    4  A    between atoms: N1_7  and  C6_8 
REMARK    5  A    between atoms: N5_22  and  C17_23 
ROOT
HETATM    1  C6  UNL     1      28.935   6.923  47.652  1.00  0.00     0.069 C 
HETATM    2  C7  UNL     1      29.388   7.709  46.710  1.00  0.00     0.037 C 
HETATM    3  C8  UNL     1      28.517   8.811  47.118  1.00  0.00     0.172 C 
HETATM    4  C9  UNL     1      27.173   8.232  46.693  1.00  0.00     0.188 C 
HETATM    5  C10 UNL     1      27.453   7.326  47.631  1.00  0.00     0.050 C 
HETATM    6  C11 UNL     1      26.833   6.636  48.878  1.00  0.00     0.076 C 
HETATM    7  C12 UNL     1      27.021   5.249  48.881  1.00  0.00     0.102 C 
HETATM    8  N2  UNL     1      27.175   4.163  48.903  1.00  0.00    -0.191 NA
HETATM    9  C13 UNL     1      26.215   7.392  49.923  1.00  0.00     0.141 C 
HETATM   10  N3  UNL     1      26.550   8.840  50.187  1.00  0.00    -0.255 NA
HETATM   11  C14 UNL     1      27.711   9.406  49.707  1.00  0.00     0.205 C 
HETATM   12  N4  UNL     1      28.374   9.448  48.364  1.00  0.00    -0.360 N 
HETATM   13  C15 UNL     1      29.007  10.776  48.603  1.00  0.00     0.155 C 
HETATM   14  C16 UNL     1      28.725  11.670  47.405  1.00  0.00     0.292 C 
HETATM   15  N5  UNL     1      27.300  11.673  47.094  1.00  0.00     0.089 N 
HETATM   16  C19 UNL     1      27.133  11.975  45.739  1.00  0.00     0.277 C 
HETATM   17  C20 UNL     1      25.836  11.475  45.091  1.00  0.00     0.111 C 
HETATM   18  C21 UNL     1      25.919   9.977  45.268  1.00  0.00     0.359 A 
HETATM   19  O1  UNL     1      26.763   9.929  46.152  1.00  0.00    -0.146 OA
HETATM   20  N6  UNL     1      26.241   8.680  45.679  1.00  0.00     0.118 N 
HETATM   21  H23 UNL     1      25.740   7.926  45.172  1.00  0.00     0.329 HD
ENDROOT
BRANCH   1  22
HETATM   22  N1  UNL     1      29.561   5.923  48.444  1.00  0.00    -0.261 NA
BRANCH  22  23
HETATM   23  C5  UNL     1      30.620   5.329  48.042  1.00  0.00     0.117 C 
BRANCH  23  24
HETATM   24  C4  UNL     1      31.587   4.733  47.168  1.00  0.00     0.016 C 
HETATM   25  C3  UNL     1      32.084   3.667  46.648  1.00  0.00    -0.009 C 
BRANCH  25  26
HETATM   26  C2  UNL     1      33.229   4.043  45.713  1.00  0.00     0.021 A 
HETATM   27  C1  UNL     1      34.232   4.426  44.810  1.00  0.00     0.149 A 
HETATM   28 BR1  UNL     1      35.041   3.482  46.017  1.00  0.00    -0.157 Br
ENDBRANCH  25  26
ENDBRANCH  23  24
ENDBRANCH  22  23
ENDBRANCH   1  22
BRANCH  15  29
HETATM   29  C17 UNL     1      26.641  12.402  48.100  1.00  0.00     0.268 C 
HETATM   30  C18 UNL     1      26.733  13.890  48.075  1.00  0.00     0.037 C 
ENDBRANCH  15  29
TORSDOF 5
ENDMDL
