MODEL 1
REMARK VINA RESULT:      -7.8      0.000      0.000
REMARK  2 active torsions:
REMARK  status: ('A' for Active; 'I' for Inactive)
REMARK    1  A    between atoms: C2_2  and  C3_3 
REMARK    2  A    between atoms: N3_14  and  C11_15 
ROOT
HETATM    1  C3  UNL     1      25.731   1.654  52.458  1.00  0.00    -0.006 C 
HETATM    2  C4  UNL     1      25.180   2.568  53.229  1.00  0.00     0.014 C 
HETATM    3  C5  UNL     1      24.290   3.662  53.473  1.00  0.00     0.002 C 
HETATM    4  C6  UNL     1      23.439   4.328  52.721  1.00  0.00     0.046 C 
HETATM    5  C7  UNL     1      22.796   4.541  51.399  1.00  0.00     0.229 C 
HETATM    6 CL1  UNL     1      21.600   5.824  51.370  1.00  0.00    -0.065 Cl
HETATM    7  N1  UNL     1      23.878   4.918  50.458  1.00  0.00    -0.218 NA
HETATM    8  C8  UNL     1      25.000   4.290  50.208  1.00  0.00     0.161 A 
HETATM    9  C9  UNL     1      25.561   3.038  50.522  1.00  0.00     0.133 A 
HETATM   10  N2  UNL     1      26.771   3.026  49.940  1.00  0.00    -0.238 NA
HETATM   11  C10 UNL     1      26.933   4.203  49.312  1.00  0.00     0.212 A 
HETATM   12  N3  UNL     1      25.851   4.982  49.472  1.00  0.00    -0.325 N 
HETATM   13  C13 UNL     1      24.998   2.052  51.260  1.00  0.00     0.101 C 
HETATM   14  N4  UNL     1      23.724   1.411  50.919  1.00  0.00    -0.232 NA
HETATM   15  C14 UNL     1      22.568   1.905  51.308  1.00  0.00     0.106 C 
HETATM   16  C15 UNL     1      21.781   0.922  52.034  1.00  0.00     0.078 C 
HETATM   17  C16 UNL     1      20.576   0.426  51.246  1.00  0.00     0.008 C 
HETATM   18  C17 UNL     1      19.700   1.636  50.996  1.00  0.00     0.002 C 
HETATM   19  C18 UNL     1      20.266   2.366  49.799  1.00  0.00     0.020 C 
HETATM   20  C19 UNL     1      21.113   3.525  50.157  1.00  0.00     0.128 C 
HETATM   21  N5  UNL     1      22.209   3.275  51.000  1.00  0.00    -0.325 N 
ENDROOT
BRANCH   1  22
HETATM   22  C2  UNL     1      26.649   0.561  52.304  1.00  0.00     0.003 C 
HETATM   23  C1  UNL     1      26.332  -0.653  52.667  1.00  0.00     0.012 C 
ENDBRANCH   1  22
BRANCH  12  24
HETATM   24  C11 UNL     1      25.664   6.311  48.941  1.00  0.00     0.127 C 
HETATM   25  C12 UNL     1      26.935   6.727  48.242  1.00  0.00     0.027 C 
ENDBRANCH  12  24
TORSDOF 2
ENDMDL
MODEL 2
REMARK VINA RESULT:      -7.7      1.970      5.202
REMARK  2 active torsions:
REMARK  status: ('A' for Active; 'I' for Inactive)
REMARK    1  A    between atoms: C2_2  and  C3_3 
REMARK    2  A    between atoms: N3_14  and  C11_15 
ROOT
HETATM    1  C3  UNL     1      25.014   4.570  50.454  1.00  0.00    -0.006 C 
HETATM    2  C4  UNL     1      24.356   4.628  51.594  1.00  0.00     0.014 C 
HETATM    3  C5  UNL     1      23.660   4.037  52.696  1.00  0.00     0.002 C 
HETATM    4  C6  UNL     1      23.356   2.799  53.022  1.00  0.00     0.046 C 
HETATM    5  C7  UNL     1      23.406   1.347  52.713  1.00  0.00     0.229 C 
HETATM    6 CL1  UNL     1      22.647   0.320  53.916  1.00  0.00    -0.065 Cl
HETATM    7  N1  UNL     1      22.669   1.160  51.439  1.00  0.00    -0.218 NA
HETATM    8  C8  UNL     1      22.846   1.772  50.295  1.00  0.00     0.161 A 
HETATM    9  C9  UNL     1      23.805   2.641  49.739  1.00  0.00     0.133 A 
HETATM   10  N2  UNL     1      23.380   2.900  48.492  1.00  0.00    -0.238 NA
HETATM   11  C10 UNL     1      22.231   2.228  48.305  1.00  0.00     0.212 A 
HETATM   12  N3  UNL     1      21.899   1.535  49.406  1.00  0.00    -0.325 N 
HETATM   13  C13 UNL     1      24.921   3.117  50.339  1.00  0.00     0.101 C 
HETATM   14  N4  UNL     1      25.986   2.259  50.869  1.00  0.00    -0.232 NA
HETATM   15  C14 UNL     1      25.944   1.768  52.089  1.00  0.00     0.106 C 
HETATM   16  C15 UNL     1      27.139   2.102  52.845  1.00  0.00     0.078 C 
HETATM   17  C16 UNL     1      28.048   0.904  53.083  1.00  0.00     0.008 C 
HETATM   18  C17 UNL     1      27.243  -0.089  53.896  1.00  0.00     0.002 C 
HETATM   19  C18 UNL     1      26.368  -0.860  52.932  1.00  0.00     0.020 C 
HETATM   20  C19 UNL     1      24.976  -0.360  52.866  1.00  0.00     0.128 C 
HETATM   21  N5  UNL     1      24.802   0.994  52.535  1.00  0.00    -0.325 N 
ENDROOT
BRANCH   1  22
HETATM   22  C2  UNL     1      25.698   5.246  49.389  1.00  0.00     0.003 C 
HETATM   23  C1  UNL     1      26.863   4.840  48.961  1.00  0.00     0.012 C 
ENDBRANCH   1  22
BRANCH  12  24
HETATM   24  C11 UNL     1      20.735   0.699  49.575  1.00  0.00     0.127 C 
HETATM   25  C12 UNL     1      19.520   1.589  49.669  1.00  0.00     0.027 C 
ENDBRANCH  12  24
TORSDOF 2
ENDMDL
MODEL 3
REMARK VINA RESULT:      -7.3      2.315      5.613
REMARK  2 active torsions:
REMARK  status: ('A' for Active; 'I' for Inactive)
REMARK    1  A    between atoms: C2_2  and  C3_3 
REMARK    2  A    between atoms: N3_14  and  C11_15 
ROOT
HETATM    1  C3  UNL     1      21.066   0.845  52.496  1.00  0.00    -0.006 C 
HETATM    2  C4  UNL     1      21.134   0.262  51.317  1.00  0.00     0.014 C 
HETATM    3  C5  UNL     1      21.330   0.271  49.899  1.00  0.00     0.002 C 
HETATM    4  C6  UNL     1      21.601   1.216  49.024  1.00  0.00     0.046 C 
HETATM    5  C7  UNL     1      21.871   2.647  48.730  1.00  0.00     0.229 C 
HETATM    6 CL1  UNL     1      22.190   2.995  47.040  1.00  0.00    -0.065 Cl
HETATM    7  N1  UNL     1      20.652   3.396  49.117  1.00  0.00    -0.218 NA
HETATM    8  C8  UNL     1      20.013   3.385  50.261  1.00  0.00     0.161 A 
HETATM    9  C9  UNL     1      20.245   2.878  51.554  1.00  0.00     0.133 A 
HETATM   10  N2  UNL     1      19.166   3.223  52.276  1.00  0.00    -0.238 NA
HETATM   11  C10 UNL     1      18.331   3.897  51.468  1.00  0.00     0.212 A 
HETATM   12  N3  UNL     1      18.845   3.999  50.231  1.00  0.00    -0.325 N 
HETATM   13  C13 UNL     1      21.328   2.186  51.979  1.00  0.00     0.101 C 
HETATM   14  N4  UNL     1      22.697   2.709  51.924  1.00  0.00    -0.232 NA
HETATM   15  C14 UNL     1      23.451   2.579  50.854  1.00  0.00     0.106 C 
HETATM   16  C15 UNL     1      24.719   1.941  51.163  1.00  0.00     0.078 C 
HETATM   17  C16 UNL     1      25.900   2.899  51.093  1.00  0.00     0.008 C 
HETATM   18  C17 UNL     1      25.963   3.398  49.664  1.00  0.00     0.002 C 
HETATM   19  C18 UNL     1      24.959   4.521  49.532  1.00  0.00     0.020 C 
HETATM   20  C19 UNL     1      23.675   4.100  48.928  1.00  0.00     0.128 C 
HETATM   21  N5  UNL     1      22.989   3.051  49.563  1.00  0.00    -0.325 N 
ENDROOT
BRANCH   1  22
HETATM   22  C2  UNL     1      20.858   0.744  53.912  1.00  0.00     0.003 C 
HETATM   23  C1  UNL     1      21.322  -0.266  54.599  1.00  0.00     0.012 C 
ENDBRANCH   1  22
BRANCH  12  24
HETATM   24  C11 UNL     1      18.233   4.654  49.100  1.00  0.00     0.127 C 
HETATM   25  C12 UNL     1      16.783   4.242  49.038  1.00  0.00     0.027 C 
ENDBRANCH  12  24
TORSDOF 2
ENDMDL
MODEL 4
REMARK VINA RESULT:      -7.3      2.090      4.716
REMARK  2 active torsions:
REMARK  status: ('A' for Active; 'I' for Inactive)
REMARK    1  A    between atoms: C2_2  and  C3_3 
REMARK    2  A    between atoms: N3_14  and  C11_15 
ROOT
HETATM    1  C3  UNL     1      20.829   3.954  50.279  1.00  0.00    -0.006 C 
HETATM    2  C4  UNL     1      21.543   3.438  49.299  1.00  0.00     0.014 C 
HETATM    3  C5  UNL     1      22.774   3.011  48.707  1.00  0.00     0.002 C 
HETATM    4  C6  UNL     1      24.026   3.002  49.115  1.00  0.00     0.046 C 
HETATM    5  C7  UNL     1      25.028   3.299  50.169  1.00  0.00     0.229 C 
HETATM    6 CL1  UNL     1      26.674   2.853  49.755  1.00  0.00    -0.065 Cl
HETATM    7  N1  UNL     1      25.003   4.767  50.376  1.00  0.00    -0.218 NA
HETATM    8  C8  UNL     1      23.977   5.539  50.636  1.00  0.00     0.161 A 
HETATM    9  C9  UNL     1      22.625   5.357  50.984  1.00  0.00     0.133 A 
HETATM   10  N2  UNL     1      22.114   6.593  51.111  1.00  0.00    -0.238 NA
HETATM   11  C10 UNL     1      23.099   7.470  50.854  1.00  0.00     0.212 A 
HETATM   12  N3  UNL     1      24.243   6.830  50.562  1.00  0.00    -0.325 N 
HETATM   13  C13 UNL     1      21.976   4.181  51.154  1.00  0.00     0.101 C 
HETATM   14  N4  UNL     1      22.379   3.166  52.132  1.00  0.00    -0.232 NA
HETATM   15  C14 UNL     1      23.277   2.246  51.853  1.00  0.00     0.106 C 
HETATM   16  C15 UNL     1      22.767   0.906  52.090  1.00  0.00     0.078 C 
HETATM   17  C16 UNL     1      23.394   0.237  53.305  1.00  0.00     0.008 C 
HETATM   18  C17 UNL     1      24.877   0.128  53.016  1.00  0.00     0.002 C 
HETATM   19  C18 UNL     1      25.502   1.465  53.348  1.00  0.00     0.020 C 
HETATM   20  C19 UNL     1      25.720   2.327  52.165  1.00  0.00     0.128 C 
HETATM   21  N5  UNL     1      24.594   2.620  51.377  1.00  0.00    -0.325 N 
ENDROOT
BRANCH   1  22
HETATM   22  C2  UNL     1      19.552   4.354  50.795  1.00  0.00     0.003 C 
HETATM   23  C1  UNL     1      18.634   4.869  50.020  1.00  0.00     0.012 C 
ENDBRANCH   1  22
BRANCH  12  24
HETATM   24  C11 UNL     1      25.508   7.443  50.233  1.00  0.00     0.127 C 
HETATM   25  C12 UNL     1      25.251   8.865  49.803  1.00  0.00     0.027 C 
ENDBRANCH  12  24
TORSDOF 2
ENDMDL
MODEL 5
REMARK VINA RESULT:      -7.1      2.040      4.265
REMARK  2 active torsions:
REMARK  status: ('A' for Active; 'I' for Inactive)
REMARK    1  A    between atoms: C2_2  and  C3_3 
REMARK    2  A    between atoms: N3_14  and  C11_15 
ROOT
HETATM    1  C3  UNL     1      24.645   4.508  50.461  1.00  0.00    -0.006 C 
HETATM    2  C4  UNL     1      23.784   4.935  51.362  1.00  0.00     0.014 C 
HETATM    3  C5  UNL     1      22.601   4.807  52.156  1.00  0.00     0.002 C 
HETATM    4  C6  UNL     1      21.674   3.879  52.264  1.00  0.00     0.046 C 
HETATM    5  C7  UNL     1      21.130   2.561  51.848  1.00  0.00     0.229 C 
HETATM    6 CL1  UNL     1      19.660   2.084  52.680  1.00  0.00    -0.065 Cl
HETATM    7  N1  UNL     1      20.809   2.671  50.405  1.00  0.00    -0.218 NA
HETATM    8  C8  UNL     1      21.582   3.061  49.422  1.00  0.00     0.161 A 
HETATM    9  C9  UNL     1      22.952   3.341  49.251  1.00  0.00     0.133 A 
HETATM   10  N2  UNL     1      23.090   3.699  47.964  1.00  0.00    -0.238 NA
HETATM   11  C10 UNL     1      21.876   3.639  47.391  1.00  0.00     0.212 A 
HETATM   12  N3  UNL     1      20.948   3.249  48.280  1.00  0.00    -0.325 N 
HETATM   13  C13 UNL     1      23.925   3.267  50.189  1.00  0.00     0.101 C 
HETATM   14  N4  UNL     1      24.254   2.040  50.921  1.00  0.00    -0.232 NA
HETATM   15  C14 UNL     1      23.626   1.697  52.026  1.00  0.00     0.106 C 
HETATM   16  C15 UNL     1      24.553   1.471  53.123  1.00  0.00     0.078 C 
HETATM   17  C16 UNL     1      24.680   0.001  53.500  1.00  0.00     0.008 C 
HETATM   18  C17 UNL     1      23.304  -0.446  53.949  1.00  0.00     0.002 C 
HETATM   19  C18 UNL     1      22.503  -0.766  52.707  1.00  0.00     0.020 C 
HETATM   20  C19 UNL     1      21.597   0.326  52.289  1.00  0.00     0.128 C 
HETATM   21  N5  UNL     1      22.182   1.581  52.049  1.00  0.00    -0.325 N 
ENDROOT
BRANCH   1  22
HETATM   22  C2  UNL     1      25.847   4.720  49.706  1.00  0.00     0.003 C 
HETATM   23  C1  UNL     1      26.664   3.737  49.436  1.00  0.00     0.012 C 
ENDBRANCH   1  22
BRANCH  12  24
HETATM   24  C11 UNL     1      19.538   3.073  48.027  1.00  0.00     0.127 C 
HETATM   25  C12 UNL     1      19.279   3.348  46.566  1.00  0.00     0.027 C 
ENDBRANCH  12  24
TORSDOF 2
ENDMDL
MODEL 6
REMARK VINA RESULT:      -7.1      2.453      5.266
REMARK  2 active torsions:
REMARK  status: ('A' for Active; 'I' for Inactive)
REMARK    1  A    between atoms: C2_2  and  C3_3 
REMARK    2  A    between atoms: N3_14  and  C11_15 
ROOT
HETATM    1  C3  UNL     1      19.557   1.004  50.865  1.00  0.00    -0.006 C 
HETATM    2  C4  UNL     1      20.347   0.800  49.832  1.00  0.00     0.014 C 
HETATM    3  C5  UNL     1      21.528   1.045  49.061  1.00  0.00     0.002 C 
HETATM    4  C6  UNL     1      22.562   1.845  49.210  1.00  0.00     0.046 C 
HETATM    5  C7  UNL     1      23.271   2.883  50.001  1.00  0.00     0.229 C 
HETATM    6 CL1  UNL     1      24.808   3.391  49.324  1.00  0.00    -0.065 Cl
HETATM    7  N1  UNL     1      22.385   4.071  50.033  1.00  0.00    -0.218 NA
HETATM    8  C8  UNL     1      21.129   4.145  50.398  1.00  0.00     0.161 A 
HETATM    9  C9  UNL     1      20.197   3.297  51.028  1.00  0.00     0.133 A 
HETATM   10  N2  UNL     1      19.059   4.005  51.107  1.00  0.00    -0.238 NA
HETATM   11  C10 UNL     1      19.288   5.209  50.557  1.00  0.00     0.212 A 
HETATM   12  N3  UNL     1      20.554   5.300  50.121  1.00  0.00    -0.325 N 
HETATM   13  C13 UNL     1      20.407   2.032  51.461  1.00  0.00     0.101 C 
HETATM   14  N4  UNL     1      21.425   1.672  52.453  1.00  0.00    -0.232 NA
HETATM   15  C14 UNL     1      22.667   1.404  52.112  1.00  0.00     0.106 C 
HETATM   16  C15 UNL     1      23.091   0.103  52.602  1.00  0.00     0.078 C 
HETATM   17  C16 UNL     1      24.100   0.196  53.739  1.00  0.00     0.008 C 
HETATM   18  C17 UNL     1      25.316   0.902  53.176  1.00  0.00     0.002 C 
HETATM   19  C18 UNL     1      25.035   2.388  53.216  1.00  0.00     0.020 C 
HETATM   20  C19 UNL     1      24.583   2.941  51.920  1.00  0.00     0.128 C 
HETATM   21  N5  UNL     1      23.443   2.356  51.342  1.00  0.00    -0.325 N 
ENDROOT
BRANCH   1  22
HETATM   22  C2  UNL     1      18.348   0.694  51.574  1.00  0.00     0.003 C 
HETATM   23  C1  UNL     1      18.209  -0.429  52.227  1.00  0.00     0.012 C 
ENDBRANCH   1  22
BRANCH  12  24
HETATM   24  C11 UNL     1      21.159   6.442  49.477  1.00  0.00     0.127 C 
HETATM   25  C12 UNL     1      21.019   7.634  50.391  1.00  0.00     0.027 C 
ENDBRANCH  12  24
TORSDOF 2
ENDMDL
MODEL 7
REMARK VINA RESULT:      -7.0      2.479      4.981
REMARK  2 active torsions:
REMARK  status: ('A' for Active; 'I' for Inactive)
REMARK    1  A    between atoms: C2_2  and  C3_3 
REMARK    2  A    between atoms: N3_14  and  C11_15 
ROOT
HETATM    1  C3  UNL     1      19.794   0.830  52.442  1.00  0.00    -0.006 C 
HETATM    2  C4  UNL     1      20.047   2.086  52.747  1.00  0.00     0.014 C 
HETATM    3  C5  UNL     1      20.810   3.293  52.650  1.00  0.00     0.002 C 
HETATM    4  C6  UNL     1      21.886   3.638  51.975  1.00  0.00     0.046 C 
HETATM    5  C7  UNL     1      22.964   3.279  51.019  1.00  0.00     0.229 C 
HETATM    6 CL1  UNL     1      24.078   4.585  50.655  1.00  0.00    -0.065 Cl
HETATM    7  N1  UNL     1      23.746   2.190  51.651  1.00  0.00    -0.218 NA
HETATM    8  C8  UNL     1      23.317   1.054  52.143  1.00  0.00     0.161 A 
HETATM    9  C9  UNL     1      22.108   0.332  52.140  1.00  0.00     0.133 A 
HETATM   10  N2  UNL     1      22.351  -0.785  52.844  1.00  0.00    -0.238 NA
HETATM   11  C10 UNL     1      23.631  -0.741  53.250  1.00  0.00     0.212 A 
HETATM   12  N3  UNL     1      24.228   0.384  52.823  1.00  0.00    -0.325 N 
HETATM   13  C13 UNL     1      20.943   0.692  51.551  1.00  0.00     0.101 C 
HETATM   14  N4  UNL     1      20.807   0.952  50.114  1.00  0.00    -0.232 NA
HETATM   15  C14 UNL     1      21.048   2.136  49.594  1.00  0.00     0.106 C 
HETATM   16  C15 UNL     1      19.916   2.626  48.825  1.00  0.00     0.078 C 
HETATM   17  C16 UNL     1      20.171   2.624  47.324  1.00  0.00     0.008 C 
HETATM   18  C17 UNL     1      21.338   3.560  47.086  1.00  0.00     0.002 C 
HETATM   19  C18 UNL     1      22.606   2.784  47.369  1.00  0.00     0.020 C 
HETATM   20  C19 UNL     1      23.167   3.036  48.716  1.00  0.00     0.128 C 
HETATM   21  N5  UNL     1      22.321   2.793  49.811  1.00  0.00    -0.325 N 
ENDROOT
BRANCH   1  22
HETATM   22  C2  UNL     1      18.972  -0.336  52.598  1.00  0.00     0.003 C 
HETATM   23  C1  UNL     1      17.794  -0.420  52.040  1.00  0.00     0.012 C 
ENDBRANCH   1  22
BRANCH  12  24
HETATM   24  C11 UNL     1      25.597   0.773  53.066  1.00  0.00     0.127 C 
HETATM   25  C12 UNL     1      26.497  -0.105  52.232  1.00  0.00     0.027 C 
ENDBRANCH  12  24
TORSDOF 2
ENDMDL
MODEL 8
REMARK VINA RESULT:      -7.0      6.836     10.481
REMARK  2 active torsions:
REMARK  status: ('A' for Active; 'I' for Inactive)
REMARK    1  A    between atoms: C2_2  and  C3_3 
REMARK    2  A    between atoms: N3_14  and  C11_15 
ROOT
HETATM    1  C3  UNL     1      28.705   7.005  47.541  1.00  0.00    -0.006 C 
HETATM    2  C4  UNL     1      29.170   7.434  46.386  1.00  0.00     0.014 C 
HETATM    3  C5  UNL     1      30.130   8.116  45.572  1.00  0.00     0.002 C 
HETATM    4  C6  UNL     1      31.252   8.754  45.829  1.00  0.00     0.046 C 
HETATM    5  C7  UNL     1      32.257   9.225  46.816  1.00  0.00     0.229 C 
HETATM    6 CL1  UNL     1      33.613  10.092  46.117  1.00  0.00    -0.065 Cl
HETATM    7  N1  UNL     1      31.552  10.160  47.725  1.00  0.00    -0.218 NA
HETATM    8  C8  UNL     1      30.452   9.963  48.408  1.00  0.00     0.161 A 
HETATM    9  C9  UNL     1      29.625   8.866  48.718  1.00  0.00     0.133 A 
HETATM   10  N2  UNL     1      28.635   9.361  49.478  1.00  0.00    -0.238 NA
HETATM   11  C10 UNL     1      28.850  10.680  49.619  1.00  0.00     0.212 A 
HETATM   12  N3  UNL     1      29.962  11.054  48.966  1.00  0.00    -0.325 N 
HETATM   13  C13 UNL     1      29.793   7.580  48.327  1.00  0.00     0.101 C 
HETATM   14  N4  UNL     1      30.986   6.787  48.640  1.00  0.00    -0.232 NA
HETATM   15  C14 UNL     1      32.057   6.807  47.877  1.00  0.00     0.106 C 
HETATM   16  C15 UNL     1      32.442   5.472  47.453  1.00  0.00     0.078 C 
HETATM   17  C16 UNL     1      33.715   4.977  48.126  1.00  0.00     0.008 C 
HETATM   18  C17 UNL     1      34.815   5.933  47.715  1.00  0.00     0.002 C 
HETATM   19  C18 UNL     1      34.727   7.142  48.620  1.00  0.00     0.020 C 
HETATM   20  C19 UNL     1      34.020   8.290  48.009  1.00  0.00     0.128 C 
HETATM   21  N5  UNL     1      32.711   8.060  47.555  1.00  0.00    -0.325 N 
ENDROOT
BRANCH   1  22
HETATM   22  C2  UNL     1      27.695   6.302  48.279  1.00  0.00     0.003 C 
HETATM   23  C1  UNL     1      27.816   5.033  48.562  1.00  0.00     0.012 C 
ENDBRANCH   1  22
BRANCH  12  24
HETATM   24  C11 UNL     1      30.505  12.390  48.894  1.00  0.00     0.127 C 
HETATM   25  C12 UNL     1      29.598  13.227  48.027  1.00  0.00     0.027 C 
ENDBRANCH  12  24
TORSDOF 2
ENDMDL
MODEL 9
REMARK VINA RESULT:      -7.0      2.006      6.027
REMARK  2 active torsions:
REMARK  status: ('A' for Active; 'I' for Inactive)
REMARK    1  A    between atoms: C2_2  and  C3_3 
REMARK    2  A    between atoms: N3_14  and  C11_15 
ROOT
HETATM    1  C3  UNL     1      20.991   4.407  50.930  1.00  0.00    -0.006 C 
HETATM    2  C4  UNL     1      21.621   4.739  52.038  1.00  0.00     0.014 C 
HETATM    3  C5  UNL     1      22.690   4.617  52.982  1.00  0.00     0.002 C 
HETATM    4  C6  UNL     1      23.760   3.854  53.052  1.00  0.00     0.046 C 
HETATM    5  C7  UNL     1      24.607   2.783  52.466  1.00  0.00     0.229 C 
HETATM    6 CL1  UNL     1      26.050   2.408  53.391  1.00  0.00    -0.065 Cl
HETATM    7  N1  UNL     1      23.772   1.558  52.426  1.00  0.00    -0.218 NA
HETATM    8  C8  UNL     1      22.583   1.395  51.901  1.00  0.00     0.161 A 
HETATM    9  C9  UNL     1      21.722   2.140  51.073  1.00  0.00     0.133 A 
HETATM   10  N2  UNL     1      20.629   1.378  50.907  1.00  0.00    -0.238 NA
HETATM   11  C10 UNL     1      20.818   0.239  51.595  1.00  0.00     0.212 A 
HETATM   12  N3  UNL     1      22.013   0.244  52.206  1.00  0.00    -0.325 N 
HETATM   13  C13 UNL     1      21.948   3.370  50.555  1.00  0.00     0.101 C 
HETATM   14  N4  UNL     1      23.083   3.686  49.682  1.00  0.00    -0.232 NA
HETATM   15  C14 UNL     1      24.256   4.039  50.162  1.00  0.00     0.106 C 
HETATM   16  C15 UNL     1      24.702   5.309  49.613  1.00  0.00     0.078 C 
HETATM   17  C16 UNL     1      25.862   5.161  48.639  1.00  0.00     0.008 C 
HETATM   18  C17 UNL     1      27.010   4.563  49.426  1.00  0.00     0.002 C 
HETATM   19  C18 UNL     1      26.785   3.069  49.489  1.00  0.00     0.020 C 
HETATM   20  C19 UNL     1      26.175   2.614  50.758  1.00  0.00     0.128 C 
HETATM   21  N5  UNL     1      24.947   3.196  51.117  1.00  0.00    -0.325 N 
ENDROOT
BRANCH   1  22
HETATM   22  C2  UNL     1      19.884   4.598  50.037  1.00  0.00     0.003 C 
HETATM   23  C1  UNL     1      18.653   4.390  50.423  1.00  0.00     0.012 C 
ENDBRANCH   1  22
BRANCH  12  24
HETATM   24  C11 UNL     1      22.559  -0.807  53.032  1.00  0.00     0.127 C 
HETATM   25  C12 UNL     1      21.635  -1.020  54.205  1.00  0.00     0.027 C 
ENDBRANCH  12  24
TORSDOF 2
ENDMDL
