MODEL 1
REMARK VINA RESULT:      -7.6      0.000      0.000
REMARK  4 active torsions:
REMARK  status: ('A' for Active; 'I' for Inactive)
REMARK    1  A    between atoms: C2_2  and  C3_3 
REMARK    2  A    between atoms: C3_3  and  C4_4 
REMARK       I    between atoms: C4_4  and  N1_6 
REMARK    3  A    between atoms: N1_6  and  C5_7 
REMARK    4  A    between atoms: C14_19  and  C15_20 
ROOT
HETATM    1  C5  UNL     1      24.965   0.203  52.825  1.00  0.00     0.158 A 
HETATM    2  C6  UNL     1      23.973  -0.693  53.422  1.00  0.00     0.015 A 
HETATM    3  C7  UNL     1      22.674  -0.530  53.558  1.00  0.00    -0.011 A 
HETATM    4  C8  UNL     1      21.846  -1.590  54.206  1.00  0.00     0.189 A 
HETATM    5  N2  UNL     1      20.474  -1.188  54.238  1.00  0.00    -0.295 NA
HETATM    6  C9  UNL     1      19.986  -0.099  53.793  1.00  0.00     0.135 A 
HETATM    7  C10 UNL     1      20.812   0.925  53.162  1.00  0.00     0.088 A 
HETATM    8  C11 UNL     1      20.278   2.157  52.655  1.00  0.00     0.103 C 
HETATM    9  N3  UNL     1      19.842   3.151  52.223  1.00  0.00    -0.191 NA
HETATM   10  C12 UNL     1      22.131   0.724  53.042  1.00  0.00     0.062 A 
HETATM   11  N4  UNL     1      22.999   1.675  52.439  1.00  0.00    -0.356 N 
HETATM   12  C13 UNL     1      24.397   1.457  52.313  1.00  0.00     0.033 A 
HETATM   13  C14 UNL     1      25.182   2.346  51.755  1.00  0.00     0.011 C 
HETATM   14  H12 UNL     1      22.528   2.519  52.109  1.00  0.00     0.166 HD
ENDROOT
BRANCH   1  15
HETATM   15  N1  UNL     1      26.052   0.389  53.755  1.00  0.00    -0.348 N 
HETATM   16  C4  UNL     1      27.378  -0.133  53.689  1.00  0.00     0.221 C 
HETATM   17  O1  UNL     1      27.511  -0.840  52.634  1.00  0.00    -0.273 OA
HETATM   18  H6  UNL     1      25.749   1.002  54.561  1.00  0.00     0.163 HD
BRANCH  16  19
HETATM   19  C3  UNL     1      28.374   0.159  54.737  1.00  0.00     0.129 C 
BRANCH  19  20
HETATM   20  C2  UNL     1      29.245   1.252  54.228  1.00  0.00    -0.028 C 
HETATM   21  C1  UNL     1      28.824   2.437  53.739  1.00  0.00     0.007 C 
ENDBRANCH  19  20
ENDBRANCH  16  19
ENDBRANCH   1  15
BRANCH  13  22
HETATM   22  C15 UNL     1      24.838   3.653  51.181  1.00  0.00     0.114 C 
HETATM   23 BR1  UNL     1      25.980   4.075  49.674  1.00  0.00    -0.092 Br
ENDBRANCH  13  22
TORSDOF 4
ENDMDL
MODEL 2
REMARK VINA RESULT:      -7.2      2.827      4.855
REMARK  4 active torsions:
REMARK  status: ('A' for Active; 'I' for Inactive)
REMARK    1  A    between atoms: C2_2  and  C3_3 
REMARK    2  A    between atoms: C3_3  and  C4_4 
REMARK       I    between atoms: C4_4  and  N1_6 
REMARK    3  A    between atoms: N1_6  and  C5_7 
REMARK    4  A    between atoms: C14_19  and  C15_20 
ROOT
HETATM    1  C5  UNL     1      25.742   1.042  52.376  1.00  0.00     0.158 A 
HETATM    2  C6  UNL     1      26.357   2.069  51.533  1.00  0.00     0.015 A 
HETATM    3  C7  UNL     1      25.789   2.922  50.706  1.00  0.00    -0.011 A 
HETATM    4  C8  UNL     1      26.623   3.893  49.938  1.00  0.00     0.189 A 
HETATM    5  N2  UNL     1      25.787   4.710  49.113  1.00  0.00    -0.295 NA
HETATM    6  C9  UNL     1      24.518   4.652  49.016  1.00  0.00     0.135 A 
HETATM    7  C10 UNL     1      23.721   3.694  49.775  1.00  0.00     0.088 A 
HETATM    8  C11 UNL     1      22.291   3.616  49.679  1.00  0.00     0.103 C 
HETATM    9  N3  UNL     1      21.126   3.564  49.616  1.00  0.00    -0.191 NA
HETATM   10  C12 UNL     1      24.334   2.841  50.607  1.00  0.00     0.062 A 
HETATM   11  N4  UNL     1      23.625   1.881  51.380  1.00  0.00    -0.356 N 
HETATM   12  C13 UNL     1      24.280   0.980  52.261  1.00  0.00     0.033 A 
HETATM   13  C14 UNL     1      23.609   0.100  52.964  1.00  0.00     0.011 C 
HETATM   14  H12 UNL     1      22.613   1.902  51.243  1.00  0.00     0.166 HD
ENDROOT
BRANCH   1  15
HETATM   15  N1  UNL     1      26.403  -0.219  52.140  1.00  0.00    -0.348 N 
HETATM   16  C4  UNL     1      26.921  -1.143  53.095  1.00  0.00     0.221 C 
HETATM   17  O1  UNL     1      26.722  -0.700  54.277  1.00  0.00    -0.273 OA
HETATM   18  H6  UNL     1      26.474  -0.411  51.104  1.00  0.00     0.163 HD
BRANCH  16  19
HETATM   19  C3  UNL     1      27.574  -2.398  52.677  1.00  0.00     0.129 C 
BRANCH  19  20
HETATM   20  C2  UNL     1      28.973  -2.360  53.180  1.00  0.00    -0.028 C 
HETATM   21  C1  UNL     1      29.730  -1.253  53.330  1.00  0.00     0.007 C 
ENDBRANCH  19  20
ENDBRANCH  16  19
ENDBRANCH   1  15
BRANCH  13  22
HETATM   22  C15 UNL     1      22.162  -0.139  53.008  1.00  0.00     0.114 C 
HETATM   23 BR1  UNL     1      21.677  -1.206  54.551  1.00  0.00    -0.092 Br
ENDBRANCH  13  22
TORSDOF 4
ENDMDL
MODEL 3
REMARK VINA RESULT:      -7.0      2.695      4.503
REMARK  4 active torsions:
REMARK  status: ('A' for Active; 'I' for Inactive)
REMARK    1  A    between atoms: C2_2  and  C3_3 
REMARK    2  A    between atoms: C3_3  and  C4_4 
REMARK       I    between atoms: C4_4  and  N1_6 
REMARK    3  A    between atoms: N1_6  and  C5_7 
REMARK    4  A    between atoms: C14_19  and  C15_20 
ROOT
HETATM    1  C5  UNL     1      23.410   3.055  52.228  1.00  0.00     0.158 A 
HETATM    2  C6  UNL     1      21.992   2.788  51.985  1.00  0.00     0.015 A 
HETATM    3  C7  UNL     1      21.246   1.787  52.404  1.00  0.00    -0.011 A 
HETATM    4  C8  UNL     1      19.803   1.716  52.029  1.00  0.00     0.189 A 
HETATM    5  N2  UNL     1      19.206   0.548  52.599  1.00  0.00    -0.295 NA
HETATM    6  C9  UNL     1      19.781  -0.328  53.324  1.00  0.00     0.135 A 
HETATM    7  C10 UNL     1      21.193  -0.240  53.680  1.00  0.00     0.088 A 
HETATM    8  C11 UNL     1      21.856  -1.217  54.496  1.00  0.00     0.103 C 
HETATM    9  N3  UNL     1      22.393  -2.001  55.177  1.00  0.00    -0.191 NA
HETATM   10  C12 UNL     1      21.921   0.793  53.234  1.00  0.00     0.062 A 
HETATM   11  N4  UNL     1      23.301   0.947  53.540  1.00  0.00    -0.356 N 
HETATM   12  C13 UNL     1      24.068   2.044  53.065  1.00  0.00     0.033 A 
HETATM   13  C14 UNL     1      25.340   2.168  53.356  1.00  0.00     0.011 C 
HETATM   14  H12 UNL     1      23.684   0.202  54.126  1.00  0.00     0.166 HD
ENDROOT
BRANCH   1  15
HETATM   15  N1  UNL     1      24.069   3.291  50.966  1.00  0.00    -0.348 N 
HETATM   16  C4  UNL     1      24.526   4.526  50.419  1.00  0.00     0.221 C 
HETATM   17  O1  UNL     1      24.270   5.479  51.230  1.00  0.00    -0.273 OA
HETATM   18  H6  UNL     1      24.192   2.383  50.439  1.00  0.00     0.163 HD
BRANCH  16  19
HETATM   19  C3  UNL     1      25.186   4.587  49.101  1.00  0.00     0.129 C 
BRANCH  19  20
HETATM   20  C2  UNL     1      26.626   4.278  49.311  1.00  0.00    -0.028 C 
HETATM   21  C1  UNL     1      27.660   4.843  48.655  1.00  0.00     0.007 C 
ENDBRANCH  19  20
ENDBRANCH  16  19
ENDBRANCH   1  15
BRANCH  13  22
HETATM   22  C15 UNL     1      26.194   1.289  54.165  1.00  0.00     0.114 C 
HETATM   23 BR1  UNL     1      26.978  -0.112  53.082  1.00  0.00    -0.092 Br
ENDBRANCH  13  22
TORSDOF 4
ENDMDL
MODEL 4
REMARK VINA RESULT:      -7.0      3.054      6.059
REMARK  4 active torsions:
REMARK  status: ('A' for Active; 'I' for Inactive)
REMARK    1  A    between atoms: C2_2  and  C3_3 
REMARK    2  A    between atoms: C3_3  and  C4_4 
REMARK       I    between atoms: C4_4  and  N1_6 
REMARK    3  A    between atoms: N1_6  and  C5_7 
REMARK    4  A    between atoms: C14_19  and  C15_20 
ROOT
HETATM    1  C5  UNL     1      25.823   2.651  51.120  1.00  0.00     0.158 A 
HETATM    2  C6  UNL     1      27.091   2.550  51.845  1.00  0.00     0.015 A 
HETATM    3  C7  UNL     1      27.397   1.818  52.896  1.00  0.00    -0.011 A 
HETATM    4  C8  UNL     1      28.770   1.874  53.477  1.00  0.00     0.189 A 
HETATM    5  N2  UNL     1      28.861   0.998  54.604  1.00  0.00    -0.295 NA
HETATM    6  C9  UNL     1      27.935   0.262  55.076  1.00  0.00     0.135 A 
HETATM    7  C10 UNL     1      26.598   0.221  54.494  1.00  0.00     0.088 A 
HETATM    8  C11 UNL     1      25.543  -0.602  55.012  1.00  0.00     0.103 C 
HETATM    9  N3  UNL     1      24.690  -1.287  55.422  1.00  0.00    -0.191 NA
HETATM   10  C12 UNL     1      26.323   0.980  53.424  1.00  0.00     0.062 A 
HETATM   11  N4  UNL     1      25.045   0.994  52.802  1.00  0.00    -0.356 N 
HETATM   12  C13 UNL     1      24.759   1.800  51.668  1.00  0.00     0.033 A 
HETATM   13  C14 UNL     1      23.573   1.800  51.109  1.00  0.00     0.011 C 
HETATM   14  H12 UNL     1      24.360   0.376  53.242  1.00  0.00     0.166 HD
ENDROOT
BRANCH   1  15
HETATM   15  N1  UNL     1      25.458   4.041  51.000  1.00  0.00    -0.348 N 
HETATM   16  C4  UNL     1      25.749   4.948  49.938  1.00  0.00     0.221 C 
HETATM   17  O1  UNL     1      26.421   4.350  49.031  1.00  0.00    -0.273 OA
HETATM   18  H6  UNL     1      24.907   4.354  51.846  1.00  0.00     0.163 HD
BRANCH  16  19
HETATM   19  C3  UNL     1      25.295   6.351  49.977  1.00  0.00     0.129 C 
BRANCH  19  20
HETATM   20  C2  UNL     1      24.048   6.391  50.787  1.00  0.00    -0.028 C 
HETATM   21  C1  UNL     1      23.119   7.369  50.763  1.00  0.00     0.007 C 
ENDBRANCH  19  20
ENDBRANCH  16  19
ENDBRANCH   1  15
BRANCH  13  22
HETATM   22  C15 UNL     1      22.374   1.040  51.482  1.00  0.00     0.114 C 
HETATM   23 BR1  UNL     1      21.128   0.933  50.003  1.00  0.00    -0.092 Br
ENDBRANCH  13  22
TORSDOF 4
ENDMDL
MODEL 5
REMARK VINA RESULT:      -6.9      2.691      4.873
REMARK  4 active torsions:
REMARK  status: ('A' for Active; 'I' for Inactive)
REMARK    1  A    between atoms: C2_2  and  C3_3 
REMARK    2  A    between atoms: C3_3  and  C4_4 
REMARK       I    between atoms: C4_4  and  N1_6 
REMARK    3  A    between atoms: N1_6  and  C5_7 
REMARK    4  A    between atoms: C14_19  and  C15_20 
ROOT
HETATM    1  C5  UNL     1      24.552   1.793  51.168  1.00  0.00     0.158 A 
HETATM    2  C6  UNL     1      25.520   1.310  52.155  1.00  0.00     0.015 A 
HETATM    3  C7  UNL     1      25.329   0.536  53.203  1.00  0.00    -0.011 A 
HETATM    4  C8  UNL     1      26.476   0.166  54.084  1.00  0.00     0.189 A 
HETATM    5  N2  UNL     1      26.024  -0.676  55.148  1.00  0.00    -0.295 NA
HETATM    6  C9  UNL     1      24.832  -1.075  55.354  1.00  0.00     0.135 A 
HETATM    7  C10 UNL     1      23.724  -0.701  54.482  1.00  0.00     0.088 A 
HETATM    8  C11 UNL     1      22.375  -1.141  54.698  1.00  0.00     0.103 C 
HETATM    9  N3  UNL     1      21.280  -1.515  54.862  1.00  0.00    -0.191 NA
HETATM   10  C12 UNL     1      23.956   0.088  53.424  1.00  0.00     0.062 A 
HETATM   11  N4  UNL     1      22.928   0.494  52.529  1.00  0.00    -0.356 N 
HETATM   12  C13 UNL     1      23.180   1.330  51.410  1.00  0.00     0.033 A 
HETATM   13  C14 UNL     1      22.219   1.694  50.596  1.00  0.00     0.011 C 
HETATM   14  H12 UNL     1      22.003   0.130  52.766  1.00  0.00     0.166 HD
ENDROOT
BRANCH   1  15
HETATM   15  N1  UNL     1      24.676   3.225  51.050  1.00  0.00    -0.348 N 
HETATM   16  C4  UNL     1      25.453   3.976  50.119  1.00  0.00     0.221 C 
HETATM   17  O1  UNL     1      26.079   3.183  49.339  1.00  0.00    -0.273 OA
HETATM   18  H6  UNL     1      24.085   3.709  51.780  1.00  0.00     0.163 HD
BRANCH  16  19
HETATM   19  C3  UNL     1      25.464   5.451  50.139  1.00  0.00     0.129 C 
BRANCH  19  20
HETATM   20  C2  UNL     1      25.946   5.909  48.808  1.00  0.00    -0.028 C 
HETATM   21  C1  UNL     1      27.165   6.421  48.541  1.00  0.00     0.007 C 
ENDBRANCH  19  20
ENDBRANCH  16  19
ENDBRANCH   1  15
BRANCH  13  22
HETATM   22  C15 UNL     1      20.791   1.357  50.642  1.00  0.00     0.114 C 
HETATM   23 BR1  UNL     1      19.872   2.391  51.998  1.00  0.00    -0.092 Br
ENDBRANCH  13  22
TORSDOF 4
ENDMDL
MODEL 6
REMARK VINA RESULT:      -6.8      2.733      4.226
REMARK  4 active torsions:
REMARK  status: ('A' for Active; 'I' for Inactive)
REMARK    1  A    between atoms: C2_2  and  C3_3 
REMARK    2  A    between atoms: C3_3  and  C4_4 
REMARK       I    between atoms: C4_4  and  N1_6 
REMARK    3  A    between atoms: N1_6  and  C5_7 
REMARK    4  A    between atoms: C14_19  and  C15_20 
ROOT
HETATM    1  C5  UNL     1      24.509   2.028  53.407  1.00  0.00     0.158 A 
HETATM    2  C6  UNL     1      24.284   3.411  52.984  1.00  0.00     0.015 A 
HETATM    3  C7  UNL     1      23.264   3.930  52.333  1.00  0.00    -0.011 A 
HETATM    4  C8  UNL     1      23.245   5.386  52.003  1.00  0.00     0.189 A 
HETATM    5  N2  UNL     1      22.044   5.712  51.298  1.00  0.00    -0.295 NA
HETATM    6  C9  UNL     1      21.104   4.913  50.978  1.00  0.00     0.135 A 
HETATM    7  C10 UNL     1      21.142   3.493  51.310  1.00  0.00     0.088 A 
HETATM    8  C11 UNL     1      20.092   2.580  50.958  1.00  0.00     0.103 C 
HETATM    9  N3  UNL     1      19.230   1.839  50.689  1.00  0.00    -0.191 NA
HETATM   10  C12 UNL     1      22.196   3.001  51.974  1.00  0.00     0.062 A 
HETATM   11  N4  UNL     1      22.304   1.629  52.332  1.00  0.00    -0.356 N 
HETATM   12  C13 UNL     1      23.423   1.112  53.036  1.00  0.00     0.033 A 
HETATM   13  C14 UNL     1      23.505  -0.157  53.357  1.00  0.00     0.011 C 
HETATM   14  H12 UNL     1      21.509   1.058  52.038  1.00  0.00     0.166 HD
ENDROOT
BRANCH   1  15
HETATM   15  N1  UNL     1      25.813   1.604  52.957  1.00  0.00    -0.348 N 
HETATM   16  C4  UNL     1      26.936   1.204  53.740  1.00  0.00     0.221 C 
HETATM   17  O1  UNL     1      26.642   1.265  54.981  1.00  0.00    -0.273 OA
HETATM   18  H6  UNL     1      25.863   1.619  51.902  1.00  0.00     0.163 HD
BRANCH  16  19
HETATM   19  C3  UNL     1      28.207   0.797  53.110  1.00  0.00     0.129 C 
BRANCH  19  20
HETATM   20  C2  UNL     1      28.335  -0.675  53.282  1.00  0.00    -0.028 C 
HETATM   21  C1  UNL     1      29.489  -1.355  53.442  1.00  0.00     0.007 C 
ENDBRANCH  19  20
ENDBRANCH  16  19
ENDBRANCH   1  15
BRANCH  13  22
HETATM   22  C15 UNL     1      22.552  -1.241  53.093  1.00  0.00     0.114 C 
HETATM   23 BR1  UNL     1      21.181  -1.316  54.459  1.00  0.00    -0.092 Br
ENDBRANCH  13  22
TORSDOF 4
ENDMDL
MODEL 7
REMARK VINA RESULT:      -6.6      3.025      5.640
REMARK  4 active torsions:
REMARK  status: ('A' for Active; 'I' for Inactive)
REMARK    1  A    between atoms: C2_2  and  C3_3 
REMARK    2  A    between atoms: C3_3  and  C4_4 
REMARK       I    between atoms: C4_4  and  N1_6 
REMARK    3  A    between atoms: N1_6  and  C5_7 
REMARK    4  A    between atoms: C14_19  and  C15_20 
ROOT
HETATM    1  C5  UNL     1      25.157   3.264  50.598  1.00  0.00     0.158 A 
HETATM    2  C6  UNL     1      26.241   2.580  51.305  1.00  0.00     0.015 A 
HETATM    3  C7  UNL     1      26.189   1.536  52.105  1.00  0.00    -0.011 A 
HETATM    4  C8  UNL     1      27.437   1.000  52.724  1.00  0.00     0.189 A 
HETATM    5  N2  UNL     1      27.130  -0.128  53.548  1.00  0.00    -0.295 NA
HETATM    6  C9  UNL     1      25.978  -0.634  53.752  1.00  0.00     0.135 A 
HETATM    7  C10 UNL     1      24.770  -0.095  53.138  1.00  0.00     0.088 A 
HETATM    8  C11 UNL     1      23.466  -0.652  53.357  1.00  0.00     0.103 C 
HETATM    9  N3  UNL     1      22.406  -1.117  53.519  1.00  0.00    -0.191 NA
HETATM   10  C12 UNL     1      24.862   0.969  52.329  1.00  0.00     0.062 A 
HETATM   11  N4  UNL     1      23.729   1.549  51.694  1.00  0.00    -0.356 N 
HETATM   12  C13 UNL     1      23.832   2.677  50.837  1.00  0.00     0.033 A 
HETATM   13  C14 UNL     1      22.777   3.199  50.261  1.00  0.00     0.011 C 
HETATM   14  H12 UNL     1      22.846   1.084  51.911  1.00  0.00     0.166 HD
ENDROOT
BRANCH   1  15
HETATM   15  N1  UNL     1      25.230   4.678  50.877  1.00  0.00    -0.348 N 
HETATM   16  C4  UNL     1      25.419   5.756  49.963  1.00  0.00     0.221 C 
HETATM   17  O1  UNL     1      25.525   5.300  48.774  1.00  0.00    -0.273 OA
HETATM   18  H6  UNL     1      25.122   4.856  51.913  1.00  0.00     0.163 HD
BRANCH  16  19
HETATM   19  C3  UNL     1      25.471   7.156  50.423  1.00  0.00     0.129 C 
BRANCH  19  20
HETATM   20  C2  UNL     1      24.122   7.500  50.946  1.00  0.00    -0.028 C 
HETATM   21  C1  UNL     1      22.970   7.473  50.244  1.00  0.00     0.007 C 
ENDBRANCH  19  20
ENDBRANCH  16  19
ENDBRANCH   1  15
BRANCH  13  22
HETATM   22  C15 UNL     1      21.372   2.783  50.354  1.00  0.00     0.114 C 
HETATM   23 BR1  UNL     1      20.526   3.528  51.930  1.00  0.00    -0.092 Br
ENDBRANCH  13  22
TORSDOF 4
ENDMDL
MODEL 8
REMARK VINA RESULT:      -6.5      3.019      5.632
REMARK  4 active torsions:
REMARK  status: ('A' for Active; 'I' for Inactive)
REMARK    1  A    between atoms: C2_2  and  C3_3 
REMARK    2  A    between atoms: C3_3  and  C4_4 
REMARK       I    between atoms: C4_4  and  N1_6 
REMARK    3  A    between atoms: N1_6  and  C5_7 
REMARK    4  A    between atoms: C14_19  and  C15_20 
ROOT
HETATM    1  C5  UNL     1      22.216   2.092  51.551  1.00  0.00     0.158 A 
HETATM    2  C6  UNL     1      21.475   1.215  52.460  1.00  0.00     0.015 A 
HETATM    3  C7  UNL     1      21.929   0.353  53.344  1.00  0.00    -0.011 A 
HETATM    4  C8  UNL     1      20.979  -0.445  54.174  1.00  0.00     0.189 A 
HETATM    5  N2  UNL     1      21.703  -1.306  55.056  1.00  0.00    -0.295 NA
HETATM    6  C9  UNL     1      22.969  -1.412  55.153  1.00  0.00     0.135 A 
HETATM    7  C10 UNL     1      23.882  -0.623  54.332  1.00  0.00     0.088 A 
HETATM    8  C11 UNL     1      25.310  -0.728  54.429  1.00  0.00     0.103 C 
HETATM    9  N3  UNL     1      26.472  -0.799  54.521  1.00  0.00    -0.191 NA
HETATM   10  C12 UNL     1      23.383   0.245  53.442  1.00  0.00     0.062 A 
HETATM   11  N4  UNL     1      24.209   1.048  52.608  1.00  0.00    -0.356 N 
HETATM   12  C13 UNL     1      23.674   1.967  51.667  1.00  0.00     0.033 A 
HETATM   13  C14 UNL     1      24.452   2.698  50.906  1.00  0.00     0.011 C 
HETATM   14  H12 UNL     1      25.210   0.902  52.750  1.00  0.00     0.166 HD
ENDROOT
BRANCH   1  15
HETATM   15  N1  UNL     1      21.717   1.909  50.209  1.00  0.00    -0.348 N 
HETATM   16  C4  UNL     1      20.814   2.735  49.477  1.00  0.00     0.221 C 
HETATM   17  O1  UNL     1      20.465   3.733  50.192  1.00  0.00    -0.273 OA
HETATM   18  H6  UNL     1      22.118   1.030  49.782  1.00  0.00     0.163 HD
BRANCH  16  19
HETATM   19  C3  UNL     1      20.404   2.397  48.101  1.00  0.00     0.129 C 
BRANCH  19  20
HETATM   20  C2  UNL     1      21.007   3.413  47.197  1.00  0.00    -0.028 C 
HETATM   21  C1  UNL     1      22.273   3.874  47.257  1.00  0.00     0.007 C 
ENDBRANCH  19  20
ENDBRANCH  16  19
ENDBRANCH   1  15
BRANCH  13  22
HETATM   22  C15 UNL     1      25.918   2.739  50.850  1.00  0.00     0.114 C 
HETATM   23 BR1  UNL     1      26.531   3.953  49.471  1.00  0.00    -0.092 Br
ENDBRANCH  13  22
TORSDOF 4
ENDMDL
MODEL 9
REMARK VINA RESULT:      -6.3      3.263      4.631
REMARK  4 active torsions:
REMARK  status: ('A' for Active; 'I' for Inactive)
REMARK    1  A    between atoms: C2_2  and  C3_3 
REMARK    2  A    between atoms: C3_3  and  C4_4 
REMARK       I    between atoms: C4_4  and  N1_6 
REMARK    3  A    between atoms: N1_6  and  C5_7 
REMARK    4  A    between atoms: C14_19  and  C15_20 
ROOT
HETATM    1  C5  UNL     1      23.740   1.790  52.133  1.00  0.00     0.158 A 
HETATM    2  C6  UNL     1      23.766   2.317  50.767  1.00  0.00     0.015 A 
HETATM    3  C7  UNL     1      22.810   2.338  49.862  1.00  0.00    -0.011 A 
HETATM    4  C8  UNL     1      23.062   2.934  48.517  1.00  0.00     0.189 A 
HETATM    5  N2  UNL     1      21.883   2.842  47.712  1.00  0.00    -0.295 NA
HETATM    6  C9  UNL     1      20.764   2.336  48.051  1.00  0.00     0.135 A 
HETATM    7  C10 UNL     1      20.538   1.758  49.371  1.00  0.00     0.088 A 
HETATM    8  C11 UNL     1      19.284   1.184  49.770  1.00  0.00     0.103 C 
HETATM    9  N3  UNL     1      18.258   0.735  50.102  1.00  0.00    -0.191 NA
HETATM   10  C12 UNL     1      21.534   1.754  50.267  1.00  0.00     0.062 A 
HETATM   11  N4  UNL     1      21.389   1.210  51.573  1.00  0.00    -0.356 N 
HETATM   12  C13 UNL     1      22.448   1.208  52.519  1.00  0.00     0.033 A 
HETATM   13  C14 UNL     1      22.296   0.701  53.718  1.00  0.00     0.011 C 
HETATM   14  H12 UNL     1      20.462   0.825  51.763  1.00  0.00     0.166 HD
ENDROOT
BRANCH   1  15
HETATM   15  N1  UNL     1      24.861   0.901  52.316  1.00  0.00    -0.348 N 
HETATM   16  C4  UNL     1      26.009   1.077  53.144  1.00  0.00     0.221 C 
HETATM   17  O1  UNL     1      25.934   2.195  53.755  1.00  0.00    -0.273 OA
HETATM   18  H6  UNL     1      24.743   0.031  51.728  1.00  0.00     0.163 HD
BRANCH  16  19
HETATM   19  C3  UNL     1      27.073   0.057  53.213  1.00  0.00     0.129 C 
BRANCH  19  20
HETATM   20  C2  UNL     1      26.488  -1.226  52.737  1.00  0.00    -0.028 C 
HETATM   21  C1  UNL     1      27.175  -2.351  52.453  1.00  0.00     0.007 C 
ENDBRANCH  19  20
ENDBRANCH  16  19
ENDBRANCH   1  15
BRANCH  13  22
HETATM   22  C15 UNL     1      21.109   0.074  54.313  1.00  0.00     0.114 C 
HETATM   23 BR1  UNL     1      21.313  -1.849  54.419  1.00  0.00    -0.092 Br
ENDBRANCH  13  22
TORSDOF 4
ENDMDL
