MODEL 1
REMARK VINA RESULT:      -7.0      0.000      0.000
REMARK  7 active torsions:
REMARK  status: ('A' for Active; 'I' for Inactive)
REMARK    1  A    between atoms: C6_7  and  C7_8 
REMARK    2  A    between atoms: C7_8  and  C16_21 
REMARK    3  A    between atoms: C11_14  and  N3_15 
REMARK    4  A    between atoms: N3_15  and  C12_16 
REMARK    5  A    between atoms: C16_21  and  C17_22 
REMARK    6  A    between atoms: C16_21  and  O3_24 
REMARK    7  A    between atoms: C17_22  and  O2_23 
ROOT
HETATM    1  C7  UNL     1      22.848   1.490  52.090  1.00  0.00    -0.033 C 
HETATM    2  C8  UNL     1      22.783   0.502  53.034  1.00  0.00     0.013 A 
HETATM    3  C9  UNL     1      21.481  -0.132  53.317  1.00  0.00     0.193 A 
HETATM    4  N1  UNL     1      21.597  -1.144  54.309  1.00  0.00    -0.278 NA
HETATM    5  C10 UNL     1      22.564  -1.549  54.954  1.00  0.00     0.229 A 
HETATM    6  N2  UNL     1      23.798  -0.944  54.706  1.00  0.00    -0.225 NA
HETATM    7  C11 UNL     1      23.873  -0.018  53.837  1.00  0.00     0.133 A 
ENDROOT
BRANCH   1   8
HETATM    8  C6  UNL     1      21.572   1.795  51.473  1.00  0.00     0.031 C 
HETATM    9  C2  UNL     1      21.332   1.623  50.049  1.00  0.00    -0.001 C 
HETATM   10  C1  UNL     1      21.888   1.430  48.874  1.00  0.00     0.014 C 
HETATM   11  C3  UNL     1      19.835   1.699  49.788  1.00  0.00     0.178 C 
HETATM   12  O1  UNL     1      19.232   1.866  51.024  1.00  0.00    -0.390 OA
HETATM   13  C4  UNL     1      19.527   3.055  51.673  1.00  0.00     0.168 C 
HETATM   14  C5  UNL     1      21.070   3.243  51.731  1.00  0.00     0.036 C 
ENDBRANCH   1   8
BRANCH   1  15
HETATM   15  C16 UNL     1      23.847   2.313  51.478  1.00  0.00     0.174 C 
BRANCH  15  16
HETATM   16  C17 UNL     1      24.190   3.622  52.195  1.00  0.00     0.200 C 
BRANCH  16  17
HETATM   17  O2  UNL     1      24.561   3.333  53.533  1.00  0.00    -0.398 OA
HETATM   18  H21 UNL     1      24.943   4.191  53.899  1.00  0.00     0.209 HD
ENDBRANCH  16  17
ENDBRANCH  15  16
BRANCH  15  19
HETATM   19  O3  UNL     1      25.113   1.744  51.265  1.00  0.00    -0.384 OA
HETATM   20  C18 UNL     1      25.901   2.713  50.634  1.00  0.00     0.202 C 
ENDBRANCH  15  19
ENDBRANCH   1  15
BRANCH   7  21
HETATM   21  N3  UNL     1      25.168   0.525  53.706  1.00  0.00    -0.364 N 
HETATM   22  H13 UNL     1      25.232   1.437  53.271  1.00  0.00     0.162 HD
BRANCH  21  23
HETATM   23  C12 UNL     1      26.392  -0.159  54.165  1.00  0.00     0.131 A 
HETATM   24  C13 UNL     1      27.511   0.819  54.282  1.00  0.00     0.059 A 
HETATM   25  C14 UNL     1      28.174   0.024  53.270  1.00  0.00    -0.003 A 
HETATM   26  C15 UNL     1      27.193  -0.824  53.175  1.00  0.00     0.031 A 
HETATM   27 CL1  UNL     1      26.786  -2.286  52.264  1.00  0.00    -0.087 Cl
ENDBRANCH  21  23
ENDBRANCH   7  21
TORSDOF 7
ENDMDL
MODEL 2
REMARK VINA RESULT:      -6.7      3.301      4.849
REMARK  7 active torsions:
REMARK  status: ('A' for Active; 'I' for Inactive)
REMARK    1  A    between atoms: C6_7  and  C7_8 
REMARK    2  A    between atoms: C7_8  and  C16_21 
REMARK    3  A    between atoms: C11_14  and  N3_15 
REMARK    4  A    between atoms: N3_15  and  C12_16 
REMARK    5  A    between atoms: C16_21  and  C17_22 
REMARK    6  A    between atoms: C16_21  and  O3_24 
REMARK    7  A    between atoms: C17_22  and  O2_23 
ROOT
HETATM    1  C7  UNL     1      23.303   3.013  51.050  1.00  0.00    -0.033 C 
HETATM    2  C8  UNL     1      24.549   2.510  51.311  1.00  0.00     0.013 A 
HETATM    3  C9  UNL     1      24.666   1.172  51.920  1.00  0.00     0.193 A 
HETATM    4  N1  UNL     1      26.026   0.801  52.109  1.00  0.00    -0.278 NA
HETATM    5  C10 UNL     1      27.077   1.397  51.870  1.00  0.00     0.229 A 
HETATM    6  N2  UNL     1      26.975   2.671  51.309  1.00  0.00    -0.225 NA
HETATM    7  C11 UNL     1      25.824   3.156  51.068  1.00  0.00     0.133 A 
ENDROOT
BRANCH   1   8
HETATM    8  C6  UNL     1      22.221   2.124  51.429  1.00  0.00     0.031 C 
HETATM    9  C2  UNL     1      21.546   1.264  50.470  1.00  0.00    -0.001 C 
HETATM   10  C1  UNL     1      21.349   1.009  49.195  1.00  0.00     0.014 C 
HETATM   11  C3  UNL     1      20.720   0.235  51.227  1.00  0.00     0.178 C 
HETATM   12  O1  UNL     1      20.947   0.467  52.574  1.00  0.00    -0.390 OA
HETATM   13  C4  UNL     1      20.493   1.687  53.050  1.00  0.00     0.168 C 
HETATM   14  C5  UNL     1      21.039   2.830  52.147  1.00  0.00     0.036 C 
ENDBRANCH   1   8
BRANCH   1  15
HETATM   15  C16 UNL     1      22.731   4.181  50.454  1.00  0.00     0.174 C 
BRANCH  15  16
HETATM   16  C17 UNL     1      23.072   5.523  51.108  1.00  0.00     0.200 C 
BRANCH  16  17
HETATM   17  O2  UNL     1      23.351   5.310  52.482  1.00  0.00    -0.398 OA
HETATM   18  H21 UNL     1      22.860   4.466  52.730  1.00  0.00     0.209 HD
ENDBRANCH  16  17
ENDBRANCH  15  16
BRANCH  15  19
HETATM   19  O3  UNL     1      23.018   4.424  49.100  1.00  0.00    -0.384 OA
HETATM   20  C18 UNL     1      21.820   4.804  48.485  1.00  0.00     0.202 C 
ENDBRANCH  15  19
ENDBRANCH   1  15
BRANCH   7  21
HETATM   21  N3  UNL     1      25.865   4.459  50.530  1.00  0.00    -0.364 N 
HETATM   22  H13 UNL     1      25.706   5.219  51.180  1.00  0.00     0.162 HD
BRANCH  21  23
HETATM   23  C12 UNL     1      26.124   4.748  49.107  1.00  0.00     0.131 A 
HETATM   24  C13 UNL     1      27.585   4.654  48.823  1.00  0.00     0.059 A 
HETATM   25  C14 UNL     1      27.501   6.054  48.466  1.00  0.00    -0.003 A 
HETATM   26  C15 UNL     1      26.227   6.127  48.717  1.00  0.00     0.031 A 
HETATM   27 CL1  UNL     1      24.932   7.333  48.668  1.00  0.00    -0.087 Cl
ENDBRANCH  21  23
ENDBRANCH   7  21
TORSDOF 7
ENDMDL
MODEL 3
REMARK VINA RESULT:      -6.6      2.773      6.413
REMARK  7 active torsions:
REMARK  status: ('A' for Active; 'I' for Inactive)
REMARK    1  A    between atoms: C6_7  and  C7_8 
REMARK    2  A    between atoms: C7_8  and  C16_21 
REMARK    3  A    between atoms: C11_14  and  N3_15 
REMARK    4  A    between atoms: N3_15  and  C12_16 
REMARK    5  A    between atoms: C16_21  and  C17_22 
REMARK    6  A    between atoms: C16_21  and  O3_24 
REMARK    7  A    between atoms: C17_22  and  O2_23 
ROOT
HETATM    1  C7  UNL     1      24.426   0.321  53.291  1.00  0.00    -0.033 C 
HETATM    2  C8  UNL     1      24.180   1.529  52.696  1.00  0.00     0.013 A 
HETATM    3  C9  UNL     1      25.319   2.393  52.335  1.00  0.00     0.193 A 
HETATM    4  N1  UNL     1      24.885   3.598  51.716  1.00  0.00    -0.278 NA
HETATM    5  C10 UNL     1      23.760   4.025  51.457  1.00  0.00     0.229 A 
HETATM    6  N2  UNL     1      22.675   3.221  51.810  1.00  0.00    -0.225 NA
HETATM    7  C11 UNL     1      22.887   2.099  52.372  1.00  0.00     0.133 A 
ENDROOT
BRANCH   1   8
HETATM    8  C6  UNL     1      25.835   0.047  53.498  1.00  0.00     0.031 C 
HETATM    9  C2  UNL     1      26.519  -1.059  52.848  1.00  0.00    -0.001 C 
HETATM   10  C1  UNL     1      26.369  -2.179  52.175  1.00  0.00     0.014 C 
HETATM   11  C3  UNL     1      28.020  -0.869  52.998  1.00  0.00     0.178 C 
HETATM   12  O1  UNL     1      28.195   0.328  53.674  1.00  0.00    -0.390 OA
HETATM   13  C4  UNL     1      27.715   0.351  54.974  1.00  0.00     0.168 C 
HETATM   14  C5  UNL     1      26.236  -0.132  54.988  1.00  0.00     0.036 C 
ENDBRANCH   1   8
BRANCH   1  15
HETATM   15  C16 UNL     1      23.680  -0.811  53.748  1.00  0.00     0.174 C 
BRANCH  15  16
HETATM   16  C17 UNL     1      22.953  -0.659  55.087  1.00  0.00     0.200 C 
BRANCH  16  17
HETATM   17  O2  UNL     1      23.452  -1.626  55.996  1.00  0.00    -0.398 OA
HETATM   18  H21 UNL     1      22.650  -1.948  56.516  1.00  0.00     0.209 HD
ENDBRANCH  16  17
ENDBRANCH  15  16
BRANCH  15  19
HETATM   19  O3  UNL     1      22.666  -1.302  52.907  1.00  0.00    -0.384 OA
HETATM   20  C18 UNL     1      21.656  -1.809  53.731  1.00  0.00     0.202 C 
ENDBRANCH  15  19
ENDBRANCH   1  15
BRANCH   7  21
HETATM   21  N3  UNL     1      21.705   1.404  52.700  1.00  0.00    -0.364 N 
HETATM   22  H13 UNL     1      21.765   0.755  53.476  1.00  0.00     0.162 HD
BRANCH  21  23
HETATM   23  C12 UNL     1      20.426   1.579  51.985  1.00  0.00     0.131 A 
HETATM   24  C13 UNL     1      19.371   0.730  52.608  1.00  0.00     0.059 A 
HETATM   25  C14 UNL     1      19.299   0.061  51.327  1.00  0.00    -0.003 A 
HETATM   26  C15 UNL     1      20.221   0.806  50.792  1.00  0.00     0.031 A 
HETATM   27 CL1  UNL     1      21.049   0.982  49.238  1.00  0.00    -0.087 Cl
ENDBRANCH  21  23
ENDBRANCH   7  21
TORSDOF 7
ENDMDL
MODEL 4
REMARK VINA RESULT:      -6.6      2.560      5.719
REMARK  7 active torsions:
REMARK  status: ('A' for Active; 'I' for Inactive)
REMARK    1  A    between atoms: C6_7  and  C7_8 
REMARK    2  A    between atoms: C7_8  and  C16_21 
REMARK    3  A    between atoms: C11_14  and  N3_15 
REMARK    4  A    between atoms: N3_15  and  C12_16 
REMARK    5  A    between atoms: C16_21  and  C17_22 
REMARK    6  A    between atoms: C16_21  and  O3_24 
REMARK    7  A    between atoms: C17_22  and  O2_23 
ROOT
HETATM    1  C7  UNL     1      24.533   1.196  52.976  1.00  0.00    -0.033 C 
HETATM    2  C8  UNL     1      23.443   0.480  53.391  1.00  0.00     0.013 A 
HETATM    3  C9  UNL     1      23.653  -0.810  54.077  1.00  0.00     0.193 A 
HETATM    4  N1  UNL     1      22.420  -1.410  54.451  1.00  0.00    -0.278 NA
HETATM    5  C10 UNL     1      21.254  -1.051  54.289  1.00  0.00     0.229 A 
HETATM    6  N2  UNL     1      21.044   0.159  53.627  1.00  0.00    -0.225 NA
HETATM    7  C11 UNL     1      22.046   0.833  53.227  1.00  0.00     0.133 A 
ENDROOT
BRANCH   1   8
HETATM    8  C6  UNL     1      25.801   0.559  53.275  1.00  0.00     0.031 C 
HETATM    9  C2  UNL     1      26.966   1.309  53.716  1.00  0.00    -0.001 C 
HETATM   10  C1  UNL     1      27.503   2.503  53.834  1.00  0.00     0.014 C 
HETATM   11  C3  UNL     1      28.000   0.337  54.263  1.00  0.00     0.178 C 
HETATM   12  O1  UNL     1      27.433  -0.924  54.179  1.00  0.00    -0.390 OA
HETATM   13  C4  UNL     1      27.182  -1.378  52.894  1.00  0.00     0.168 C 
HETATM   14  C5  UNL     1      26.369  -0.304  52.116  1.00  0.00     0.036 C 
ENDBRANCH   1   8
BRANCH   1  15
HETATM   15  C16 UNL     1      24.803   2.453  52.348  1.00  0.00     0.174 C 
BRANCH  15  16
HETATM   16  C17 UNL     1      24.691   2.495  50.821  1.00  0.00     0.200 C 
BRANCH  16  17
HETATM   17  O2  UNL     1      25.991   2.591  50.264  1.00  0.00    -0.398 OA
HETATM   18  H21 UNL     1      25.983   3.425  49.698  1.00  0.00     0.209 HD
ENDBRANCH  16  17
ENDBRANCH  15  16
BRANCH  15  19
HETATM   19  O3  UNL     1      24.022   3.554  52.739  1.00  0.00    -0.384 OA
HETATM   20  C18 UNL     1      24.051   4.475  51.687  1.00  0.00     0.202 C 
ENDBRANCH  15  19
ENDBRANCH   1  15
BRANCH   7  21
HETATM   21  N3  UNL     1      21.692   2.018  52.549  1.00  0.00    -0.364 N 
HETATM   22  H13 UNL     1      22.124   2.872  52.881  1.00  0.00     0.162 HD
BRANCH  21  23
HETATM   23  C12 UNL     1      20.752   2.061  51.413  1.00  0.00     0.131 A 
HETATM   24  C13 UNL     1      21.251   1.201  50.303  1.00  0.00     0.059 A 
HETATM   25  C14 UNL     1      21.302   2.419  49.522  1.00  0.00    -0.003 A 
HETATM   26  C15 UNL     1      20.867   3.161  50.497  1.00  0.00     0.031 A 
HETATM   27 CL1  UNL     1      20.488   4.863  50.802  1.00  0.00    -0.087 Cl
ENDBRANCH  21  23
ENDBRANCH   7  21
TORSDOF 7
ENDMDL
MODEL 5
REMARK VINA RESULT:      -6.6      2.450      5.643
REMARK  7 active torsions:
REMARK  status: ('A' for Active; 'I' for Inactive)
REMARK    1  A    between atoms: C6_7  and  C7_8 
REMARK    2  A    between atoms: C7_8  and  C16_21 
REMARK    3  A    between atoms: C11_14  and  N3_15 
REMARK    4  A    between atoms: N3_15  and  C12_16 
REMARK    5  A    between atoms: C16_21  and  C17_22 
REMARK    6  A    between atoms: C16_21  and  O3_24 
REMARK    7  A    between atoms: C17_22  and  O2_23 
ROOT
HETATM    1  C7  UNL     1      25.184   0.612  52.803  1.00  0.00    -0.033 C 
HETATM    2  C8  UNL     1      24.184   0.023  53.528  1.00  0.00     0.013 A 
HETATM    3  C9  UNL     1      24.542  -0.899  54.622  1.00  0.00     0.193 A 
HETATM    4  N1  UNL     1      23.387  -1.408  55.276  1.00  0.00    -0.278 NA
HETATM    5  C10 UNL     1      22.186  -1.223  55.077  1.00  0.00     0.229 A 
HETATM    6  N2  UNL     1      21.837  -0.364  54.033  1.00  0.00    -0.225 NA
HETATM    7  C11 UNL     1      22.755   0.185  53.344  1.00  0.00     0.133 A 
ENDROOT
BRANCH   1   8
HETATM    8  C6  UNL     1      26.518   0.229  53.226  1.00  0.00     0.031 C 
HETATM    9  C2  UNL     1      27.111  -1.049  52.869  1.00  0.00    -0.001 C 
HETATM   10  C1  UNL     1      26.883  -2.253  52.392  1.00  0.00     0.014 C 
HETATM   11  C3  UNL     1      28.602  -1.001  53.166  1.00  0.00     0.178 C 
HETATM   12  O1  UNL     1      28.865   0.275  53.636  1.00  0.00    -0.390 OA
HETATM   13  C4  UNL     1      28.265   0.598  54.843  1.00  0.00     0.168 C 
HETATM   14  C5  UNL     1      26.742   0.293  54.762  1.00  0.00     0.036 C 
ENDBRANCH   1   8
BRANCH   1  15
HETATM   15  C16 UNL     1      25.310   1.562  51.740  1.00  0.00     0.174 C 
BRANCH  15  16
HETATM   16  C17 UNL     1      24.823   2.985  52.030  1.00  0.00     0.200 C 
BRANCH  16  17
HETATM   17  O2  UNL     1      24.964   3.249  53.416  1.00  0.00    -0.398 OA
HETATM   18  H21 UNL     1      25.928   3.051  53.633  1.00  0.00     0.209 HD
ENDBRANCH  16  17
ENDBRANCH  15  16
BRANCH  15  19
HETATM   19  O3  UNL     1      26.595   1.783  51.217  1.00  0.00    -0.384 OA
HETATM   20  C18 UNL     1      26.506   2.880  50.353  1.00  0.00     0.202 C 
ENDBRANCH  15  19
ENDBRANCH   1  15
BRANCH   7  21
HETATM   21  N3  UNL     1      22.264   1.003  52.306  1.00  0.00    -0.364 N 
HETATM   22  H13 UNL     1      22.317   2.003  52.458  1.00  0.00     0.162 HD
BRANCH  21  23
HETATM   23  C12 UNL     1      21.698   0.479  51.048  1.00  0.00     0.131 A 
HETATM   24  C13 UNL     1      21.954   1.435  49.934  1.00  0.00     0.059 A 
HETATM   25  C14 UNL     1      20.514   1.538  49.831  1.00  0.00    -0.003 A 
HETATM   26  C15 UNL     1      20.301   0.703  50.804  1.00  0.00     0.031 A 
HETATM   27 CL1  UNL     1      18.928  -0.019  51.657  1.00  0.00    -0.087 Cl
ENDBRANCH  21  23
ENDBRANCH   7  21
TORSDOF 7
ENDMDL
MODEL 6
REMARK VINA RESULT:      -6.4      3.623      6.690
REMARK  7 active torsions:
REMARK  status: ('A' for Active; 'I' for Inactive)
REMARK    1  A    between atoms: C6_7  and  C7_8 
REMARK    2  A    between atoms: C7_8  and  C16_21 
REMARK    3  A    between atoms: C11_14  and  N3_15 
REMARK    4  A    between atoms: N3_15  and  C12_16 
REMARK    5  A    between atoms: C16_21  and  C17_22 
REMARK    6  A    between atoms: C16_21  and  O3_24 
REMARK    7  A    between atoms: C17_22  and  O2_23 
ROOT
HETATM    1  C7  UNL     1      24.332   3.219  51.665  1.00  0.00    -0.033 C 
HETATM    2  C8  UNL     1      25.176   3.748  50.727  1.00  0.00     0.013 A 
HETATM    3  C9  UNL     1      26.499   3.127  50.525  1.00  0.00     0.193 A 
HETATM    4  N1  UNL     1      27.238   3.790  49.507  1.00  0.00    -0.278 NA
HETATM    5  C10 UNL     1      26.970   4.766  48.807  1.00  0.00     0.229 A 
HETATM    6  N2  UNL     1      25.727   5.371  49.002  1.00  0.00    -0.225 NA
HETATM    7  C11 UNL     1      24.934   4.897  49.876  1.00  0.00     0.133 A 
ENDROOT
BRANCH   1   8
HETATM    8  C6  UNL     1      24.879   2.074  52.367  1.00  0.00     0.031 C 
HETATM    9  C2  UNL     1      24.108   0.864  52.605  1.00  0.00    -0.001 C 
HETATM   10  C1  UNL     1      22.908   0.326  52.600  1.00  0.00     0.014 C 
HETATM   11  C3  UNL     1      25.053  -0.244  53.046  1.00  0.00     0.178 C 
HETATM   12  O1  UNL     1      26.328   0.298  53.020  1.00  0.00    -0.390 OA
HETATM   13  C4  UNL     1      26.556   1.323  53.925  1.00  0.00     0.168 C 
HETATM   14  C5  UNL     1      25.445   2.402  53.775  1.00  0.00     0.036 C 
ENDBRANCH   1   8
BRANCH   1  15
HETATM   15  C16 UNL     1      23.003   3.445  52.148  1.00  0.00     0.174 C 
BRANCH  15  16
HETATM   16  C17 UNL     1      22.724   4.813  52.776  1.00  0.00     0.200 C 
BRANCH  16  17
HETATM   17  O2  UNL     1      23.947   5.374  53.224  1.00  0.00    -0.398 OA
HETATM   18  H21 UNL     1      23.737   5.807  54.110  1.00  0.00     0.209 HD
ENDBRANCH  16  17
ENDBRANCH  15  16
BRANCH  15  19
HETATM   19  O3  UNL     1      21.949   3.313  51.228  1.00  0.00    -0.384 OA
HETATM   20  C18 UNL     1      20.780   3.721  51.880  1.00  0.00     0.202 C 
ENDBRANCH  15  19
ENDBRANCH   1  15
BRANCH   7  21
HETATM   21  N3  UNL     1      23.728   5.619  49.990  1.00  0.00    -0.364 N 
HETATM   22  H13 UNL     1      23.448   5.882  50.928  1.00  0.00     0.162 HD
BRANCH  21  23
HETATM   23  C12 UNL     1      22.888   5.996  48.838  1.00  0.00     0.131 A 
HETATM   24  C13 UNL     1      21.688   6.748  49.304  1.00  0.00     0.059 A 
HETATM   25  C14 UNL     1      20.917   5.663  48.737  1.00  0.00    -0.003 A 
HETATM   26  C15 UNL     1      21.969   5.014  48.335  1.00  0.00     0.031 A 
HETATM   27 CL1  UNL     1      22.357   3.509  47.487  1.00  0.00    -0.087 Cl
ENDBRANCH  21  23
ENDBRANCH   7  21
TORSDOF 7
ENDMDL
MODEL 7
REMARK VINA RESULT:      -6.3      3.303      5.700
REMARK  7 active torsions:
REMARK  status: ('A' for Active; 'I' for Inactive)
REMARK    1  A    between atoms: C6_7  and  C7_8 
REMARK    2  A    between atoms: C7_8  and  C16_21 
REMARK    3  A    between atoms: C11_14  and  N3_15 
REMARK    4  A    between atoms: N3_15  and  C12_16 
REMARK    5  A    between atoms: C16_21  and  C17_22 
REMARK    6  A    between atoms: C16_21  and  O3_24 
REMARK    7  A    between atoms: C17_22  and  O2_23 
ROOT
HETATM    1  C7  UNL     1      24.028   3.684  50.110  1.00  0.00    -0.033 C 
HETATM    2  C8  UNL     1      23.019   3.266  49.285  1.00  0.00     0.013 A 
HETATM    3  C9  UNL     1      22.679   4.080  48.102  1.00  0.00     0.193 A 
HETATM    4  N1  UNL     1      21.622   3.494  47.351  1.00  0.00    -0.278 NA
HETATM    5  C10 UNL     1      20.964   2.469  47.528  1.00  0.00     0.229 A 
HETATM    6  N2  UNL     1      21.267   1.701  48.654  1.00  0.00    -0.225 NA
HETATM    7  C11 UNL     1      22.196   2.081  49.435  1.00  0.00     0.133 A 
ENDROOT
BRANCH   1   8
HETATM    8  C6  UNL     1      24.648   4.927  49.693  1.00  0.00     0.031 C 
HETATM    9  C2  UNL     1      26.010   4.988  49.187  1.00  0.00    -0.001 C 
HETATM   10  C1  UNL     1      27.149   4.344  49.067  1.00  0.00     0.014 C 
HETATM   11  C3  UNL     1      26.233   6.342  48.531  1.00  0.00     0.178 C 
HETATM   12  O1  UNL     1      25.027   7.020  48.618  1.00  0.00    -0.390 OA
HETATM   13  C4  UNL     1      24.610   7.327  49.903  1.00  0.00     0.168 C 
HETATM   14  C5  UNL     1      24.635   6.040  50.777  1.00  0.00     0.036 C 
ENDBRANCH   1   8
BRANCH   1  15
HETATM   15  C16 UNL     1      24.704   3.220  51.282  1.00  0.00     0.174 C 
BRANCH  15  16
HETATM   16  C17 UNL     1      23.881   3.163  52.572  1.00  0.00     0.200 C 
BRANCH  16  17
HETATM   17  O2  UNL     1      24.421   4.083  53.507  1.00  0.00    -0.398 OA
HETATM   18  H21 UNL     1      24.341   4.989  53.072  1.00  0.00     0.209 HD
ENDBRANCH  16  17
ENDBRANCH  15  16
BRANCH  15  19
HETATM   19  O3  UNL     1      25.280   1.939  51.234  1.00  0.00    -0.384 OA
HETATM   20  C18 UNL     1      26.551   2.035  51.809  1.00  0.00     0.202 C 
ENDBRANCH  15  19
ENDBRANCH   1  15
BRANCH   7  21
HETATM   21  N3  UNL     1      22.379   1.231  50.546  1.00  0.00    -0.364 N 
HETATM   22  H13 UNL     1      23.337   1.042  50.815  1.00  0.00     0.162 HD
BRANCH  21  23
HETATM   23  C12 UNL     1      21.267   0.629  51.307  1.00  0.00     0.131 A 
HETATM   24  C13 UNL     1      20.447   1.698  51.945  1.00  0.00     0.059 A 
HETATM   25  C14 UNL     1      20.833   1.097  53.204  1.00  0.00    -0.003 A 
HETATM   26  C15 UNL     1      21.546   0.169  52.638  1.00  0.00     0.031 A 
HETATM   27 CL1  UNL     1      22.545  -1.213  53.114  1.00  0.00    -0.087 Cl
ENDBRANCH  21  23
ENDBRANCH   7  21
TORSDOF 7
ENDMDL
MODEL 8
REMARK VINA RESULT:      -6.3      2.428      5.006
REMARK  7 active torsions:
REMARK  status: ('A' for Active; 'I' for Inactive)
REMARK    1  A    between atoms: C6_7  and  C7_8 
REMARK    2  A    between atoms: C7_8  and  C16_21 
REMARK    3  A    between atoms: C11_14  and  N3_15 
REMARK    4  A    between atoms: N3_15  and  C12_16 
REMARK    5  A    between atoms: C16_21  and  C17_22 
REMARK    6  A    between atoms: C16_21  and  O3_24 
REMARK    7  A    between atoms: C17_22  and  O2_23 
ROOT
HETATM    1  C7  UNL     1      23.535   2.547  51.433  1.00  0.00    -0.033 C 
HETATM    2  C8  UNL     1      24.364   1.895  52.305  1.00  0.00     0.013 A 
HETATM    3  C9  UNL     1      25.711   2.441  52.555  1.00  0.00     0.193 A 
HETATM    4  N1  UNL     1      26.430   1.651  53.493  1.00  0.00    -0.278 NA
HETATM    5  C10 UNL     1      26.128   0.621  54.095  1.00  0.00     0.229 A 
HETATM    6  N2  UNL     1      24.861   0.087  53.854  1.00  0.00    -0.225 NA
HETATM    7  C11 UNL     1      24.082   0.676  53.039  1.00  0.00     0.133 A 
ENDROOT
BRANCH   1   8
HETATM    8  C6  UNL     1      24.122   3.735  50.844  1.00  0.00     0.031 C 
HETATM    9  C2  UNL     1      23.562   5.062  51.041  1.00  0.00    -0.001 C 
HETATM   10  C1  UNL     1      22.516   5.746  51.451  1.00  0.00     0.014 C 
HETATM   11  C3  UNL     1      24.580   6.099  50.591  1.00  0.00     0.178 C 
HETATM   12  O1  UNL     1      25.703   5.394  50.190  1.00  0.00    -0.390 OA
HETATM   13  C4  UNL     1      25.529   4.582  49.081  1.00  0.00     0.168 C 
HETATM   14  C5  UNL     1      24.294   3.662  49.302  1.00  0.00     0.036 C 
ENDBRANCH   1   8
BRANCH   1  15
HETATM   15  C16 UNL     1      22.196   2.423  50.944  1.00  0.00     0.174 C 
BRANCH  15  16
HETATM   16  C17 UNL     1      21.866   1.148  50.162  1.00  0.00     0.200 C 
BRANCH  16  17
HETATM   17  O2  UNL     1      21.699   1.476  48.792  1.00  0.00    -0.398 OA
HETATM   18  H21 UNL     1      21.787   0.605  48.293  1.00  0.00     0.209 HD
ENDBRANCH  16  17
ENDBRANCH  15  16
BRANCH  15  19
HETATM   19  O3  UNL     1      21.154   2.477  51.885  1.00  0.00    -0.384 OA
HETATM   20  C18 UNL     1      20.098   3.179  51.294  1.00  0.00     0.202 C 
ENDBRANCH  15  19
ENDBRANCH   1  15
BRANCH   7  21
HETATM   21  N3  UNL     1      22.848   0.017  52.866  1.00  0.00    -0.364 N 
HETATM   22  H13 UNL     1      22.688  -0.409  51.960  1.00  0.00     0.162 HD
BRANCH  21  23
HETATM   23  C12 UNL     1      21.816  -0.077  53.916  1.00  0.00     0.131 A 
HETATM   24  C13 UNL     1      22.096  -1.241  54.805  1.00  0.00     0.059 A 
HETATM   25  C14 UNL     1      20.822  -1.759  54.355  1.00  0.00    -0.003 A 
HETATM   26  C15 UNL     1      20.587  -0.741  53.582  1.00  0.00     0.031 A 
HETATM   27 CL1  UNL     1      19.326  -0.180  52.473  1.00  0.00    -0.087 Cl
ENDBRANCH  21  23
ENDBRANCH   7  21
TORSDOF 7
ENDMDL
MODEL 9
REMARK VINA RESULT:      -6.2      3.671      5.641
REMARK  7 active torsions:
REMARK  status: ('A' for Active; 'I' for Inactive)
REMARK    1  A    between atoms: C6_7  and  C7_8 
REMARK    2  A    between atoms: C7_8  and  C16_21 
REMARK    3  A    between atoms: C11_14  and  N3_15 
REMARK    4  A    between atoms: N3_15  and  C12_16 
REMARK    5  A    between atoms: C16_21  and  C17_22 
REMARK    6  A    between atoms: C16_21  and  O3_24 
REMARK    7  A    between atoms: C17_22  and  O2_23 
ROOT
HETATM    1  C7  UNL     1      23.459   2.054  51.341  1.00  0.00    -0.033 C 
HETATM    2  C8  UNL     1      22.930   2.189  50.086  1.00  0.00     0.013 A 
HETATM    3  C9  UNL     1      21.832   1.294  49.674  1.00  0.00     0.193 A 
HETATM    4  N1  UNL     1      21.394   1.579  48.351  1.00  0.00    -0.278 NA
HETATM    5  C10 UNL     1      21.775   2.407  47.524  1.00  0.00     0.229 A 
HETATM    6  N2  UNL     1      22.825   3.248  47.899  1.00  0.00    -0.225 NA
HETATM    7  C11 UNL     1      23.334   3.130  49.059  1.00  0.00     0.133 A 
ENDROOT
BRANCH   1   8
HETATM    8  C6  UNL     1      22.844   1.001  52.126  1.00  0.00     0.031 C 
HETATM    9  C2  UNL     1      21.528   1.142  52.726  1.00  0.00    -0.001 C 
HETATM   10  C1  UNL     1      20.571   1.983  53.050  1.00  0.00     0.014 C 
HETATM   11  C3  UNL     1      21.042  -0.226  53.178  1.00  0.00     0.178 C 
HETATM   12  O1  UNL     1      22.026  -1.130  52.810  1.00  0.00    -0.390 OA
HETATM   13  C4  UNL     1      23.245  -0.972  53.449  1.00  0.00     0.168 C 
HETATM   14  C5  UNL     1      23.712   0.506  53.316  1.00  0.00     0.036 C 
ENDBRANCH   1   8
BRANCH   1  15
HETATM   15  C16 UNL     1      24.447   2.696  52.153  1.00  0.00     0.174 C 
BRANCH  15  16
HETATM   16  C17 UNL     1      25.909   2.353  51.854  1.00  0.00     0.200 C 
BRANCH  16  17
HETATM   17  O2  UNL     1      26.512   3.443  51.176  1.00  0.00    -0.398 OA
HETATM   18  H21 UNL     1      26.663   4.148  51.879  1.00  0.00     0.209 HD
ENDBRANCH  16  17
ENDBRANCH  15  16
BRANCH  15  19
HETATM   19  O3  UNL     1      24.463   4.101  52.164  1.00  0.00    -0.384 OA
HETATM   20  C18 UNL     1      23.401   4.520  52.972  1.00  0.00     0.202 C 
ENDBRANCH  15  19
ENDBRANCH   1  15
BRANCH   7  21
HETATM   21  N3  UNL     1      24.402   4.019  49.297  1.00  0.00    -0.364 N 
HETATM   22  H13 UNL     1      25.164   3.666  49.863  1.00  0.00     0.162 HD
BRANCH  21  23
HETATM   23  C12 UNL     1      24.454   5.395  48.769  1.00  0.00     0.131 A 
HETATM   24  C13 UNL     1      25.862   5.886  48.757  1.00  0.00     0.059 A 
HETATM   25  C14 UNL     1      25.404   6.904  49.679  1.00  0.00    -0.003 A 
HETATM   26  C15 UNL     1      24.179   6.468  49.683  1.00  0.00     0.031 A 
HETATM   27 CL1  UNL     1      22.628   6.875  50.433  1.00  0.00    -0.087 Cl
ENDBRANCH  21  23
ENDBRANCH   7  21
TORSDOF 7
ENDMDL
