MODEL 1
REMARK VINA RESULT:      -9.4      0.000      0.000
REMARK  3 active torsions:
REMARK  status: ('A' for Active; 'I' for Inactive)
REMARK    1  A    between atoms: C2_2  and  N1_5 
REMARK    2  A    between atoms: N1_5  and  C4_6 
REMARK    3  A    between atoms: C5_7  and  C6_8 
ROOT
HETATM    1  C1  UNL     1      29.560  -0.575  53.460  1.00  0.00     0.035 C 
HETATM    2  C2  UNL     1      28.903   0.115  54.613  1.00  0.00     0.110 C 
HETATM    3  C3  UNL     1      28.786   1.583  54.255  1.00  0.00     0.415 C 
HETATM    4  O1  UNL     1      28.546   2.748  53.989  1.00  0.00    -0.428 OA
ENDROOT
BRANCH   2   5
HETATM    5  N1  UNL     1      27.613  -0.425  54.879  1.00  0.00    -0.392 N 
HETATM    6  H6  UNL     1      27.441  -0.877  55.806  1.00  0.00     0.159 HD
BRANCH   5   7
HETATM    7  C4  UNL     1      26.454  -0.514  54.151  1.00  0.00     0.083 C 
HETATM    8  C5  UNL     1      25.672  -0.095  53.221  1.00  0.00     0.020 C 
BRANCH   8   9
HETATM    9  C6  UNL     1      25.733   1.016  52.260  1.00  0.00     0.051 C 
HETATM   10  C7  UNL     1      24.970   2.067  52.054  1.00  0.00     0.126 C 
HETATM   11  N2  UNL     1      25.206   3.015  51.070  1.00  0.00    -0.225 NA
HETATM   12  N6  UNL     1      23.753   2.321  52.910  1.00  0.00    -0.356 N 
HETATM   13  C8  UNL     1      26.144   3.424  50.344  1.00  0.00     0.234 C 
HETATM   14  N3  UNL     1      25.494   4.455  49.604  1.00  0.00    -0.253 NA
HETATM   15  C9  UNL     1      25.763   5.746  49.724  1.00  0.00     0.131 C 
HETATM   16  C10 UNL     1      25.215   6.947  49.067  1.00  0.00     0.008 A 
HETATM   17  C11 UNL     1      25.887   7.083  47.866  1.00  0.00     0.016 A 
HETATM   18  C14 UNL     1      24.247   7.895  49.337  1.00  0.00     0.064 A 
HETATM   19  C12 UNL     1      25.699   8.060  46.917  1.00  0.00     0.020 A 
HETATM   20  C13 UNL     1      24.705   8.988  47.253  1.00  0.00     0.117 A 
HETATM   21  N4  UNL     1      24.043   8.854  48.429  1.00  0.00    -0.263 NA
HETATM   22  C15 UNL     1      23.282   8.076  50.483  1.00  0.00     0.188 C 
HETATM   23  N5  UNL     1      22.268   7.011  50.420  1.00  0.00    -0.350 N 
HETATM   24  C16 UNL     1      21.125   6.704  49.798  1.00  0.00     0.092 A 
HETATM   25  C23 UNL     1      22.704   5.954  51.109  1.00  0.00     0.044 A 
HETATM   26  C17 UNL     1      20.774   5.395  50.062  1.00  0.00     0.030 A 
HETATM   27  C18 UNL     1      21.774   4.965  50.871  1.00  0.00    -0.009 A 
HETATM   28  C19 UNL     1      21.962   3.728  51.384  1.00  0.00     0.025 A 
HETATM   29  C20 UNL     1      22.766   2.972  52.115  1.00  0.00     0.101 A 
HETATM   30  C21 UNL     1      23.631   4.083  52.303  1.00  0.00     0.014 A 
HETATM   31  C22 UNL     1      23.648   5.379  51.893  1.00  0.00     0.029 A 
HETATM   32  H22 UNL     1      23.564   2.108  53.922  1.00  0.00     0.162 HD
ENDBRANCH   8   9
ENDBRANCH   5   7
ENDBRANCH   2   5
TORSDOF 3
ENDMDL
MODEL 2
REMARK VINA RESULT:      -9.2      3.034      7.332
REMARK  3 active torsions:
REMARK  status: ('A' for Active; 'I' for Inactive)
REMARK    1  A    between atoms: C2_2  and  N1_5 
REMARK    2  A    between atoms: N1_5  and  C4_6 
REMARK    3  A    between atoms: C5_7  and  C6_8 
ROOT
HETATM    1  C1  UNL     1      25.668   7.550  50.441  1.00  0.00     0.035 C 
HETATM    2  C2  UNL     1      26.076   8.085  49.105  1.00  0.00     0.110 C 
HETATM    3  C3  UNL     1      26.201   9.590  49.239  1.00  0.00     0.415 C 
HETATM    4  O1  UNL     1      26.442  10.783  49.301  1.00  0.00    -0.428 OA
ENDROOT
BRANCH   2   5
HETATM    5  N1  UNL     1      27.314   7.530  48.675  1.00  0.00    -0.392 N 
HETATM    6  H6  UNL     1      28.132   8.170  48.549  1.00  0.00     0.159 HD
BRANCH   5   7
HETATM    7  C4  UNL     1      27.722   6.262  48.347  1.00  0.00     0.083 C 
HETATM    8  C5  UNL     1      27.724   4.993  48.545  1.00  0.00     0.020 C 
BRANCH   8   9
HETATM    9  C6  UNL     1      27.078   4.113  49.529  1.00  0.00     0.051 C 
HETATM   10  C7  UNL     1      25.822   3.803  49.768  1.00  0.00     0.126 C 
HETATM   11  N2  UNL     1      25.415   2.935  50.769  1.00  0.00    -0.225 NA
HETATM   12  N6  UNL     1      24.707   4.386  48.933  1.00  0.00    -0.356 N 
HETATM   13  C8  UNL     1      25.886   2.024  51.492  1.00  0.00     0.234 C 
HETATM   14  N3  UNL     1      24.743   1.661  52.263  1.00  0.00    -0.253 NA
HETATM   15  C9  UNL     1      24.113   0.499  52.167  1.00  0.00     0.131 C 
HETATM   16  C10 UNL     1      22.936  -0.059  52.858  1.00  0.00     0.008 A 
HETATM   17  C11 UNL     1      23.391  -0.586  54.052  1.00  0.00     0.016 A 
HETATM   18  C14 UNL     1      21.578  -0.162  52.620  1.00  0.00     0.064 A 
HETATM   19  C12 UNL     1      22.640  -1.204  55.025  1.00  0.00     0.020 A 
HETATM   20  C13 UNL     1      21.274  -1.275  54.723  1.00  0.00     0.117 A 
HETATM   21  N4  UNL     1      20.826  -0.756  53.552  1.00  0.00    -0.263 NA
HETATM   22  C15 UNL     1      20.697   0.313  51.492  1.00  0.00     0.188 C 
HETATM   23  N5  UNL     1      20.610   1.780  51.545  1.00  0.00    -0.350 N 
HETATM   24  C16 UNL     1      19.949   2.757  52.174  1.00  0.00     0.092 A 
HETATM   25  C23 UNL     1      21.608   2.301  50.827  1.00  0.00     0.044 A 
HETATM   26  C17 UNL     1      20.518   3.982  51.886  1.00  0.00     0.030 A 
HETATM   27  C18 UNL     1      21.541   3.659  51.054  1.00  0.00    -0.009 A 
HETATM   28  C19 UNL     1      22.469   4.479  50.512  1.00  0.00     0.025 A 
HETATM   29  C20 UNL     1      23.552   4.532  49.755  1.00  0.00     0.101 A 
HETATM   30  C21 UNL     1      23.494   3.123  49.580  1.00  0.00     0.014 A 
HETATM   31  C22 UNL     1      22.681   2.126  50.018  1.00  0.00     0.029 A 
HETATM   32  H22 UNL     1      24.677   4.663  47.919  1.00  0.00     0.162 HD
ENDBRANCH   8   9
ENDBRANCH   5   7
ENDBRANCH   2   5
TORSDOF 3
ENDMDL
MODEL 3
REMARK VINA RESULT:      -8.7      3.217      7.574
REMARK  3 active torsions:
REMARK  status: ('A' for Active; 'I' for Inactive)
REMARK    1  A    between atoms: C2_2  and  N1_5 
REMARK    2  A    between atoms: N1_5  and  C4_6 
REMARK    3  A    between atoms: C5_7  and  C6_8 
ROOT
HETATM    1  C1  UNL     1      26.224   8.772  49.319  1.00  0.00     0.035 C 
HETATM    2  C2  UNL     1      27.259   8.424  48.297  1.00  0.00     0.110 C 
HETATM    3  C3  UNL     1      28.615   8.710  48.911  1.00  0.00     0.415 C 
HETATM    4  O1  UNL     1      29.737   8.797  49.378  1.00  0.00    -0.428 OA
ENDROOT
BRANCH   2   5
HETATM    5  N1  UNL     1      27.177   7.055  47.915  1.00  0.00    -0.392 N 
HETATM    6  H6  UNL     1      26.829   6.824  46.956  1.00  0.00     0.159 HD
BRANCH   5   7
HETATM    7  C4  UNL     1      27.453   5.874  48.555  1.00  0.00     0.083 C 
HETATM    8  C5  UNL     1      27.084   4.747  49.050  1.00  0.00     0.020 C 
BRANCH   8   9
HETATM    9  C6  UNL     1      25.790   4.059  49.166  1.00  0.00     0.051 C 
HETATM   10  C7  UNL     1      25.235   3.349  50.124  1.00  0.00     0.126 C 
HETATM   11  N2  UNL     1      23.978   2.770  50.030  1.00  0.00    -0.225 NA
HETATM   12  N6  UNL     1      25.950   3.119  51.433  1.00  0.00    -0.356 N 
HETATM   13  C8  UNL     1      22.925   2.880  49.357  1.00  0.00     0.234 C 
HETATM   14  N3  UNL     1      22.114   1.863  49.942  1.00  0.00    -0.253 NA
HETATM   15  C9  UNL     1      21.024   2.094  50.658  1.00  0.00     0.131 C 
HETATM   16  C10 UNL     1      20.067   1.201  51.338  1.00  0.00     0.008 A 
HETATM   17  C11 UNL     1      19.157   0.794  50.379  1.00  0.00     0.016 A 
HETATM   18  C14 UNL     1      19.882   0.697  52.611  1.00  0.00     0.064 A 
HETATM   19  C12 UNL     1      18.089  -0.054  50.559  1.00  0.00     0.020 A 
HETATM   20  C13 UNL     1      17.959  -0.528  51.870  1.00  0.00     0.117 A 
HETATM   21  N4  UNL     1      18.852  -0.131  52.810  1.00  0.00    -0.263 NA
HETATM   22  C15 UNL     1      20.657   0.852  53.896  1.00  0.00     0.188 C 
HETATM   23  N5  UNL     1      21.938   0.142  53.765  1.00  0.00    -0.350 N 
HETATM   24  C16 UNL     1      22.456  -1.087  53.863  1.00  0.00     0.092 A 
HETATM   25  C23 UNL     1      22.848   0.975  53.254  1.00  0.00     0.044 A 
HETATM   26  C17 UNL     1      23.756  -1.096  53.395  1.00  0.00     0.030 A 
HETATM   27  C18 UNL     1      23.960   0.193  53.026  1.00  0.00    -0.009 A 
HETATM   28  C19 UNL     1      25.054   0.734  52.444  1.00  0.00     0.025 A 
HETATM   29  C20 UNL     1      25.572   1.841  51.939  1.00  0.00     0.101 A 
HETATM   30  C21 UNL     1      24.375   2.539  52.250  1.00  0.00     0.014 A 
HETATM   31  C22 UNL     1      23.182   2.212  52.814  1.00  0.00     0.029 A 
HETATM   32  H22 UNL     1      26.620   3.727  51.970  1.00  0.00     0.162 HD
ENDBRANCH   8   9
ENDBRANCH   5   7
ENDBRANCH   2   5
TORSDOF 3
ENDMDL
MODEL 4
REMARK VINA RESULT:      -8.6      5.365      9.053
REMARK  3 active torsions:
REMARK  status: ('A' for Active; 'I' for Inactive)
REMARK    1  A    between atoms: C2_2  and  N1_5 
REMARK    2  A    between atoms: N1_5  and  C4_6 
REMARK    3  A    between atoms: C5_7  and  C6_8 
ROOT
HETATM    1  C1  UNL     1      13.080   3.972  53.771  1.00  0.00     0.035 C 
HETATM    2  C2  UNL     1      13.854   3.068  52.863  1.00  0.00     0.110 C 
HETATM    3  C3  UNL     1      15.224   3.686  52.671  1.00  0.00     0.415 C 
HETATM    4  O1  UNL     1      16.381   4.055  52.568  1.00  0.00    -0.428 OA
ENDROOT
BRANCH   2   5
HETATM    5  N1  UNL     1      13.983   1.761  53.413  1.00  0.00    -0.392 N 
HETATM    6  H6  UNL     1      13.828   1.633  54.439  1.00  0.00     0.159 HD
BRANCH   5   7
HETATM    7  C4  UNL     1      14.298   0.536  52.882  1.00  0.00     0.083 C 
HETATM    8  C5  UNL     1      15.150  -0.379  52.588  1.00  0.00     0.020 C 
BRANCH   8   9
HETATM    9  C6  UNL     1      16.604  -0.511  52.757  1.00  0.00     0.051 C 
HETATM   10  C7  UNL     1      17.629   0.150  52.261  1.00  0.00     0.126 C 
HETATM   11  N2  UNL     1      18.953  -0.142  52.551  1.00  0.00    -0.225 NA
HETATM   12  N6  UNL     1      17.420   1.313  51.321  1.00  0.00    -0.356 N 
HETATM   13  C8  UNL     1      19.628  -0.749  53.417  1.00  0.00     0.234 C 
HETATM   14  N3  UNL     1      20.953  -0.545  52.929  1.00  0.00    -0.253 NA
HETATM   15  C9  UNL     1      21.868   0.198  53.534  1.00  0.00     0.131 C 
HETATM   16  C10 UNL     1      23.265   0.532  53.200  1.00  0.00     0.008 A 
HETATM   17  C11 UNL     1      24.042  -0.515  53.660  1.00  0.00     0.016 A 
HETATM   18  C14 UNL     1      23.936   1.562  52.568  1.00  0.00     0.064 A 
HETATM   19  C12 UNL     1      25.408  -0.639  53.559  1.00  0.00     0.020 A 
HETATM   20  C13 UNL     1      26.026   0.437  52.909  1.00  0.00     0.117 A 
HETATM   21  N4  UNL     1      25.264   1.463  52.456  1.00  0.00    -0.263 NA
HETATM   22  C15 UNL     1      23.468   2.831  51.901  1.00  0.00     0.188 C 
HETATM   23  N5  UNL     1      22.767   2.481  50.656  1.00  0.00    -0.350 N 
HETATM   24  C16 UNL     1      23.015   2.166  49.380  1.00  0.00     0.092 A 
HETATM   25  C23 UNL     1      21.474   2.286  50.925  1.00  0.00     0.044 A 
HETATM   26  C17 UNL     1      21.858   1.733  48.761  1.00  0.00     0.030 A 
HETATM   27  C18 UNL     1      20.930   1.819  49.748  1.00  0.00    -0.009 A 
HETATM   28  C19 UNL     1      19.628   1.460  49.704  1.00  0.00     0.025 A 
HETATM   29  C20 UNL     1      18.511   1.359  50.406  1.00  0.00     0.101 A 
HETATM   30  C21 UNL     1      19.186   1.875  51.544  1.00  0.00     0.014 A 
HETATM   31  C22 UNL     1      20.453   2.287  51.816  1.00  0.00     0.029 A 
HETATM   32  H22 UNL     1      16.650   2.027  51.268  1.00  0.00     0.162 HD
ENDBRANCH   8   9
ENDBRANCH   5   7
ENDBRANCH   2   5
TORSDOF 3
ENDMDL
MODEL 5
REMARK VINA RESULT:      -8.4      3.277      8.044
REMARK  3 active torsions:
REMARK  status: ('A' for Active; 'I' for Inactive)
REMARK    1  A    between atoms: C2_2  and  N1_5 
REMARK    2  A    between atoms: N1_5  and  C4_6 
REMARK    3  A    between atoms: C5_7  and  C6_8 
ROOT
HETATM    1  C1  UNL     1      21.883   4.841  46.670  1.00  0.00     0.035 C 
HETATM    2  C2  UNL     1      20.755   3.875  46.857  1.00  0.00     0.110 C 
HETATM    3  C3  UNL     1      21.310   2.668  47.587  1.00  0.00     0.415 C 
HETATM    4  O1  UNL     1      21.653   1.724  48.277  1.00  0.00    -0.428 OA
ENDROOT
BRANCH   2   5
HETATM    5  N1  UNL     1      19.693   4.452  47.609  1.00  0.00    -0.392 N 
HETATM    6  H6  UNL     1      18.785   4.641  47.127  1.00  0.00     0.159 HD
BRANCH   5   7
HETATM    7  C4  UNL     1      19.567   4.863  48.912  1.00  0.00     0.083 C 
HETATM    8  C5  UNL     1      20.029   4.985  50.104  1.00  0.00     0.020 C 
BRANCH   8   9
HETATM    9  C6  UNL     1      21.289   4.598  50.755  1.00  0.00     0.051 C 
HETATM   10  C7  UNL     1      21.714   3.474  51.290  1.00  0.00     0.126 C 
HETATM   11  N2  UNL     1      22.964   3.315  51.868  1.00  0.00    -0.225 NA
HETATM   12  N6  UNL     1      20.841   2.242  51.301  1.00  0.00    -0.356 N 
HETATM   13  C8  UNL     1      24.093   3.863  51.867  1.00  0.00     0.234 C 
HETATM   14  N3  UNL     1      24.812   3.021  52.766  1.00  0.00    -0.253 NA
HETATM   15  C9  UNL     1      25.810   2.226  52.411  1.00  0.00     0.131 C 
HETATM   16  C10 UNL     1      26.665   1.295  53.170  1.00  0.00     0.008 A 
HETATM   17  C11 UNL     1      27.678   2.053  53.728  1.00  0.00     0.016 A 
HETATM   18  C14 UNL     1      26.687  -0.058  53.451  1.00  0.00     0.064 A 
HETATM   19  C12 UNL     1      28.704   1.605  54.526  1.00  0.00     0.020 A 
HETATM   20  C13 UNL     1      28.668   0.227  54.772  1.00  0.00     0.117 A 
HETATM   21  N4  UNL     1      27.673  -0.517  54.228  1.00  0.00    -0.263 NA
HETATM   22  C15 UNL     1      25.764  -1.194  53.087  1.00  0.00     0.188 C 
HETATM   23  N5  UNL     1      24.498  -1.029  53.817  1.00  0.00    -0.350 N 
HETATM   24  C16 UNL     1      23.954  -1.267  55.015  1.00  0.00     0.092 A 
HETATM   25  C23 UNL     1      23.669  -0.278  53.088  1.00  0.00     0.044 A 
HETATM   26  C17 UNL     1      22.720  -0.653  55.111  1.00  0.00     0.030 A 
HETATM   27  C18 UNL     1      22.582  -0.051  53.903  1.00  0.00    -0.009 A 
HETATM   28  C19 UNL     1      21.574   0.743  53.476  1.00  0.00     0.025 A 
HETATM   29  C20 UNL     1      21.137   1.486  52.473  1.00  0.00     0.101 A 
HETATM   30  C21 UNL     1      22.298   1.153  51.725  1.00  0.00     0.014 A 
HETATM   31  C22 UNL     1      23.409   0.401  51.945  1.00  0.00     0.029 A 
HETATM   32  H22 UNL     1      20.121   1.901  50.616  1.00  0.00     0.162 HD
ENDBRANCH   8   9
ENDBRANCH   5   7
ENDBRANCH   2   5
TORSDOF 3
ENDMDL
MODEL 6
REMARK VINA RESULT:      -8.3      2.169      3.781
REMARK  3 active torsions:
REMARK  status: ('A' for Active; 'I' for Inactive)
REMARK    1  A    between atoms: C2_2  and  N1_5 
REMARK    2  A    between atoms: N1_5  and  C4_6 
REMARK    3  A    between atoms: C5_7  and  C6_8 
ROOT
HETATM    1  C1  UNL     1      26.753   0.954  52.989  1.00  0.00     0.035 C 
HETATM    2  C2  UNL     1      26.061  -0.346  52.723  1.00  0.00     0.110 C 
HETATM    3  C3  UNL     1      27.093  -1.446  52.874  1.00  0.00     0.415 C 
HETATM    4  O1  UNL     1      27.833  -2.388  53.097  1.00  0.00    -0.428 OA
ENDROOT
BRANCH   2   5
HETATM    5  N1  UNL     1      24.986  -0.561  53.630  1.00  0.00    -0.392 N 
HETATM    6  H6  UNL     1      25.210  -0.807  54.622  1.00  0.00     0.159 HD
BRANCH   5   7
HETATM    7  C4  UNL     1      23.620  -0.534  53.506  1.00  0.00     0.083 C 
HETATM    8  C5  UNL     1      22.526   0.079  53.229  1.00  0.00     0.020 C 
BRANCH   8   9
HETATM    9  C6  UNL     1      22.204   1.448  52.801  1.00  0.00     0.051 C 
HETATM   10  C7  UNL     1      22.682   2.229  51.856  1.00  0.00     0.126 C 
HETATM   11  N2  UNL     1      22.232   3.518  51.614  1.00  0.00    -0.225 NA
HETATM   12  N6  UNL     1      23.783   1.752  50.940  1.00  0.00    -0.356 N 
HETATM   13  C8  UNL     1      21.234   4.240  51.851  1.00  0.00     0.234 C 
HETATM   14  N3  UNL     1      21.617   5.459  51.218  1.00  0.00    -0.253 NA
HETATM   15  C9  UNL     1      21.030   5.959  50.140  1.00  0.00     0.131 C 
HETATM   16  C10 UNL     1      21.271   7.179  49.347  1.00  0.00     0.008 A 
HETATM   17  C11 UNL     1      20.606   8.207  49.990  1.00  0.00     0.016 A 
HETATM   18  C14 UNL     1      21.966   7.521  48.203  1.00  0.00     0.064 A 
HETATM   19  C12 UNL     1      20.559   9.528  49.611  1.00  0.00     0.020 A 
HETATM   20  C13 UNL     1      21.283   9.806  48.445  1.00  0.00     0.117 A 
HETATM   21  N4  UNL     1      21.938   8.800  47.815  1.00  0.00    -0.263 NA
HETATM   22  C15 UNL     1      22.836   6.729  47.258  1.00  0.00     0.188 C 
HETATM   23  N5  UNL     1      24.085   6.375  47.950  1.00  0.00    -0.350 N 
HETATM   24  C16 UNL     1      25.279   6.889  48.263  1.00  0.00     0.092 A 
HETATM   25  C23 UNL     1      23.917   5.211  48.583  1.00  0.00     0.044 A 
HETATM   26  C17 UNL     1      25.943   6.057  49.144  1.00  0.00     0.030 A 
HETATM   27  C18 UNL     1      25.069   5.034  49.319  1.00  0.00    -0.009 A 
HETATM   28  C19 UNL     1      25.189   3.963  50.134  1.00  0.00     0.025 A 
HETATM   29  C20 UNL     1      24.588   2.870  50.576  1.00  0.00     0.101 A 
HETATM   30  C21 UNL     1      23.469   3.156  49.749  1.00  0.00     0.014 A 
HETATM   31  C22 UNL     1      23.135   4.144  48.878  1.00  0.00     0.029 A 
HETATM   32  H22 UNL     1      24.003   0.794  50.566  1.00  0.00     0.162 HD
ENDBRANCH   8   9
ENDBRANCH   5   7
ENDBRANCH   2   5
TORSDOF 3
ENDMDL
MODEL 7
REMARK VINA RESULT:      -8.3      2.097      2.274
REMARK  3 active torsions:
REMARK  status: ('A' for Active; 'I' for Inactive)
REMARK    1  A    between atoms: C2_2  and  N1_5 
REMARK    2  A    between atoms: N1_5  and  C4_6 
REMARK    3  A    between atoms: C5_7  and  C6_8 
ROOT
HETATM    1  C1  UNL     1      28.863  -0.775  53.425  1.00  0.00     0.035 C 
HETATM    2  C2  UNL     1      27.837  -0.324  54.416  1.00  0.00     0.110 C 
HETATM    3  C3  UNL     1      27.724   1.182  54.296  1.00  0.00     0.415 C 
HETATM    4  O1  UNL     1      27.489   2.372  54.172  1.00  0.00    -0.428 OA
ENDROOT
BRANCH   2   5
HETATM    5  N1  UNL     1      26.572  -0.928  54.169  1.00  0.00    -0.392 N 
HETATM    6  H6  UNL     1      26.463  -1.952  54.348  1.00  0.00     0.159 HD
BRANCH   5   7
HETATM    7  C4  UNL     1      25.370  -0.456  53.705  1.00  0.00     0.083 C 
HETATM    8  C5  UNL     1      24.680   0.354  52.985  1.00  0.00     0.020 C 
BRANCH   8   9
HETATM    9  C6  UNL     1      25.023   1.462  52.082  1.00  0.00     0.051 C 
HETATM   10  C7  UNL     1      24.341   2.118  51.167  1.00  0.00     0.126 C 
HETATM   11  N2  UNL     1      24.863   3.152  50.405  1.00  0.00    -0.225 NA
HETATM   12  N6  UNL     1      22.898   1.779  50.885  1.00  0.00    -0.356 N 
HETATM   13  C8  UNL     1      25.818   3.966  50.428  1.00  0.00     0.234 C 
HETATM   14  N3  UNL     1      25.593   4.692  49.221  1.00  0.00    -0.253 NA
HETATM   15  C9  UNL     1      25.233   5.966  49.169  1.00  0.00     0.131 C 
HETATM   16  C10 UNL     1      24.954   6.880  48.047  1.00  0.00     0.008 A 
HETATM   17  C11 UNL     1      26.175   7.374  47.626  1.00  0.00     0.016 A 
HETATM   18  C14 UNL     1      23.843   7.320  47.352  1.00  0.00     0.064 A 
HETATM   19  C12 UNL     1      26.401   8.258  46.596  1.00  0.00     0.020 A 
HETATM   20  C13 UNL     1      25.234   8.664  45.935  1.00  0.00     0.117 A 
HETATM   21  N4  UNL     1      24.037   8.178  46.345  1.00  0.00    -0.263 NA
HETATM   22  C15 UNL     1      22.373   6.997  47.460  1.00  0.00     0.188 C 
HETATM   23  N5  UNL     1      22.157   5.618  46.996  1.00  0.00    -0.350 N 
HETATM   24  C16 UNL     1      22.001   4.915  45.869  1.00  0.00     0.092 A 
HETATM   25  C23 UNL     1      22.296   4.784  48.030  1.00  0.00     0.044 A 
HETATM   26  C17 UNL     1      22.043   3.561  46.139  1.00  0.00     0.030 A 
HETATM   27  C18 UNL     1      22.230   3.521  47.482  1.00  0.00    -0.009 A 
HETATM   28  C19 UNL     1      22.402   2.436  48.270  1.00  0.00     0.025 A 
HETATM   29  C20 UNL     1      22.634   2.025  49.506  1.00  0.00     0.101 A 
HETATM   30  C21 UNL     1      22.654   3.375  49.946  1.00  0.00     0.014 A 
HETATM   31  C22 UNL     1      22.514   4.590  49.353  1.00  0.00     0.029 A 
HETATM   32  H22 UNL     1      22.135   1.428  51.518  1.00  0.00     0.162 HD
ENDBRANCH   8   9
ENDBRANCH   5   7
ENDBRANCH   2   5
TORSDOF 3
ENDMDL
MODEL 8
REMARK VINA RESULT:      -7.6      3.005      3.617
REMARK  3 active torsions:
REMARK  status: ('A' for Active; 'I' for Inactive)
REMARK    1  A    between atoms: C2_2  and  N1_5 
REMARK    2  A    between atoms: N1_5  and  C4_6 
REMARK    3  A    between atoms: C5_7  and  C6_8 
ROOT
HETATM    1  C1  UNL     1      26.113   1.703  53.813  1.00  0.00     0.035 C 
HETATM    2  C2  UNL     1      25.821   0.310  53.353  1.00  0.00     0.110 C 
HETATM    3  C3  UNL     1      27.093  -0.497  53.518  1.00  0.00     0.415 C 
HETATM    4  O1  UNL     1      28.037  -1.237  53.736  1.00  0.00    -0.428 OA
ENDROOT
BRANCH   2   5
HETATM    5  N1  UNL     1      24.770  -0.281  54.110  1.00  0.00    -0.392 N 
HETATM    6  H6  UNL     1      24.961  -0.558  55.100  1.00  0.00     0.159 HD
BRANCH   5   7
HETATM    7  C4  UNL     1      23.469  -0.612  53.829  1.00  0.00     0.083 C 
HETATM    8  C5  UNL     1      22.426  -0.548  53.080  1.00  0.00     0.020 C 
BRANCH   8   9
HETATM    9  C6  UNL     1      22.118   0.137  51.817  1.00  0.00     0.051 C 
HETATM   10  C7  UNL     1      22.255   1.383  51.415  1.00  0.00     0.126 C 
HETATM   11  N2  UNL     1      21.891   1.835  50.156  1.00  0.00    -0.225 NA
HETATM   12  N6  UNL     1      22.843   2.432  52.327  1.00  0.00    -0.356 N 
HETATM   13  C8  UNL     1      21.656   1.380  49.010  1.00  0.00     0.234 C 
HETATM   14  N3  UNL     1      21.347   2.575  48.295  1.00  0.00    -0.253 NA
HETATM   15  C9  UNL     1      22.100   3.088  47.333  1.00  0.00     0.131 C 
HETATM   16  C10 UNL     1      21.962   4.290  46.490  1.00  0.00     0.008 A 
HETATM   17  C11 UNL     1      21.136   3.942  45.437  1.00  0.00     0.016 A 
HETATM   18  C14 UNL     1      22.418   5.594  46.505  1.00  0.00     0.064 A 
HETATM   19  C12 UNL     1      20.723   4.752  44.405  1.00  0.00     0.020 A 
HETATM   20  C13 UNL     1      21.219   6.059  44.481  1.00  0.00     0.117 A 
HETATM   21  N4  UNL     1      22.028   6.402  45.514  1.00  0.00    -0.263 NA
HETATM   22  C15 UNL     1      23.277   6.368  47.474  1.00  0.00     0.188 C 
HETATM   23  N5  UNL     1      22.515   6.584  48.714  1.00  0.00    -0.350 N 
HETATM   24  C16 UNL     1      21.589   7.397  49.233  1.00  0.00     0.092 A 
HETATM   25  C23 UNL     1      22.721   5.553  49.537  1.00  0.00     0.044 A 
HETATM   26  C17 UNL     1      21.142   6.902  50.443  1.00  0.00     0.030 A 
HETATM   27  C18 UNL     1      21.861   5.762  50.594  1.00  0.00    -0.009 A 
HETATM   28  C19 UNL     1      21.780   4.847  51.586  1.00  0.00     0.025 A 
HETATM   29  C20 UNL     1      22.239   3.687  52.025  1.00  0.00     0.101 A 
HETATM   30  C21 UNL     1      23.098   3.605  50.897  1.00  0.00     0.014 A 
HETATM   31  C22 UNL     1      23.341   4.378  49.806  1.00  0.00     0.029 A 
HETATM   32  H22 UNL     1      23.577   2.361  53.077  1.00  0.00     0.162 HD
ENDBRANCH   8   9
ENDBRANCH   5   7
ENDBRANCH   2   5
TORSDOF 3
ENDMDL
MODEL 9
REMARK VINA RESULT:      -7.6      5.828      9.009
REMARK  3 active torsions:
REMARK  status: ('A' for Active; 'I' for Inactive)
REMARK    1  A    between atoms: C2_2  and  N1_5 
REMARK    2  A    between atoms: N1_5  and  C4_6 
REMARK    3  A    between atoms: C5_7  and  C6_8 
ROOT
HETATM    1  C1  UNL     1      13.209   1.902  53.214  1.00  0.00     0.035 C 
HETATM    2  C2  UNL     1      13.309   0.547  53.841  1.00  0.00     0.110 C 
HETATM    3  C3  UNL     1      12.100  -0.249  53.393  1.00  0.00     0.415 C 
HETATM    4  O1  UNL     1      11.224  -0.988  52.979  1.00  0.00    -0.428 OA
ENDROOT
BRANCH   2   5
HETATM    5  N1  UNL     1      14.504  -0.122  53.452  1.00  0.00    -0.392 N 
HETATM    6  H6  UNL     1      15.092  -0.567  54.193  1.00  0.00     0.159 HD
BRANCH   5   7
HETATM    7  C4  UNL     1      15.124  -0.331  52.246  1.00  0.00     0.083 C 
HETATM    8  C5  UNL     1      16.183  -0.488  51.536  1.00  0.00     0.020 C 
BRANCH   8   9
HETATM    9  C6  UNL     1      17.621  -0.505  51.840  1.00  0.00     0.051 C 
HETATM   10  C7  UNL     1      18.610   0.311  51.546  1.00  0.00     0.126 C 
HETATM   11  N2  UNL     1      19.925   0.107  51.933  1.00  0.00    -0.225 NA
HETATM   12  N6  UNL     1      18.366   1.570  50.749  1.00  0.00    -0.356 N 
HETATM   13  C8  UNL     1      20.579  -0.549  52.780  1.00  0.00     0.234 C 
HETATM   14  N3  UNL     1      21.914  -0.156  52.466  1.00  0.00    -0.253 NA
HETATM   15  C9  UNL     1      22.684   0.577  53.256  1.00  0.00     0.131 C 
HETATM   16  C10 UNL     1      24.062   1.083  53.119  1.00  0.00     0.008 A 
HETATM   17  C11 UNL     1      24.901   0.060  53.518  1.00  0.00     0.016 A 
HETATM   18  C14 UNL     1      24.674   2.250  52.702  1.00  0.00     0.064 A 
HETATM   19  C12 UNL     1      26.276   0.080  53.548  1.00  0.00     0.020 A 
HETATM   20  C13 UNL     1      26.832   1.290  53.113  1.00  0.00     0.117 A 
HETATM   21  N4  UNL     1      26.010   2.293  52.719  1.00  0.00    -0.263 NA
HETATM   22  C15 UNL     1      24.137   3.551  52.159  1.00  0.00     0.188 C 
HETATM   23  N5  UNL     1      23.596   3.315  50.812  1.00  0.00    -0.350 N 
HETATM   24  C16 UNL     1      23.992   3.207  49.540  1.00  0.00     0.092 A 
HETATM   25  C23 UNL     1      22.311   2.964  50.915  1.00  0.00     0.044 A 
HETATM   26  C17 UNL     1      22.951   2.759  48.750  1.00  0.00     0.030 A 
HETATM   27  C18 UNL     1      21.932   2.618  49.636  1.00  0.00    -0.009 A 
HETATM   28  C19 UNL     1      20.685   2.149  49.407  1.00  0.00     0.025 A 
HETATM   29  C20 UNL     1      19.526   1.846  49.968  1.00  0.00     0.101 A 
HETATM   30  C21 UNL     1      20.033   2.259  51.229  1.00  0.00     0.014 A 
HETATM   31  C22 UNL     1      21.218   2.745  51.685  1.00  0.00     0.029 A 
HETATM   32  H22 UNL     1      17.532   2.210  50.708  1.00  0.00     0.162 HD
ENDBRANCH   8   9
ENDBRANCH   5   7
ENDBRANCH   2   5
TORSDOF 3
ENDMDL
