MODEL 1
REMARK VINA RESULT:      -8.0      0.000      0.000
REMARK  1 active torsions:
REMARK  status: ('A' for Active; 'I' for Inactive)
REMARK    1  A    between atoms: C4_7  and  C5_8 
ROOT
HETATM    1  C1  UNL     1      23.835   5.809  48.612  1.00  0.00     0.019 C 
HETATM    2  C2  UNL     1      24.990   5.868  49.299  1.00  0.00     0.119 C 
HETATM    3  N1  UNL     1      25.764   4.817  49.853  1.00  0.00    -0.239 NA
HETATM    4  C3  UNL     1      25.422   3.596  50.170  1.00  0.00     0.182 C 
HETATM    5  N2  UNL     1      26.722   3.283  50.614  1.00  0.00    -0.134 NA
HETATM    6  N3  UNL     1      27.128   2.442  51.410  1.00  0.00    -0.181 NA
HETATM    7  C4  UNL     1      26.271   1.541  52.096  1.00  0.00     0.159 C 
HETATM    8  C11 UNL     1      25.469   2.261  53.085  1.00  0.00     0.019 C 
HETATM    9  C12 UNL     1      24.151   2.228  53.049  1.00  0.00     0.085 C 
HETATM   10  N4  UNL     1      23.767   1.420  51.947  1.00  0.00    -0.375 N 
HETATM   11  C13 UNL     1      23.466   2.121  50.770  1.00  0.00     0.102 C 
HETATM   12  C14 UNL     1      24.093   3.006  50.015  1.00  0.00     0.029 C 
HETATM   13  C15 UNL     1      23.211   3.368  48.882  1.00  0.00     0.017 C 
HETATM   14  C16 UNL     1      23.096   4.568  48.275  1.00  0.00     0.002 C 
HETATM   15  H17 UNL     1      23.725   0.387  52.050  1.00  0.00     0.164 HD
ENDROOT
BRANCH   7  16
HETATM   16  C5  UNL     1      27.002   0.380  52.731  1.00  0.00     0.016 C 
HETATM   17  C6  UNL     1      26.898  -0.880  51.939  1.00  0.00     0.007 C 
HETATM   18  C7  UNL     1      27.363  -2.003  52.839  1.00  0.00     0.000 C 
HETATM   19  C8  UNL     1      28.714  -1.779  53.448  1.00  0.00     0.000 C 
HETATM   20  C9  UNL     1      28.997  -0.383  53.871  1.00  0.00     0.000 C 
HETATM   21  C10 UNL     1      28.463   0.672  52.947  1.00  0.00     0.007 C 
ENDBRANCH   7  16
TORSDOF 1
ENDMDL
MODEL 2
REMARK VINA RESULT:      -7.8      2.886      5.951
REMARK  1 active torsions:
REMARK  status: ('A' for Active; 'I' for Inactive)
REMARK    1  A    between atoms: C4_7  and  C5_8 
ROOT
HETATM    1  C1  UNL     1      20.938  -0.879  53.765  1.00  0.00     0.019 C 
HETATM    2  C2  UNL     1      20.532  -0.061  52.776  1.00  0.00     0.119 C 
HETATM    3  N1  UNL     1      21.302   0.662  51.830  1.00  0.00    -0.239 NA
HETATM    4  C3  UNL     1      22.557   1.026  51.869  1.00  0.00     0.182 C 
HETATM    5  N2  UNL     1      22.476   1.650  50.608  1.00  0.00    -0.134 NA
HETATM    6  N3  UNL     1      23.138   2.551  50.104  1.00  0.00    -0.181 NA
HETATM    7  C4  UNL     1      24.216   3.193  50.771  1.00  0.00     0.159 C 
HETATM    8  C11 UNL     1      23.711   4.018  51.867  1.00  0.00     0.019 C 
HETATM    9  C12 UNL     1      24.113   3.822  53.109  1.00  0.00     0.085 C 
HETATM   10  N4  UNL     1      25.038   2.746  53.101  1.00  0.00    -0.375 N 
HETATM   11  C13 UNL     1      24.495   1.491  53.414  1.00  0.00     0.102 C 
HETATM   12  C14 UNL     1      23.501   0.754  52.953  1.00  0.00     0.029 C 
HETATM   13  C15 UNL     1      23.444  -0.503  53.732  1.00  0.00     0.017 C 
HETATM   14  C16 UNL     1      22.349  -1.210  54.084  1.00  0.00     0.002 C 
HETATM   15  H17 UNL     1      26.036   2.921  52.874  1.00  0.00     0.164 HD
ENDROOT
BRANCH   7  16
HETATM   16  C5  UNL     1      25.100   4.000  49.848  1.00  0.00     0.016 C 
HETATM   17  C6  UNL     1      24.904   5.472  49.989  1.00  0.00     0.007 C 
HETATM   18  C7  UNL     1      25.574   6.120  48.798  1.00  0.00     0.000 C 
HETATM   19  C8  UNL     1      27.004   5.715  48.606  1.00  0.00     0.000 C 
HETATM   20  C9  UNL     1      27.302   4.285  48.882  1.00  0.00     0.000 C 
HETATM   21  C10 UNL     1      26.562   3.707  50.052  1.00  0.00     0.007 C 
ENDBRANCH   7  16
TORSDOF 1
ENDMDL
MODEL 3
REMARK VINA RESULT:      -7.5      3.237      6.829
REMARK  1 active torsions:
REMARK  status: ('A' for Active; 'I' for Inactive)
REMARK    1  A    between atoms: C4_7  and  C5_8 
ROOT
HETATM    1  C1  UNL     1      28.110   0.073  54.564  1.00  0.00     0.019 C 
HETATM    2  C2  UNL     1      27.028  -0.143  55.334  1.00  0.00     0.119 C 
HETATM    3  N1  UNL     1      25.701  -0.467  54.954  1.00  0.00    -0.239 NA
HETATM    4  C3  UNL     1      25.086  -0.293  53.814  1.00  0.00     0.182 C 
HETATM    5  N2  UNL     1      23.893  -0.864  54.302  1.00  0.00    -0.134 NA
HETATM    6  N3  UNL     1      22.725  -0.727  53.953  1.00  0.00    -0.181 NA
HETATM    7  C4  UNL     1      22.325   0.118  52.885  1.00  0.00     0.159 C 
HETATM    8  C11 UNL     1      22.500   1.521  53.259  1.00  0.00     0.019 C 
HETATM    9  C12 UNL     1      23.266   2.326  52.547  1.00  0.00     0.085 C 
HETATM   10  N4  UNL     1      23.802   1.575  51.469  1.00  0.00    -0.375 N 
HETATM   11  C13 UNL     1      25.088   1.058  51.684  1.00  0.00     0.102 C 
HETATM   12  C14 UNL     1      25.658   0.304  52.608  1.00  0.00     0.029 C 
HETATM   13  C15 UNL     1      27.081   0.113  52.249  1.00  0.00     0.017 C 
HETATM   14  C16 UNL     1      28.138   0.012  53.082  1.00  0.00     0.002 C 
HETATM   15  H17 UNL     1      23.246   1.442  50.602  1.00  0.00     0.164 HD
ENDROOT
BRANCH   7  16
HETATM   16  C5  UNL     1      20.915  -0.143  52.406  1.00  0.00     0.016 C 
HETATM   17  C6  UNL     1      19.952  -0.372  53.522  1.00  0.00     0.007 C 
HETATM   18  C7  UNL     1      18.696  -0.950  52.906  1.00  0.00     0.000 C 
HETATM   19  C8  UNL     1      18.137  -0.135  51.779  1.00  0.00     0.000 C 
HETATM   20  C9  UNL     1      19.146   0.470  50.871  1.00  0.00     0.000 C 
HETATM   21  C10 UNL     1      20.381   0.978  51.556  1.00  0.00     0.007 C 
ENDBRANCH   7  16
TORSDOF 1
ENDMDL
MODEL 4
REMARK VINA RESULT:      -7.5      1.534      6.367
REMARK  1 active torsions:
REMARK  status: ('A' for Active; 'I' for Inactive)
REMARK    1  A    between atoms: C4_7  and  C5_8 
ROOT
HETATM    1  C1  UNL     1      26.307  -0.859  53.623  1.00  0.00     0.019 C 
HETATM    2  C2  UNL     1      26.589  -0.700  52.317  1.00  0.00     0.119 C 
HETATM    3  N1  UNL     1      26.776   0.492  51.573  1.00  0.00    -0.239 NA
HETATM    4  C3  UNL     1      26.384   1.713  51.827  1.00  0.00     0.182 C 
HETATM    5  N2  UNL     1      26.964   2.210  50.643  1.00  0.00    -0.134 NA
HETATM    6  N3  UNL     1      26.709   3.202  49.969  1.00  0.00    -0.181 NA
HETATM    7  C4  UNL     1      25.680   4.124  50.296  1.00  0.00     0.159 C 
HETATM    8  C11 UNL     1      24.369   3.507  50.095  1.00  0.00     0.019 C 
HETATM    9  C12 UNL     1      23.499   3.416  51.083  1.00  0.00     0.085 C 
HETATM   10  N4  UNL     1      24.090   3.994  52.236  1.00  0.00    -0.375 N 
HETATM   11  C13 UNL     1      24.702   3.086  53.112  1.00  0.00     0.102 C 
HETATM   12  C14 UNL     1      25.627   2.149  53.001  1.00  0.00     0.029 C 
HETATM   13  C15 UNL     1      25.832   1.529  54.329  1.00  0.00     0.017 C 
HETATM   14  C16 UNL     1      26.125   0.240  54.604  1.00  0.00     0.002 C 
HETATM   15  H17 UNL     1      24.049   5.022  52.381  1.00  0.00     0.164 HD
ENDROOT
BRANCH   7  16
HETATM   16  C5  UNL     1      25.784   5.434  49.548  1.00  0.00     0.016 C 
HETATM   17  C6  UNL     1      26.991   5.514  48.676  1.00  0.00     0.007 C 
HETATM   18  C7  UNL     1      27.146   6.965  48.275  1.00  0.00     0.000 C 
HETATM   19  C8  UNL     1      25.916   7.566  47.665  1.00  0.00     0.000 C 
HETATM   20  C9  UNL     1      24.631   7.145  48.282  1.00  0.00     0.000 C 
HETATM   21  C10 UNL     1      24.576   5.703  48.692  1.00  0.00     0.007 C 
ENDBRANCH   7  16
TORSDOF 1
ENDMDL
MODEL 5
REMARK VINA RESULT:      -7.4      6.956      9.792
REMARK  1 active torsions:
REMARK  status: ('A' for Active; 'I' for Inactive)
REMARK    1  A    between atoms: C4_7  and  C5_8 
ROOT
HETATM    1  C1  UNL     1      35.379   3.411  46.419  1.00  0.00     0.019 C 
HETATM    2  C2  UNL     1      34.646   3.344  47.546  1.00  0.00     0.119 C 
HETATM    3  N1  UNL     1      33.309   3.755  47.777  1.00  0.00    -0.239 NA
HETATM    4  C3  UNL     1      32.565   4.606  47.122  1.00  0.00     0.182 C 
HETATM    5  N2  UNL     1      31.469   4.405  47.986  1.00  0.00    -0.134 NA
HETATM    6  N3  UNL     1      30.512   5.120  48.263  1.00  0.00    -0.181 NA
HETATM    7  C4  UNL     1      30.316   6.411  47.704  1.00  0.00     0.159 C 
HETATM    8  C11 UNL     1      31.313   7.344  48.227  1.00  0.00     0.019 C 
HETATM    9  C12 UNL     1      32.126   7.997  47.419  1.00  0.00     0.085 C 
HETATM   10  N4  UNL     1      31.820   7.608  46.089  1.00  0.00    -0.375 N 
HETATM   11  C13 UNL     1      32.629   6.589  45.564  1.00  0.00     0.102 C 
HETATM   12  C14 UNL     1      32.963   5.366  45.937  1.00  0.00     0.029 C 
HETATM   13  C15 UNL     1      33.875   4.796  44.922  1.00  0.00     0.017 C 
HETATM   14  C16 UNL     1      34.913   3.956  45.120  1.00  0.00     0.002 C 
HETATM   15  H17 UNL     1      31.044   8.072  45.577  1.00  0.00     0.164 HD
ENDROOT
BRANCH   7  16
HETATM   16  C5  UNL     1      28.916   6.946  47.902  1.00  0.00     0.016 C 
HETATM   17  C6  UNL     1      28.373   7.626  46.690  1.00  0.00     0.007 C 
HETATM   18  C7  UNL     1      27.146   8.394  47.130  1.00  0.00     0.000 C 
HETATM   19  C8  UNL     1      26.136   7.564  47.864  1.00  0.00     0.000 C 
HETATM   20  C9  UNL     1      26.701   6.555  48.797  1.00  0.00     0.000 C 
HETATM   21  C10 UNL     1      27.942   5.871  48.305  1.00  0.00     0.007 C 
ENDBRANCH   7  16
TORSDOF 1
ENDMDL
MODEL 6
REMARK VINA RESULT:      -7.2      4.987      7.967
REMARK  1 active torsions:
REMARK  status: ('A' for Active; 'I' for Inactive)
REMARK    1  A    between atoms: C4_7  and  C5_8 
ROOT
HETATM    1  C1  UNL     1      29.736  12.753  48.837  1.00  0.00     0.019 C 
HETATM    2  C2  UNL     1      28.417  12.503  48.918  1.00  0.00     0.119 C 
HETATM    3  N1  UNL     1      27.746  11.311  49.293  1.00  0.00    -0.239 NA
HETATM    4  C3  UNL     1      28.170  10.075  49.304  1.00  0.00     0.182 C 
HETATM    5  N2  UNL     1      26.935   9.593  49.781  1.00  0.00    -0.134 NA
HETATM    6  N3  UNL     1      26.407   8.489  49.697  1.00  0.00    -0.181 NA
HETATM    7  C4  UNL     1      27.009   7.386  49.035  1.00  0.00     0.159 C 
HETATM    8  C11 UNL     1      27.032   7.615  47.591  1.00  0.00     0.019 C 
HETATM    9  C12 UNL     1      28.166   7.609  46.918  1.00  0.00     0.085 C 
HETATM   10  N4  UNL     1      29.217   7.356  47.838  1.00  0.00    -0.375 N 
HETATM   11  C13 UNL     1      29.875   8.498  48.320  1.00  0.00     0.102 C 
HETATM   12  C14 UNL     1      29.504   9.617  48.915  1.00  0.00     0.029 C 
HETATM   13  C15 UNL     1      30.709  10.437  49.171  1.00  0.00     0.017 C 
HETATM   14  C16 UNL     1      30.817  11.782  49.140  1.00  0.00     0.002 C 
HETATM   15  H17 UNL     1      29.447   6.380  48.108  1.00  0.00     0.164 HD
ENDROOT
BRANCH   7  16
HETATM   16  C5  UNL     1      26.361   6.060  49.364  1.00  0.00     0.016 C 
HETATM   17  C6  UNL     1      24.988   5.923  48.795  1.00  0.00     0.007 C 
HETATM   18  C7  UNL     1      24.348   4.734  49.476  1.00  0.00     0.000 C 
HETATM   19  C8  UNL     1      25.162   3.477  49.405  1.00  0.00     0.000 C 
HETATM   20  C9  UNL     1      26.629   3.661  49.555  1.00  0.00     0.000 C 
HETATM   21  C10 UNL     1      27.177   4.888  48.888  1.00  0.00     0.007 C 
ENDBRANCH   7  16
TORSDOF 1
ENDMDL
MODEL 7
REMARK VINA RESULT:      -7.1      2.702      3.642
REMARK  1 active torsions:
REMARK  status: ('A' for Active; 'I' for Inactive)
REMARK    1  A    between atoms: C4_7  and  C5_8 
ROOT
HETATM    1  C1  UNL     1      26.199   6.461  48.361  1.00  0.00     0.019 C 
HETATM    2  C2  UNL     1      26.795   5.424  48.977  1.00  0.00     0.119 C 
HETATM    3  N1  UNL     1      26.215   4.280  49.582  1.00  0.00    -0.239 NA
HETATM    4  C3  UNL     1      25.001   4.087  50.027  1.00  0.00     0.182 C 
HETATM    5  N2  UNL     1      25.293   2.768  50.428  1.00  0.00    -0.134 NA
HETATM    6  N3  UNL     1      24.779   2.044  51.275  1.00  0.00    -0.181 NA
HETATM    7  C4  UNL     1      23.684   2.448  52.084  1.00  0.00     0.159 C 
HETATM    8  C11 UNL     1      24.114   3.463  53.044  1.00  0.00     0.019 C 
HETATM    9  C12 UNL     1      23.543   4.652  53.082  1.00  0.00     0.085 C 
HETATM   10  N4  UNL     1      22.538   4.683  52.080  1.00  0.00    -0.375 N 
HETATM   11  C13 UNL     1      22.929   5.258  50.862  1.00  0.00     0.102 C 
HETATM   12  C14 UNL     1      23.907   5.058  49.997  1.00  0.00     0.029 C 
HETATM   13  C15 UNL     1      23.758   6.023  48.885  1.00  0.00     0.017 C 
HETATM   14  C16 UNL     1      24.736   6.628  48.177  1.00  0.00     0.002 C 
HETATM   15  H17 UNL     1      21.595   4.295  52.278  1.00  0.00     0.164 HD
ENDROOT
BRANCH   7  16
HETATM   16  C5  UNL     1      22.995   1.297  52.782  1.00  0.00     0.016 C 
HETATM   17  C6  UNL     1      21.862   0.730  51.994  1.00  0.00     0.007 C 
HETATM   18  C7  UNL     1      21.071  -0.151  52.937  1.00  0.00     0.000 C 
HETATM   19  C8  UNL     1      21.895  -1.184  53.645  1.00  0.00     0.000 C 
HETATM   20  C9  UNL     1      23.244  -0.733  54.077  1.00  0.00     0.000 C 
HETATM   21  C10 UNL     1      23.942   0.173  53.106  1.00  0.00     0.007 C 
ENDBRANCH   7  16
TORSDOF 1
ENDMDL
MODEL 8
REMARK VINA RESULT:      -6.9      2.374      3.953
REMARK  1 active torsions:
REMARK  status: ('A' for Active; 'I' for Inactive)
REMARK    1  A    between atoms: C4_7  and  C5_8 
ROOT
HETATM    1  C1  UNL     1      24.929   8.740  49.170  1.00  0.00     0.019 C 
HETATM    2  C2  UNL     1      23.902   8.385  49.964  1.00  0.00     0.119 C 
HETATM    3  N1  UNL     1      23.773   7.266  50.825  1.00  0.00    -0.239 NA
HETATM    4  C3  UNL     1      24.407   6.123  50.821  1.00  0.00     0.182 C 
HETATM    5  N2  UNL     1      23.693   5.655  51.943  1.00  0.00    -0.134 NA
HETATM    6  N3  UNL     1      23.445   4.518  52.330  1.00  0.00    -0.181 NA
HETATM    7  C4  UNL     1      23.878   3.350  51.648  1.00  0.00     0.159 C 
HETATM    8  C11 UNL     1      23.152   3.205  50.387  1.00  0.00     0.019 C 
HETATM    9  C12 UNL     1      23.792   3.144  49.234  1.00  0.00     0.085 C 
HETATM   10  N4  UNL     1      25.182   3.242  49.504  1.00  0.00    -0.375 N 
HETATM   11  C13 UNL     1      25.724   4.530  49.376  1.00  0.00     0.102 C 
HETATM   12  C14 UNL     1      25.452   5.720  49.880  1.00  0.00     0.029 C 
HETATM   13  C15 UNL     1      26.420   6.697  49.333  1.00  0.00     0.017 C 
HETATM   14  C16 UNL     1      26.203   7.994  49.026  1.00  0.00     0.002 C 
HETATM   15  H17 UNL     1      25.720   2.396  49.774  1.00  0.00     0.164 HD
ENDROOT
BRANCH   7  16
HETATM   16  C5  UNL     1      23.775   2.093  52.481  1.00  0.00     0.016 C 
HETATM   17  C6  UNL     1      22.535   1.310  52.205  1.00  0.00     0.007 C 
HETATM   18  C7  UNL     1      22.398   0.299  53.323  1.00  0.00     0.000 C 
HETATM   19  C8  UNL     1      23.617  -0.548  53.534  1.00  0.00     0.000 C 
HETATM   20  C9  UNL     1      24.915   0.160  53.388  1.00  0.00     0.000 C 
HETATM   21  C10 UNL     1      24.953   1.177  52.286  1.00  0.00     0.007 C 
ENDBRANCH   7  16
TORSDOF 1
ENDMDL
MODEL 9
REMARK VINA RESULT:      -6.7      3.228      4.468
REMARK  1 active torsions:
REMARK  status: ('A' for Active; 'I' for Inactive)
REMARK    1  A    between atoms: C4_7  and  C5_8 
ROOT
HETATM    1  C1  UNL     1      22.235   6.902  48.297  1.00  0.00     0.019 C 
HETATM    2  C2  UNL     1      21.899   5.618  48.080  1.00  0.00     0.119 C 
HETATM    3  N1  UNL     1      21.649   4.580  49.013  1.00  0.00    -0.239 NA
HETATM    4  C3  UNL     1      22.013   4.467  50.263  1.00  0.00     0.182 C 
HETATM    5  N2  UNL     1      21.374   3.218  50.398  1.00  0.00    -0.134 NA
HETATM    6  N3  UNL     1      21.573   2.283  51.167  1.00  0.00    -0.181 NA
HETATM    7  C4  UNL     1      22.587   2.295  52.162  1.00  0.00     0.159 C 
HETATM    8  C11 UNL     1      23.906   2.214  51.537  1.00  0.00     0.019 C 
HETATM    9  C12 UNL     1      24.815   3.149  51.741  1.00  0.00     0.085 C 
HETATM   10  N4  UNL     1      24.252   4.120  52.609  1.00  0.00    -0.375 N 
HETATM   11  C13 UNL     1      23.701   5.241  51.970  1.00  0.00     0.102 C 
HETATM   12  C14 UNL     1      22.801   5.437  51.023  1.00  0.00     0.029 C 
HETATM   13  C15 UNL     1      22.665   6.893  50.795  1.00  0.00     0.017 C 
HETATM   14  C16 UNL     1      22.422   7.529  49.629  1.00  0.00     0.002 C 
HETATM   15  H17 UNL     1      24.268   3.971  53.636  1.00  0.00     0.164 HD
ENDROOT
BRANCH   7  16
HETATM   16  C5  UNL     1      22.415   1.217  53.208  1.00  0.00     0.016 C 
HETATM   17  C6  UNL     1      21.007   0.737  53.327  1.00  0.00     0.007 C 
HETATM   18  C7  UNL     1      20.923  -0.059  54.611  1.00  0.00     0.000 C 
HETATM   19  C8  UNL     1      21.947  -1.148  54.723  1.00  0.00     0.000 C 
HETATM   20  C9  UNL     1      23.296  -0.808  54.199  1.00  0.00     0.000 C 
HETATM   21  C10 UNL     1      23.291   0.021  52.949  1.00  0.00     0.007 C 
ENDBRANCH   7  16
TORSDOF 1
ENDMDL
