MODEL 1
REMARK VINA RESULT:      -8.0      0.000      0.000
REMARK  4 active torsions:
REMARK  status: ('A' for Active; 'I' for Inactive)
REMARK    1  A    between atoms: N1_2  and  C2_3 
REMARK    2  A    between atoms: C8_11  and  N4_12 
REMARK    3  A    between atoms: N4_12  and  C9_13 
REMARK    4  A    between atoms: C13_17  and  N5_18 
ROOT
HETATM    1  C2  UNL     1      25.866   5.231  49.327  1.00  0.00     0.120 C 
HETATM    2  C3  UNL     1      25.515   4.125  49.996  1.00  0.00    -0.004 C 
HETATM    3  C4  UNL     1      24.225   4.265  50.635  1.00  0.00     0.121 C 
HETATM    4  N2  UNL     1      23.191   3.996  51.308  1.00  0.00    -0.295 NA
HETATM    5  C5  UNL     1      22.894   2.768  51.988  1.00  0.00     0.203 C 
HETATM    6  C6  UNL     1      24.074   1.967  52.384  1.00  0.00     0.047 C 
HETATM    7  C7  UNL     1      23.996   0.602  52.962  1.00  0.00     0.068 C 
HETATM    8  N3  UNL     1      25.124   2.612  52.153  1.00  0.00    -0.071 NA
HETATM    9  C8  UNL     1      26.466   2.323  52.336  1.00  0.00     0.722 C 
HETATM   10  N6  UNL     1      26.966   2.536  51.193  1.00  0.00    -0.101 NA
HETATM   11  C15 UNL     1      26.416   2.960  49.968  1.00  0.00     0.210 C 
ENDROOT
BRANCH   9  12
HETATM   12  N4  UNL     1      27.322   1.888  53.373  1.00  0.00    -0.188 N 
HETATM   13  H10 UNL     1      27.322   2.586  54.153  1.00  0.00     0.184 HD
BRANCH  12  14
HETATM   14  C9  UNL     1      28.096   0.704  53.401  1.00  0.00     0.051 A 
HETATM   15  C10 UNL     1      29.430   0.660  53.715  1.00  0.00     0.030 A 
HETATM   16  C11 UNL     1      30.096  -0.536  53.684  1.00  0.00     0.004 A 
HETATM   17  C12 UNL     1      29.514  -1.734  53.350  1.00  0.00     0.023 A 
HETATM   18  C13 UNL     1      28.161  -1.653  53.037  1.00  0.00     0.008 A 
HETATM   19  C14 UNL     1      27.427  -0.466  53.051  1.00  0.00     0.053 A 
BRANCH  18  20
HETATM   20  N5  UNL     1      27.515  -2.867  52.677  1.00  0.00    -0.303 NA
HETATM   21  H14 UNL     1      27.565  -3.513  51.846  1.00  0.00     0.124 HD
HETATM   22  H15 UNL     1      27.530  -3.539  51.871  1.00  0.00     0.124 HD
ENDBRANCH  18  20
ENDBRANCH  12  14
ENDBRANCH   9  12
BRANCH   1  23
HETATM   23  N1  UNL     1      26.940   5.673  48.560  1.00  0.00    -0.299 NA
HETATM   24  C1  UNL     1      27.517   6.802  48.561  1.00  0.00     0.170 C 
ENDBRANCH   1  23
TORSDOF 4
ENDMDL
MODEL 2
REMARK VINA RESULT:      -7.4      1.576      6.333
REMARK  4 active torsions:
REMARK  status: ('A' for Active; 'I' for Inactive)
REMARK    1  A    between atoms: N1_2  and  C2_3 
REMARK    2  A    between atoms: C8_11  and  N4_12 
REMARK    3  A    between atoms: N4_12  and  C9_13 
REMARK    4  A    between atoms: C13_17  and  N5_18 
ROOT
HETATM    1  C2  UNL     1      27.750  -0.147  53.978  1.00  0.00     0.120 C 
HETATM    2  C3  UNL     1      26.866   0.740  53.500  1.00  0.00    -0.004 C 
HETATM    3  C4  UNL     1      25.530   0.189  53.434  1.00  0.00     0.121 C 
HETATM    4  N2  UNL     1      24.287   0.094  53.232  1.00  0.00    -0.295 NA
HETATM    5  C5  UNL     1      23.411   1.110  52.722  1.00  0.00     0.203 C 
HETATM    6  C6  UNL     1      24.063   2.138  51.881  1.00  0.00     0.047 C 
HETATM    7  C7  UNL     1      23.378   3.355  51.376  1.00  0.00     0.068 C 
HETATM    8  N3  UNL     1      25.259   1.824  51.674  1.00  0.00    -0.071 NA
HETATM    9  C8  UNL     1      26.282   2.432  50.966  1.00  0.00     0.722 C 
HETATM   10  N6  UNL     1      27.221   2.497  51.814  1.00  0.00    -0.101 NA
HETATM   11  C15 UNL     1      27.330   2.095  53.158  1.00  0.00     0.210 C 
ENDROOT
BRANCH   9  12
HETATM   12  N4  UNL     1      26.511   2.949  49.671  1.00  0.00    -0.188 N 
HETATM   13  H10 UNL     1      26.515   2.170  48.971  1.00  0.00     0.184 HD
BRANCH  12  14
HETATM   14  C9  UNL     1      26.721   4.302  49.315  1.00  0.00     0.051 A 
HETATM   15  C10 UNL     1      27.803   4.755  48.606  1.00  0.00     0.030 A 
HETATM   16  C11 UNL     1      27.928   6.092  48.339  1.00  0.00     0.004 A 
HETATM   17  C12 UNL     1      27.025   7.046  48.741  1.00  0.00     0.023 A 
HETATM   18  C13 UNL     1      25.941   6.552  49.458  1.00  0.00     0.008 A 
HETATM   19  C14 UNL     1      25.757   5.201  49.761  1.00  0.00     0.053 A 
BRANCH  18  20
HETATM   20  N5  UNL     1      24.982   7.502  49.902  1.00  0.00    -0.303 NA
HETATM   21  H14 UNL     1      24.448   8.284  49.441  1.00  0.00     0.124 HD
HETATM   22  H15 UNL     1      24.429   8.291  49.487  1.00  0.00     0.124 HD
ENDBRANCH  18  20
ENDBRANCH  12  14
ENDBRANCH   9  12
BRANCH   1  23
HETATM   23  N1  UNL     1      29.113  -0.195  54.252  1.00  0.00    -0.299 NA
HETATM   24  C1  UNL     1      30.047  -0.744  53.592  1.00  0.00     0.170 C 
ENDBRANCH   1  23
TORSDOF 4
ENDMDL
MODEL 3
REMARK VINA RESULT:      -7.3      2.213      4.822
REMARK  4 active torsions:
REMARK  status: ('A' for Active; 'I' for Inactive)
REMARK    1  A    between atoms: N1_2  and  C2_3 
REMARK    2  A    between atoms: C8_11  and  N4_12 
REMARK    3  A    between atoms: N4_12  and  C9_13 
REMARK    4  A    between atoms: C13_17  and  N5_18 
ROOT
HETATM    1  C2  UNL     1      21.581   0.201  51.905  1.00  0.00     0.120 C 
HETATM    2  C3  UNL     1      22.198   1.298  51.446  1.00  0.00    -0.004 C 
HETATM    3  C4  UNL     1      22.114   1.403  50.005  1.00  0.00     0.121 C 
HETATM    4  N2  UNL     1      22.256   1.844  48.831  1.00  0.00    -0.295 NA
HETATM    5  C5  UNL     1      22.931   3.046  48.431  1.00  0.00     0.203 C 
HETATM    6  C6  UNL     1      23.978   3.519  49.364  1.00  0.00     0.047 C 
HETATM    7  C7  UNL     1      24.693   4.812  49.223  1.00  0.00     0.068 C 
HETATM    8  N3  UNL     1      24.154   2.673  50.272  1.00  0.00    -0.071 NA
HETATM    9  C8  UNL     1      24.998   2.631  51.369  1.00  0.00     0.722 C 
HETATM   10  N6  UNL     1      24.209   2.406  52.333  1.00  0.00    -0.101 NA
HETATM   11  C15 UNL     1      22.815   2.225  52.410  1.00  0.00     0.210 C 
ENDROOT
BRANCH   9  12
HETATM   12  N4  UNL     1      26.377   2.770  51.649  1.00  0.00    -0.188 N 
HETATM   13  H10 UNL     1      26.746   3.640  51.200  1.00  0.00     0.184 HD
BRANCH  12  14
HETATM   14  C9  UNL     1      27.188   1.892  52.405  1.00  0.00     0.051 A 
HETATM   15  C10 UNL     1      27.085   0.526  52.375  1.00  0.00     0.030 A 
HETATM   16  C11 UNL     1      27.900  -0.234  53.171  1.00  0.00     0.004 A 
HETATM   17  C12 UNL     1      28.841   0.282  54.027  1.00  0.00     0.023 A 
HETATM   18  C13 UNL     1      28.919   1.671  54.033  1.00  0.00     0.008 A 
HETATM   19  C14 UNL     1      28.118   2.500  53.245  1.00  0.00     0.053 A 
BRANCH  18  20
HETATM   20  N5  UNL     1      29.874   2.254  54.909  1.00  0.00    -0.303 NA
HETATM   21  H14 UNL     1      30.882   2.054  55.141  1.00  0.00     0.124 HD
HETATM   22  H15 UNL     1      30.877   2.093  55.173  1.00  0.00     0.124 HD
ENDBRANCH  18  20
ENDBRANCH  12  14
ENDBRANCH   9  12
BRANCH   1  23
HETATM   23  N1  UNL     1      21.343  -0.408  53.133  1.00  0.00    -0.299 NA
HETATM   24  C1  UNL     1      20.521  -0.085  54.044  1.00  0.00     0.170 C 
ENDBRANCH   1  23
TORSDOF 4
ENDMDL
MODEL 4
REMARK VINA RESULT:      -7.2      1.888      2.845
REMARK  4 active torsions:
REMARK  status: ('A' for Active; 'I' for Inactive)
REMARK    1  A    between atoms: N1_2  and  C2_3 
REMARK    2  A    between atoms: C8_11  and  N4_12 
REMARK    3  A    between atoms: N4_12  and  C9_13 
REMARK    4  A    between atoms: C13_17  and  N5_18 
ROOT
HETATM    1  C2  UNL     1      23.708   4.328  51.090  1.00  0.00     0.120 C 
HETATM    2  C3  UNL     1      23.417   3.063  51.420  1.00  0.00    -0.004 C 
HETATM    3  C4  UNL     1      22.160   2.964  52.129  1.00  0.00     0.121 C 
HETATM    4  N2  UNL     1      21.169   2.473  52.738  1.00  0.00    -0.295 NA
HETATM    5  C5  UNL     1      20.936   1.090  53.041  1.00  0.00     0.203 C 
HETATM    6  C6  UNL     1      22.153   0.252  53.134  1.00  0.00     0.047 C 
HETATM    7  C7  UNL     1      22.136  -1.224  53.290  1.00  0.00     0.068 C 
HETATM    8  N3  UNL     1      23.175   0.975  53.056  1.00  0.00    -0.071 NA
HETATM    9  C8  UNL     1      24.530   0.695  53.087  1.00  0.00     0.722 C 
HETATM   10  N6  UNL     1      24.964   1.250  52.035  1.00  0.00    -0.101 NA
HETATM   11  C15 UNL     1      24.341   1.990  51.013  1.00  0.00     0.210 C 
ENDROOT
BRANCH   9  12
HETATM   12  N4  UNL     1      25.450   0.008  53.912  1.00  0.00    -0.188 N 
HETATM   13  H10 UNL     1      24.938  -0.507  54.666  1.00  0.00     0.184 HD
BRANCH  12  14
HETATM   14  C9  UNL     1      26.860  -0.007  53.792  1.00  0.00     0.051 A 
HETATM   15  C10 UNL     1      27.580  -1.059  53.289  1.00  0.00     0.030 A 
HETATM   16  C11 UNL     1      28.947  -0.986  53.245  1.00  0.00     0.004 A 
HETATM   17  C12 UNL     1      29.676   0.094  53.681  1.00  0.00     0.023 A 
HETATM   18  C13 UNL     1      28.913   1.142  54.184  1.00  0.00     0.008 A 
HETATM   19  C14 UNL     1      27.519   1.128  54.256  1.00  0.00     0.053 A 
BRANCH  18  20
HETATM   20  N5  UNL     1      29.623   2.280  54.655  1.00  0.00    -0.303 NA
HETATM   21  H14 UNL     1      29.449   3.003  55.400  1.00  0.00     0.124 HD
HETATM   22  H15 UNL     1      29.492   3.023  55.384  1.00  0.00     0.124 HD
ENDBRANCH  18  20
ENDBRANCH  12  14
ENDBRANCH   9  12
BRANCH   1  23
HETATM   23  N1  UNL     1      24.729   5.013  50.438  1.00  0.00    -0.299 NA
HETATM   24  C1  UNL     1      25.009   5.052  49.201  1.00  0.00     0.170 C 
ENDBRANCH   1  23
TORSDOF 4
ENDMDL
MODEL 5
REMARK VINA RESULT:      -7.2      1.703      2.320
REMARK  4 active torsions:
REMARK  status: ('A' for Active; 'I' for Inactive)
REMARK    1  A    between atoms: N1_2  and  C2_3 
REMARK    2  A    between atoms: C8_11  and  N4_12 
REMARK    3  A    between atoms: N4_12  and  C9_13 
REMARK    4  A    between atoms: C13_17  and  N5_18 
ROOT
HETATM    1  C2  UNL     1      27.127   5.424  48.953  1.00  0.00     0.120 C 
HETATM    2  C3  UNL     1      26.151   4.578  49.311  1.00  0.00    -0.004 C 
HETATM    3  C4  UNL     1      24.916   5.271  49.606  1.00  0.00     0.121 C 
HETATM    4  N2  UNL     1      23.715   5.482  49.931  1.00  0.00    -0.295 NA
HETATM    5  C5  UNL     1      22.730   4.504  50.293  1.00  0.00     0.203 C 
HETATM    6  C6  UNL     1      23.270   3.240  50.841  1.00  0.00     0.047 C 
HETATM    7  C7  UNL     1      22.445   2.043  51.141  1.00  0.00     0.068 C 
HETATM    8  N3  UNL     1      24.510   3.342  51.005  1.00  0.00    -0.071 NA
HETATM    9  C8  UNL     1      25.471   2.466  51.479  1.00  0.00     0.722 C 
HETATM   10  N6  UNL     1      26.341   2.465  50.558  1.00  0.00    -0.101 NA
HETATM   11  C15 UNL     1      26.430   3.132  49.322  1.00  0.00     0.210 C 
ENDROOT
BRANCH   9  12
HETATM   12  N4  UNL     1      25.695   1.654  52.614  1.00  0.00    -0.188 N 
HETATM   13  H10 UNL     1      24.796   1.505  53.129  1.00  0.00     0.184 HD
BRANCH  12  14
HETATM   14  C9  UNL     1      26.927   1.107  53.045  1.00  0.00     0.051 A 
HETATM   15  C10 UNL     1      27.283  -0.208  52.893  1.00  0.00     0.030 A 
HETATM   16  C11 UNL     1      28.489  -0.644  53.373  1.00  0.00     0.004 A 
HETATM   17  C12 UNL     1      29.398   0.159  54.018  1.00  0.00     0.023 A 
HETATM   18  C13 UNL     1      29.004   1.486  54.155  1.00  0.00     0.008 A 
HETATM   19  C14 UNL     1      27.790   1.991  53.687  1.00  0.00     0.053 A 
BRANCH  18  20
HETATM   20  N5  UNL     1      29.909   2.355  54.823  1.00  0.00    -0.303 NA
HETATM   21  H14 UNL     1      30.158   3.374  54.732  1.00  0.00     0.124 HD
HETATM   22  H15 UNL     1      30.191   3.364  54.769  1.00  0.00     0.124 HD
ENDBRANCH  18  20
ENDBRANCH  12  14
ENDBRANCH   9  12
BRANCH   1  23
HETATM   23  N1  UNL     1      28.465   5.351  48.577  1.00  0.00    -0.299 NA
HETATM   24  C1  UNL     1      29.152   6.167  47.890  1.00  0.00     0.170 C 
ENDBRANCH   1  23
TORSDOF 4
ENDMDL
MODEL 6
REMARK VINA RESULT:      -6.9      3.474      5.260
REMARK  4 active torsions:
REMARK  status: ('A' for Active; 'I' for Inactive)
REMARK    1  A    between atoms: N1_2  and  C2_3 
REMARK    2  A    between atoms: C8_11  and  N4_12 
REMARK    3  A    between atoms: N4_12  and  C9_13 
REMARK    4  A    between atoms: C13_17  and  N5_18 
ROOT
HETATM    1  C2  UNL     1      19.233   1.620  49.817  1.00  0.00     0.120 C 
HETATM    2  C3  UNL     1      19.978   0.886  50.655  1.00  0.00    -0.004 C 
HETATM    3  C4  UNL     1      19.205   0.387  51.771  1.00  0.00     0.121 C 
HETATM    4  N2  UNL     1      18.902  -0.214  52.839  1.00  0.00    -0.295 NA
HETATM    5  C5  UNL     1      19.774  -0.992  53.672  1.00  0.00     0.203 C 
HETATM    6  C6  UNL     1      21.208  -0.638  53.587  1.00  0.00     0.047 C 
HETATM    7  C7  UNL     1      22.294  -1.406  54.245  1.00  0.00     0.068 C 
HETATM    8  N3  UNL     1      21.352   0.388  52.881  1.00  0.00    -0.071 NA
HETATM    9  C8  UNL     1      22.465   1.116  52.495  1.00  0.00     0.722 C 
HETATM   10  N6  UNL     1      22.353   1.168  51.234  1.00  0.00    -0.101 NA
HETATM   11  C15 UNL     1      21.398   0.662  50.334  1.00  0.00     0.210 C 
ENDROOT
BRANCH   9  12
HETATM   12  N4  UNL     1      23.580   1.743  53.096  1.00  0.00    -0.188 N 
HETATM   13  H10 UNL     1      23.273   2.602  53.610  1.00  0.00     0.184 HD
BRANCH  12  14
HETATM   14  C9  UNL     1      24.930   1.325  53.036  1.00  0.00     0.051 A 
HETATM   15  C10 UNL     1      25.344   0.118  52.536  1.00  0.00     0.030 A 
HETATM   16  C11 UNL     1      26.675  -0.203  52.552  1.00  0.00     0.004 A 
HETATM   17  C12 UNL     1      27.660   0.615  53.049  1.00  0.00     0.023 A 
HETATM   18  C13 UNL     1      27.205   1.831  53.548  1.00  0.00     0.008 A 
HETATM   19  C14 UNL     1      25.863   2.217  53.559  1.00  0.00     0.053 A 
BRANCH  18  20
HETATM   20  N5  UNL     1      28.187   2.710  54.080  1.00  0.00    -0.303 NA
HETATM   21  H14 UNL     1      28.240   3.751  54.237  1.00  0.00     0.124 HD
HETATM   22  H15 UNL     1      28.286   3.740  54.254  1.00  0.00     0.124 HD
ENDBRANCH  18  20
ENDBRANCH  12  14
ENDBRANCH   9  12
BRANCH   1  23
HETATM   23  N1  UNL     1      19.411   2.329  48.633  1.00  0.00    -0.299 NA
HETATM   24  C1  UNL     1      19.846   3.509  48.461  1.00  0.00     0.170 C 
ENDBRANCH   1  23
TORSDOF 4
ENDMDL
MODEL 7
REMARK VINA RESULT:      -6.9      2.390      7.204
REMARK  4 active torsions:
REMARK  status: ('A' for Active; 'I' for Inactive)
REMARK    1  A    between atoms: N1_2  and  C2_3 
REMARK    2  A    between atoms: C8_11  and  N4_12 
REMARK    3  A    between atoms: N4_12  and  C9_13 
REMARK    4  A    between atoms: C13_17  and  N5_18 
ROOT
HETATM    1  C2  UNL     1      22.923  -1.327  54.958  1.00  0.00     0.120 C 
HETATM    2  C3  UNL     1      23.900  -0.678  54.309  1.00  0.00    -0.004 C 
HETATM    3  C4  UNL     1      25.134  -0.665  55.064  1.00  0.00     0.121 C 
HETATM    4  N2  UNL     1      26.335  -0.443  55.382  1.00  0.00    -0.295 NA
HETATM    5  C5  UNL     1      27.321   0.259  54.612  1.00  0.00     0.203 C 
HETATM    6  C6  UNL     1      26.782   1.242  53.647  1.00  0.00     0.047 C 
HETATM    7  C7  UNL     1      27.608   1.969  52.650  1.00  0.00     0.068 C 
HETATM    8  N3  UNL     1      25.542   1.355  53.801  1.00  0.00    -0.071 NA
HETATM    9  C8  UNL     1      24.581   2.124  53.167  1.00  0.00     0.722 C 
HETATM   10  N6  UNL     1      23.712   1.271  52.818  1.00  0.00    -0.101 NA
HETATM   11  C15 UNL     1      23.622  -0.125  52.973  1.00  0.00     0.210 C 
ENDROOT
BRANCH   9  12
HETATM   12  N4  UNL     1      24.358   3.481  52.840  1.00  0.00    -0.188 N 
HETATM   13  H10 UNL     1      24.196   4.036  53.712  1.00  0.00     0.184 HD
BRANCH  12  14
HETATM   14  C9  UNL     1      24.334   4.057  51.548  1.00  0.00     0.051 A 
HETATM   15  C10 UNL     1      25.166   3.688  50.522  1.00  0.00     0.030 A 
HETATM   16  C11 UNL     1      25.083   4.331  49.316  1.00  0.00     0.004 A 
HETATM   17  C12 UNL     1      24.203   5.350  49.045  1.00  0.00     0.023 A 
HETATM   18  C13 UNL     1      23.375   5.698  50.106  1.00  0.00     0.008 A 
HETATM   19  C14 UNL     1      23.411   5.081  51.358  1.00  0.00     0.053 A 
BRANCH  18  20
HETATM   20  N5  UNL     1      22.452   6.754  49.876  1.00  0.00    -0.303 NA
HETATM   21  H14 UNL     1      22.262   7.683  50.336  1.00  0.00     0.124 HD
HETATM   22  H15 UNL     1      22.226   7.686  50.301  1.00  0.00     0.124 HD
ENDBRANCH  18  20
ENDBRANCH  12  14
ENDBRANCH   9  12
BRANCH   1  23
HETATM   23  N1  UNL     1      21.585  -1.648  54.748  1.00  0.00    -0.299 NA
HETATM   24  C1  UNL     1      20.654  -0.935  54.263  1.00  0.00     0.170 C 
ENDBRANCH   1  23
TORSDOF 4
ENDMDL
MODEL 8
REMARK VINA RESULT:      -6.8      1.357      1.851
REMARK  4 active torsions:
REMARK  status: ('A' for Active; 'I' for Inactive)
REMARK    1  A    between atoms: N1_2  and  C2_3 
REMARK    2  A    between atoms: C8_11  and  N4_12 
REMARK    3  A    between atoms: N4_12  and  C9_13 
REMARK    4  A    between atoms: C13_17  and  N5_18 
ROOT
HETATM    1  C2  UNL     1      25.067   5.321  50.092  1.00  0.00     0.120 C 
HETATM    2  C3  UNL     1      24.243   4.347  50.501  1.00  0.00    -0.004 C 
HETATM    3  C4  UNL     1      23.071   4.874  51.166  1.00  0.00     0.121 C 
HETATM    4  N2  UNL     1      21.964   4.924  51.771  1.00  0.00    -0.295 NA
HETATM    5  C5  UNL     1      21.139   3.818  52.163  1.00  0.00     0.203 C 
HETATM    6  C6  UNL     1      21.855   2.538  52.361  1.00  0.00     0.047 C 
HETATM    7  C7  UNL     1      21.183   1.241  52.622  1.00  0.00     0.068 C 
HETATM    8  N3  UNL     1      23.092   2.724  52.271  1.00  0.00    -0.071 NA
HETATM    9  C8  UNL     1      24.181   1.874  52.373  1.00  0.00     0.722 C 
HETATM   10  N6  UNL     1      24.820   2.092  51.301  1.00  0.00    -0.101 NA
HETATM   11  C15 UNL     1      24.593   2.947  50.206  1.00  0.00     0.210 C 
ENDROOT
BRANCH   9  12
HETATM   12  N4  UNL     1      24.698   0.920  53.279  1.00  0.00    -0.188 N 
HETATM   13  H10 UNL     1      23.951   0.626  53.951  1.00  0.00     0.184 HD
BRANCH  12  14
HETATM   14  C9  UNL     1      26.017   0.413  53.326  1.00  0.00     0.051 A 
HETATM   15  C10 UNL     1      27.123   1.164  53.630  1.00  0.00     0.030 A 
HETATM   16  C11 UNL     1      28.363   0.581  53.618  1.00  0.00     0.004 A 
HETATM   17  C12 UNL     1      28.592  -0.738  53.314  1.00  0.00     0.023 A 
HETATM   18  C13 UNL     1      27.449  -1.470  53.011  1.00  0.00     0.008 A 
HETATM   19  C14 UNL     1      26.159  -0.935  53.007  1.00  0.00     0.053 A 
BRANCH  18  20
HETATM   20  N5  UNL     1      27.636  -2.840  52.683  1.00  0.00    -0.303 NA
HETATM   21  H14 UNL     1      27.953  -3.356  51.821  1.00  0.00     0.124 HD
HETATM   22  H15 UNL     1      27.945  -3.397  51.850  1.00  0.00     0.124 HD
ENDBRANCH  18  20
ENDBRANCH  12  14
ENDBRANCH   9  12
BRANCH   1  23
HETATM   23  N1  UNL     1      26.288   5.427  49.432  1.00  0.00    -0.299 NA
HETATM   24  C1  UNL     1      26.673   6.293  48.589  1.00  0.00     0.170 C 
ENDBRANCH   1  23
TORSDOF 4
ENDMDL
MODEL 9
REMARK VINA RESULT:      -6.7      3.287      6.207
REMARK  4 active torsions:
REMARK  status: ('A' for Active; 'I' for Inactive)
REMARK    1  A    between atoms: N1_2  and  C2_3 
REMARK    2  A    between atoms: C8_11  and  N4_12 
REMARK    3  A    between atoms: N4_12  and  C9_13 
REMARK    4  A    between atoms: C13_17  and  N5_18 
ROOT
HETATM    1  C2  UNL     1      24.579   4.098  50.646  1.00  0.00     0.120 C 
HETATM    2  C3  UNL     1      24.769   3.206  51.628  1.00  0.00    -0.004 C 
HETATM    3  C4  UNL     1      25.976   2.434  51.432  1.00  0.00     0.121 C 
HETATM    4  N2  UNL     1      26.898   1.593  51.620  1.00  0.00    -0.295 NA
HETATM    5  C5  UNL     1      27.024   0.677  52.717  1.00  0.00     0.203 C 
HETATM    6  C6  UNL     1      25.753   0.309  53.380  1.00  0.00     0.047 C 
HETATM    7  C7  UNL     1      25.667  -0.502  54.620  1.00  0.00     0.068 C 
HETATM    8  N3  UNL     1      24.786   0.787  52.741  1.00  0.00    -0.071 NA
HETATM    9  C8  UNL     1      23.415   0.738  52.933  1.00  0.00     0.722 C 
HETATM   10  N6  UNL     1      23.077   1.958  52.908  1.00  0.00    -0.101 NA
HETATM   11  C15 UNL     1      23.802   3.153  52.738  1.00  0.00     0.210 C 
ENDROOT
BRANCH   9  12
HETATM   12  N4  UNL     1      22.409  -0.234  53.135  1.00  0.00    -0.188 N 
HETATM   13  H10 UNL     1      22.786  -1.023  53.710  1.00  0.00     0.184 HD
BRANCH  12  14
HETATM   14  C9  UNL     1      21.081  -0.203  52.649  1.00  0.00     0.051 A 
HETATM   15  C10 UNL     1      20.714   0.322  51.437  1.00  0.00     0.030 A 
HETATM   16  C11 UNL     1      19.393   0.330  51.074  1.00  0.00     0.004 A 
HETATM   17  C12 UNL     1      18.375  -0.159  51.854  1.00  0.00     0.023 A 
HETATM   18  C13 UNL     1      18.783  -0.684  53.076  1.00  0.00     0.008 A 
HETATM   19  C14 UNL     1      20.112  -0.722  53.504  1.00  0.00     0.053 A 
BRANCH  18  20
HETATM   20  N5  UNL     1      17.764  -1.197  53.924  1.00  0.00    -0.303 NA
HETATM   21  H14 UNL     1      16.721  -1.063  53.989  1.00  0.00     0.124 HD
HETATM   22  H15 UNL     1      16.725  -1.095  54.028  1.00  0.00     0.124 HD
ENDBRANCH  18  20
ENDBRANCH  12  14
ENDBRANCH   9  12
BRANCH   1  23
HETATM   23  N1  UNL     1      23.641   5.068  50.303  1.00  0.00    -0.299 NA
HETATM   24  C1  UNL     1      23.473   6.228  50.786  1.00  0.00     0.170 C 
ENDBRANCH   1  23
TORSDOF 4
ENDMDL
