MODEL 1
REMARK VINA RESULT:      -9.4      0.000      0.000
REMARK  3 active torsions:
REMARK  status: ('A' for Active; 'I' for Inactive)
REMARK    1  A    between atoms: N1_1  and  N2_2 
REMARK    2  A    between atoms: C4_8  and  C5_9 
REMARK    3  A    between atoms: C12_16  and  C13_17 
ROOT
HETATM    1  N2  UNL     1      22.597  -0.740  54.014  1.00  0.00    -0.198 N 
HETATM    2  N3  UNL     1      23.963  -0.498  54.194  1.00  0.00    -0.158 NA
HETATM    3  C1  UNL     1      24.640   0.286  53.451  1.00  0.00     0.095 A 
HETATM    4  C2  UNL     1      23.865   0.921  52.383  1.00  0.00     0.010 A 
HETATM    5  C3  UNL     1      24.711   1.700  51.705  1.00  0.00     0.097 A 
HETATM    6  N4  UNL     1      26.016   1.625  52.260  1.00  0.00    -0.384 N 
HETATM    7  C4  UNL     1      26.053   0.740  53.381  1.00  0.00     0.169 A 
HETATM    8  C11 UNL     1      22.442   0.641  52.231  1.00  0.00     0.048 A 
HETATM    9  C12 UNL     1      21.768  -0.175  53.015  1.00  0.00     0.082 A 
HETATM   10  H4  UNL     1      26.853   2.142  51.908  1.00  0.00     0.160 HD
ENDROOT
BRANCH   9  11
HETATM   11  C13 UNL     1      20.375  -0.429  52.843  1.00  0.00    -0.005 A 
HETATM   12  C14 UNL     1      19.552  -1.182  53.632  1.00  0.00     0.014 A 
HETATM   13  C15 UNL     1      18.209  -1.414  53.444  1.00  0.00     0.002 A 
HETATM   14  C16 UNL     1      17.592  -0.840  52.352  1.00  0.00     0.019 A 
HETATM   15  C17 UNL     1      18.383  -0.056  51.507  1.00  0.00     0.011 A 
HETATM   16 BR1  UNL     1      17.445   0.690  50.033  1.00  0.00    -0.051 Br
HETATM   17  C18 UNL     1      19.724   0.119  51.775  1.00  0.00     0.032 A 
ENDBRANCH   9  11
BRANCH   1  18
HETATM   18  N1  UNL     1      22.108  -1.635  54.962  1.00  0.00    -0.226 NA
HETATM   19  H1  UNL     1      21.318  -1.144  55.446  1.00  0.00     0.145 HD
HETATM   20  H2  UNL     1      22.844  -1.810  55.677  1.00  0.00     0.145 HD
ENDBRANCH   1  18
BRANCH   7  21
HETATM   21  C5  UNL     1      27.009  -0.376  53.242  1.00  0.00    -0.030 A 
HETATM   22  C6  UNL     1      26.809  -1.639  52.718  1.00  0.00     0.009 A 
HETATM   23  C7  UNL     1      27.846  -2.543  52.679  1.00  0.00     0.001 A 
HETATM   24  C8  UNL     1      29.095  -2.184  53.165  1.00  0.00     0.000 A 
HETATM   25  C9  UNL     1      29.335  -0.929  53.696  1.00  0.00     0.001 A 
HETATM   26  C10 UNL     1      28.277  -0.041  53.724  1.00  0.00     0.009 A 
ENDBRANCH   7  21
TORSDOF 3
ENDMDL
MODEL 2
REMARK VINA RESULT:      -9.0      3.036      7.886
REMARK  3 active torsions:
REMARK  status: ('A' for Active; 'I' for Inactive)
REMARK    1  A    between atoms: N1_1  and  N2_2 
REMARK    2  A    between atoms: C4_8  and  C5_9 
REMARK    3  A    between atoms: C12_16  and  C13_17 
ROOT
HETATM    1  N2  UNL     1      23.762   1.728  53.141  1.00  0.00    -0.198 N 
HETATM    2  N3  UNL     1      22.371   1.588  53.169  1.00  0.00    -0.158 NA
HETATM    3  C1  UNL     1      21.780   0.525  53.551  1.00  0.00     0.095 A 
HETATM    4  C2  UNL     1      22.685  -0.551  53.962  1.00  0.00     0.010 A 
HETATM    5  C3  UNL     1      21.917  -1.581  54.328  1.00  0.00     0.097 A 
HETATM    6  N4  UNL     1      20.543  -1.256  54.186  1.00  0.00    -0.384 N 
HETATM    7  C4  UNL     1      20.372   0.075  53.693  1.00  0.00     0.169 A 
HETATM    8  C11 UNL     1      24.130  -0.363  53.917  1.00  0.00     0.048 A 
HETATM    9  C12 UNL     1      24.713   0.748  53.517  1.00  0.00     0.082 A 
HETATM   10  H4  UNL     1      19.745  -1.894  54.408  1.00  0.00     0.160 HD
ENDROOT
BRANCH   9  11
HETATM   11  C13 UNL     1      26.130   0.904  53.484  1.00  0.00    -0.005 A 
HETATM   12  C14 UNL     1      26.851   2.064  53.487  1.00  0.00     0.014 A 
HETATM   13  C15 UNL     1      28.221   2.189  53.453  1.00  0.00     0.002 A 
HETATM   14  C16 UNL     1      28.982   1.039  53.412  1.00  0.00     0.019 A 
HETATM   15  C17 UNL     1      28.300  -0.182  53.407  1.00  0.00     0.011 A 
HETATM   16 BR1  UNL     1      29.433  -1.705  53.349  1.00  0.00    -0.051 Br
HETATM   17  C18 UNL     1      26.922  -0.208  53.442  1.00  0.00     0.032 A 
ENDBRANCH   9  11
BRANCH   1  18
HETATM   18  N1  UNL     1      24.139   2.987  52.684  1.00  0.00    -0.226 NA
HETATM   19  H1  UNL     1      24.888   2.826  51.968  1.00  0.00     0.145 HD
HETATM   20  H2  UNL     1      24.573   3.518  53.466  1.00  0.00     0.145 HD
ENDBRANCH   1  18
BRANCH   7  21
HETATM   21  C5  UNL     1      19.610   0.161  52.432  1.00  0.00    -0.030 A 
HETATM   22  C6  UNL     1      19.953   0.777  51.244  1.00  0.00     0.009 A 
HETATM   23  C7  UNL     1      19.090   0.740  50.173  1.00  0.00     0.001 A 
HETATM   24  C8  UNL     1      17.873   0.084  50.287  1.00  0.00     0.000 A 
HETATM   25  C9  UNL     1      17.494  -0.545  51.460  1.00  0.00     0.001 A 
HETATM   26  C10 UNL     1      18.379  -0.494  52.520  1.00  0.00     0.009 A 
ENDBRANCH   7  21
TORSDOF 3
ENDMDL
MODEL 3
REMARK VINA RESULT:      -8.7      3.984      5.930
REMARK  3 active torsions:
REMARK  status: ('A' for Active; 'I' for Inactive)
REMARK    1  A    between atoms: N1_1  and  N2_2 
REMARK    2  A    between atoms: C4_8  and  C5_9 
REMARK    3  A    between atoms: C12_16  and  C13_17 
ROOT
HETATM    1  N2  UNL     1      24.135   3.146  52.211  1.00  0.00    -0.198 N 
HETATM    2  N3  UNL     1      24.546   4.240  51.444  1.00  0.00    -0.158 NA
HETATM    3  C1  UNL     1      24.139   4.456  50.256  1.00  0.00     0.095 A 
HETATM    4  C2  UNL     1      23.196   3.455  49.752  1.00  0.00     0.010 A 
HETATM    5  C3  UNL     1      22.872   3.823  48.510  1.00  0.00     0.097 A 
HETATM    6  N4  UNL     1      23.546   5.019  48.149  1.00  0.00    -0.384 N 
HETATM    7  C4  UNL     1      24.377   5.487  49.213  1.00  0.00     0.169 A 
HETATM    8  C11 UNL     1      22.794   2.329  50.586  1.00  0.00     0.048 A 
HETATM    9  C12 UNL     1      23.231   2.131  51.812  1.00  0.00     0.082 A 
HETATM   10  H4  UNL     1      23.459   5.509  47.230  1.00  0.00     0.160 HD
ENDROOT
BRANCH   9  11
HETATM   11  C13 UNL     1      22.820   1.020  52.605  1.00  0.00    -0.005 A 
HETATM   12  C14 UNL     1      23.593   0.212  53.390  1.00  0.00     0.014 A 
HETATM   13  C15 UNL     1      23.172  -0.858  54.147  1.00  0.00     0.002 A 
HETATM   14  C16 UNL     1      21.830  -1.178  54.138  1.00  0.00     0.019 A 
HETATM   15  C17 UNL     1      20.987  -0.386  53.352  1.00  0.00     0.011 A 
HETATM   16 BR1  UNL     1      19.160  -0.905  53.403  1.00  0.00    -0.051 Br
HETATM   17  C18 UNL     1      21.500   0.667  52.625  1.00  0.00     0.032 A 
ENDBRANCH   9  11
BRANCH   1  18
HETATM   18  N1  UNL     1      24.731   3.152  53.469  1.00  0.00    -0.226 NA
HETATM   19  H1  UNL     1      24.032   3.579  54.122  1.00  0.00     0.145 HD
HETATM   20  H2  UNL     1      25.559   3.782  53.452  1.00  0.00     0.145 HD
ENDBRANCH   1  18
BRANCH   7  21
HETATM   21  C5  UNL     1      25.802   5.625  48.854  1.00  0.00    -0.030 A 
HETATM   22  C6  UNL     1      26.822   4.699  48.956  1.00  0.00     0.009 A 
HETATM   23  C7  UNL     1      28.098   5.031  48.560  1.00  0.00     0.001 A 
HETATM   24  C8  UNL     1      28.359   6.297  48.057  1.00  0.00     0.000 A 
HETATM   25  C9  UNL     1      27.364   7.251  47.939  1.00  0.00     0.001 A 
HETATM   26  C10 UNL     1      26.092   6.893  48.343  1.00  0.00     0.009 A 
ENDBRANCH   7  21
TORSDOF 3
ENDMDL
MODEL 4
REMARK VINA RESULT:      -8.7      4.166      6.777
REMARK  3 active torsions:
REMARK  status: ('A' for Active; 'I' for Inactive)
REMARK    1  A    between atoms: N1_1  and  N2_2 
REMARK    2  A    between atoms: C4_8  and  C5_9 
REMARK    3  A    between atoms: C12_16  and  C13_17 
ROOT
HETATM    1  N2  UNL     1      26.486   3.939  50.011  1.00  0.00    -0.198 N 
HETATM    2  N3  UNL     1      26.781   2.658  50.487  1.00  0.00    -0.158 NA
HETATM    3  C1  UNL     1      26.031   2.021  51.297  1.00  0.00     0.095 A 
HETATM    4  C2  UNL     1      24.821   2.746  51.693  1.00  0.00     0.010 A 
HETATM    5  C3  UNL     1      24.153   1.951  52.533  1.00  0.00     0.097 A 
HETATM    6  N4  UNL     1      24.848   0.728  52.724  1.00  0.00    -0.384 N 
HETATM    7  C4  UNL     1      26.060   0.695  51.967  1.00  0.00     0.169 A 
HETATM    8  C11 UNL     1      24.552   4.081  51.172  1.00  0.00     0.048 A 
HETATM    9  C12 UNL     1      25.347   4.715  50.335  1.00  0.00     0.082 A 
HETATM   10  H4  UNL     1      24.531  -0.059  53.335  1.00  0.00     0.160 HD
ENDROOT
BRANCH   9  11
HETATM   11  C13 UNL     1      25.058   6.021  49.841  1.00  0.00    -0.005 A 
HETATM   12  C14 UNL     1      25.294   7.223  50.446  1.00  0.00     0.014 A 
HETATM   13  C15 UNL     1      25.004   8.473  49.948  1.00  0.00     0.002 A 
HETATM   14  C16 UNL     1      24.411   8.561  48.706  1.00  0.00     0.019 A 
HETATM   15  C17 UNL     1      24.144   7.363  48.036  1.00  0.00     0.011 A 
HETATM   16 BR1  UNL     1      23.328   7.587  46.335  1.00  0.00    -0.051 Br
HETATM   17  C18 UNL     1      24.470   6.155  48.615  1.00  0.00     0.032 A 
ENDBRANCH   9  11
BRANCH   1  18
HETATM   18  N1  UNL     1      27.471   4.400  49.142  1.00  0.00    -0.226 NA
HETATM   19  H1  UNL     1      27.944   5.196  49.632  1.00  0.00     0.145 HD
HETATM   20  H2  UNL     1      27.019   4.790  48.289  1.00  0.00     0.145 HD
ENDBRANCH   1  18
BRANCH   7  21
HETATM   21  C5  UNL     1      27.275   0.487  52.777  1.00  0.00    -0.030 A 
HETATM   22  C6  UNL     1      27.998   1.401  53.520  1.00  0.00     0.009 A 
HETATM   23  C7  UNL     1      29.116   0.997  54.213  1.00  0.00     0.001 A 
HETATM   24  C8  UNL     1      29.518  -0.330  54.166  1.00  0.00     0.000 A 
HETATM   25  C9  UNL     1      28.821  -1.275  53.434  1.00  0.00     0.001 A 
HETATM   26  C10 UNL     1      27.702  -0.843  52.748  1.00  0.00     0.009 A 
ENDBRANCH   7  21
TORSDOF 3
ENDMDL
MODEL 5
REMARK VINA RESULT:      -8.7      4.226      7.323
REMARK  3 active torsions:
REMARK  status: ('A' for Active; 'I' for Inactive)
REMARK    1  A    between atoms: N1_1  and  N2_2 
REMARK    2  A    between atoms: C4_8  and  C5_9 
REMARK    3  A    between atoms: C12_16  and  C13_17 
ROOT
HETATM    1  N2  UNL     1      24.649   3.787  51.832  1.00  0.00    -0.198 N 
HETATM    2  N3  UNL     1      24.395   2.778  52.767  1.00  0.00    -0.158 NA
HETATM    3  C1  UNL     1      24.978   1.644  52.750  1.00  0.00     0.095 A 
HETATM    4  C2  UNL     1      25.945   1.481  51.662  1.00  0.00     0.010 A 
HETATM    5  C3  UNL     1      26.460   0.255  51.785  1.00  0.00     0.097 A 
HETATM    6  N4  UNL     1      25.891  -0.417  52.898  1.00  0.00    -0.384 N 
HETATM    7  C4  UNL     1      24.934   0.405  53.568  1.00  0.00     0.169 A 
HETATM    8  C11 UNL     1      26.179   2.560  50.709  1.00  0.00     0.048 A 
HETATM    9  C12 UNL     1      25.561   3.722  50.751  1.00  0.00     0.082 A 
HETATM   10  H4  UNL     1      26.130  -1.388  53.205  1.00  0.00     0.160 HD
ENDROOT
BRANCH   9  11
HETATM   11  C13 UNL     1      25.811   4.760  49.805  1.00  0.00    -0.005 A 
HETATM   12  C14 UNL     1      24.909   5.607  49.226  1.00  0.00     0.014 A 
HETATM   13  C15 UNL     1      25.175   6.602  48.313  1.00  0.00     0.002 A 
HETATM   14  C16 UNL     1      26.482   6.795  47.917  1.00  0.00     0.019 A 
HETATM   15  C17 UNL     1      27.452   5.957  48.477  1.00  0.00     0.011 A 
HETATM   16 BR1  UNL     1      29.220   6.299  47.870  1.00  0.00    -0.051 Br
HETATM   17  C18 UNL     1      27.091   4.985  49.385  1.00  0.00     0.032 A 
ENDBRANCH   9  11
BRANCH   1  18
HETATM   18  N1  UNL     1      23.878   4.919  52.082  1.00  0.00    -0.226 NA
HETATM   19  H1  UNL     1      24.375   5.718  51.621  1.00  0.00     0.145 HD
HETATM   20  H2  UNL     1      23.873   5.110  53.105  1.00  0.00     0.145 HD
ENDBRANCH   1  18
BRANCH   7  21
HETATM   21  C5  UNL     1      23.582  -0.182  53.650  1.00  0.00    -0.030 A 
HETATM   22  C6  UNL     1      22.514  -0.041  52.785  1.00  0.00     0.009 A 
HETATM   23  C7  UNL     1      21.324  -0.682  53.046  1.00  0.00     0.001 A 
HETATM   24  C8  UNL     1      21.198  -1.472  54.180  1.00  0.00     0.000 A 
HETATM   25  C9  UNL     1      22.245  -1.638  55.070  1.00  0.00     0.001 A 
HETATM   26  C10 UNL     1      23.428  -0.983  54.784  1.00  0.00     0.009 A 
ENDBRANCH   7  21
TORSDOF 3
ENDMDL
MODEL 6
REMARK VINA RESULT:      -8.3      4.077      8.096
REMARK  3 active torsions:
REMARK  status: ('A' for Active; 'I' for Inactive)
REMARK    1  A    between atoms: N1_1  and  N2_2 
REMARK    2  A    between atoms: C4_8  and  C5_9 
REMARK    3  A    between atoms: C12_16  and  C13_17 
ROOT
HETATM    1  N2  UNL     1      26.003   2.850  51.407  1.00  0.00    -0.198 N 
HETATM    2  N3  UNL     1      24.883   3.457  50.830  1.00  0.00    -0.158 NA
HETATM    3  C1  UNL     1      23.685   3.125  51.108  1.00  0.00     0.095 A 
HETATM    4  C2  UNL     1      23.573   2.044  52.090  1.00  0.00     0.010 A 
HETATM    5  C3  UNL     1      22.268   1.819  52.267  1.00  0.00     0.097 A 
HETATM    6  N4  UNL     1      21.495   2.690  51.457  1.00  0.00    -0.384 N 
HETATM    7  C4  UNL     1      22.328   3.557  50.684  1.00  0.00     0.169 A 
HETATM    8  C11 UNL     1      24.767   1.439  52.668  1.00  0.00     0.048 A 
HETATM    9  C12 UNL     1      25.995   1.804  52.361  1.00  0.00     0.082 A 
HETATM   10  H4  UNL     1      20.450   2.710  51.416  1.00  0.00     0.160 HD
ENDROOT
BRANCH   9  11
HETATM   11  C13 UNL     1      27.145   1.194  52.943  1.00  0.00    -0.005 A 
HETATM   12  C14 UNL     1      28.131   1.786  53.680  1.00  0.00     0.014 A 
HETATM   13  C15 UNL     1      29.235   1.175  54.230  1.00  0.00     0.002 A 
HETATM   14  C16 UNL     1      29.396  -0.182  54.038  1.00  0.00     0.019 A 
HETATM   15  C17 UNL     1      28.417  -0.844  53.290  1.00  0.00     0.011 A 
HETATM   16 BR1  UNL     1      28.726  -2.707  53.081  1.00  0.00    -0.051 Br
HETATM   17  C18 UNL     1      27.345  -0.147  52.777  1.00  0.00     0.032 A 
ENDBRANCH   9  11
BRANCH   1  18
HETATM   18  N1  UNL     1      27.187   3.404  50.928  1.00  0.00    -0.226 NA
HETATM   19  H1  UNL     1      26.906   4.157  50.256  1.00  0.00     0.145 HD
HETATM   20  H2  UNL     1      27.705   2.684  50.383  1.00  0.00     0.145 HD
ENDBRANCH   1  18
BRANCH   7  21
HETATM   21  C5  UNL     1      22.121   3.457  49.227  1.00  0.00    -0.030 A 
HETATM   22  C6  UNL     1      22.437   2.421  48.368  1.00  0.00     0.009 A 
HETATM   23  C7  UNL     1      22.156   2.527  47.025  1.00  0.00     0.001 A 
HETATM   24  C8  UNL     1      21.555   3.677  46.533  1.00  0.00     0.000 A 
HETATM   25  C9  UNL     1      21.223   4.735  47.360  1.00  0.00     0.001 A 
HETATM   26  C10 UNL     1      21.516   4.603  48.705  1.00  0.00     0.009 A 
ENDBRANCH   7  21
TORSDOF 3
ENDMDL
MODEL 7
REMARK VINA RESULT:      -8.3      1.940      3.097
REMARK  3 active torsions:
REMARK  status: ('A' for Active; 'I' for Inactive)
REMARK    1  A    between atoms: N1_1  and  N2_2 
REMARK    2  A    between atoms: C4_8  and  C5_9 
REMARK    3  A    between atoms: C12_16  and  C13_17 
ROOT
HETATM    1  N2  UNL     1      23.297   1.337  51.478  1.00  0.00    -0.198 N 
HETATM    2  N3  UNL     1      24.576   0.844  51.757  1.00  0.00    -0.158 NA
HETATM    3  C1  UNL     1      24.847   0.138  52.784  1.00  0.00     0.095 A 
HETATM    4  C2  UNL     1      23.699  -0.119  53.656  1.00  0.00     0.010 A 
HETATM    5  C3  UNL     1      24.146  -0.862  54.672  1.00  0.00     0.097 A 
HETATM    6  N4  UNL     1      25.535  -1.120  54.530  1.00  0.00    -0.384 N 
HETATM    7  C4  UNL     1      26.057  -0.513  53.346  1.00  0.00     0.169 A 
HETATM    8  C11 UNL     1      22.382   0.413  53.327  1.00  0.00     0.048 A 
HETATM    9  C12 UNL     1      22.132   1.141  52.258  1.00  0.00     0.082 A 
HETATM   10  H4  UNL     1      26.117  -1.679  55.194  1.00  0.00     0.160 HD
ENDROOT
BRANCH   9  11
HETATM   11  C13 UNL     1      20.833   1.649  51.960  1.00  0.00    -0.005 A 
HETATM   12  C14 UNL     1      20.364   2.920  52.136  1.00  0.00     0.014 A 
HETATM   13  C15 UNL     1      19.103   3.386  51.842  1.00  0.00     0.002 A 
HETATM   14  C16 UNL     1      18.186   2.503  51.310  1.00  0.00     0.019 A 
HETATM   15  C17 UNL     1      18.608   1.185  51.107  1.00  0.00     0.011 A 
HETATM   16 BR1  UNL     1      17.277   0.047  50.372  1.00  0.00    -0.051 Br
HETATM   17  C18 UNL     1      19.893   0.809  51.433  1.00  0.00     0.032 A 
ENDBRANCH   9  11
BRANCH   1  18
HETATM   18  N1  UNL     1      23.282   2.075  50.298  1.00  0.00    -0.226 NA
HETATM   19  H1  UNL     1      24.168   1.836  49.792  1.00  0.00     0.145 HD
HETATM   20  H2  UNL     1      23.325   3.089  50.529  1.00  0.00     0.145 HD
ENDBRANCH   1  18
BRANCH   7  21
HETATM   21  C5  UNL     1      27.161   0.436  53.588  1.00  0.00    -0.030 A 
HETATM   22  C6  UNL     1      27.159   1.816  53.519  1.00  0.00     0.009 A 
HETATM   23  C7  UNL     1      28.309   2.523  53.786  1.00  0.00     0.001 A 
HETATM   24  C8  UNL     1      29.473   1.848  54.125  1.00  0.00     0.000 A 
HETATM   25  C9  UNL     1      29.515   0.467  54.205  1.00  0.00     0.001 A 
HETATM   26  C10 UNL     1      28.347  -0.219  53.933  1.00  0.00     0.009 A 
ENDBRANCH   7  21
TORSDOF 3
ENDMDL
MODEL 8
REMARK VINA RESULT:      -8.2      6.939     10.176
REMARK  3 active torsions:
REMARK  status: ('A' for Active; 'I' for Inactive)
REMARK    1  A    between atoms: N1_1  and  N2_2 
REMARK    2  A    between atoms: C4_8  and  C5_9 
REMARK    3  A    between atoms: C12_16  and  C13_17 
ROOT
HETATM    1  N2  UNL     1      28.123   5.341  48.426  1.00  0.00    -0.198 N 
HETATM    2  N3  UNL     1      27.441   4.250  48.975  1.00  0.00    -0.158 NA
HETATM    3  C1  UNL     1      26.198   4.270  49.256  1.00  0.00     0.095 A 
HETATM    4  C2  UNL     1      25.534   5.540  48.954  1.00  0.00     0.010 A 
HETATM    5  C3  UNL     1      24.253   5.397  49.303  1.00  0.00     0.097 A 
HETATM    6  N4  UNL     1      24.018   4.097  49.824  1.00  0.00    -0.384 N 
HETATM    7  C4  UNL     1      25.214   3.315  49.827  1.00  0.00     0.169 A 
HETATM    8  C11 UNL     1      26.283   6.652  48.382  1.00  0.00     0.048 A 
HETATM    9  C12 UNL     1      27.569   6.603  48.101  1.00  0.00     0.082 A 
HETATM   10  H4  UNL     1      23.097   3.740  50.165  1.00  0.00     0.160 HD
ENDROOT
BRANCH   9  11
HETATM   11  C13 UNL     1      28.276   7.707  47.541  1.00  0.00    -0.005 A 
HETATM   12  C14 UNL     1      28.416   8.036  46.222  1.00  0.00     0.014 A 
HETATM   13  C15 UNL     1      29.106   9.108  45.705  1.00  0.00     0.002 A 
HETATM   14  C16 UNL     1      29.738   9.966  46.582  1.00  0.00     0.019 A 
HETATM   15  C17 UNL     1      29.630   9.680  47.947  1.00  0.00     0.011 A 
HETATM   16 BR1  UNL     1      30.532  10.916  49.073  1.00  0.00    -0.051 Br
HETATM   17  C18 UNL     1      28.916   8.581  48.373  1.00  0.00     0.032 A 
ENDBRANCH   9  11
BRANCH   1  18
HETATM   18  N1  UNL     1      29.469   5.049  48.219  1.00  0.00    -0.226 NA
HETATM   19  H1  UNL     1      29.988   5.947  48.370  1.00  0.00     0.145 HD
HETATM   20  H2  UNL     1      29.610   4.778  47.224  1.00  0.00     0.145 HD
ENDBRANCH   1  18
BRANCH   7  21
HETATM   21  C5  UNL     1      25.606   2.813  51.158  1.00  0.00    -0.030 A 
HETATM   22  C6  UNL     1      26.760   2.157  51.540  1.00  0.00     0.009 A 
HETATM   23  C7  UNL     1      26.933   1.768  52.849  1.00  0.00     0.001 A 
HETATM   24  C8  UNL     1      25.946   2.035  53.787  1.00  0.00     0.000 A 
HETATM   25  C9  UNL     1      24.777   2.690  53.443  1.00  0.00     0.001 A 
HETATM   26  C10 UNL     1      24.628   3.070  52.123  1.00  0.00     0.009 A 
ENDBRANCH   7  21
TORSDOF 3
ENDMDL
MODEL 9
REMARK VINA RESULT:      -8.0     11.876     13.407
REMARK  3 active torsions:
REMARK  status: ('A' for Active; 'I' for Inactive)
REMARK    1  A    between atoms: N1_1  and  N2_2 
REMARK    2  A    between atoms: C4_8  and  C5_9 
REMARK    3  A    between atoms: C12_16  and  C13_17 
ROOT
HETATM    1  N2  UNL     1      31.864   8.333  48.889  1.00  0.00    -0.198 N 
HETATM    2  N3  UNL     1      32.695   7.250  48.586  1.00  0.00    -0.158 NA
HETATM    3  C1  UNL     1      33.215   7.065  47.437  1.00  0.00     0.095 A 
HETATM    4  C2  UNL     1      32.869   8.089  46.448  1.00  0.00     0.010 A 
HETATM    5  C3  UNL     1      33.486   7.752  45.313  1.00  0.00     0.097 A 
HETATM    6  N4  UNL     1      34.230   6.556  45.483  1.00  0.00    -0.384 N 
HETATM    7  C4  UNL     1      34.108   6.053  46.815  1.00  0.00     0.169 A 
HETATM    8  C11 UNL     1      31.999   9.203  46.807  1.00  0.00     0.048 A 
HETATM    9  C12 UNL     1      31.475   9.368  48.004  1.00  0.00     0.082 A 
HETATM   10  H4  UNL     1      34.800   6.087  44.743  1.00  0.00     0.160 HD
ENDROOT
BRANCH   9  11
HETATM   11  C13 UNL     1      30.627  10.469  48.326  1.00  0.00    -0.005 A 
HETATM   12  C14 UNL     1      30.986  11.700  48.794  1.00  0.00     0.014 A 
HETATM   13  C15 UNL     1      30.147  12.748  49.100  1.00  0.00     0.002 A 
HETATM   14  C16 UNL     1      28.790  12.571  48.927  1.00  0.00     0.019 A 
HETATM   15  C17 UNL     1      28.361  11.329  48.450  1.00  0.00     0.011 A 
HETATM   16 BR1  UNL     1      26.478  11.182  48.245  1.00  0.00    -0.051 Br
HETATM   17  C18 UNL     1      29.277  10.337  48.171  1.00  0.00     0.032 A 
ENDBRANCH   9  11
BRANCH   1  18
HETATM   18  N1  UNL     1      31.435   8.293  50.212  1.00  0.00    -0.226 NA
HETATM   19  H1  UNL     1      32.302   8.320  50.801  1.00  0.00     0.145 HD
HETATM   20  H2  UNL     1      30.971   7.378  50.393  1.00  0.00     0.145 HD
ENDBRANCH   1  18
BRANCH   7  21
HETATM   21  C5  UNL     1      33.569   4.682  46.899  1.00  0.00    -0.030 A 
HETATM   22  C6  UNL     1      32.442   4.148  46.304  1.00  0.00     0.009 A 
HETATM   23  C7  UNL     1      32.110   2.828  46.512  1.00  0.00     0.001 A 
HETATM   24  C8  UNL     1      32.910   2.033  47.321  1.00  0.00     0.000 A 
HETATM   25  C9  UNL     1      34.046   2.532  47.933  1.00  0.00     0.001 A 
HETATM   26  C10 UNL     1      34.357   3.859  47.708  1.00  0.00     0.009 A 
ENDBRANCH   7  21
TORSDOF 3
ENDMDL
