MODEL 1
REMARK VINA RESULT:      -7.9      0.000      0.000
REMARK  6 active torsions:
REMARK  status: ('A' for Active; 'I' for Inactive)
REMARK    1  A    between atoms: C1_2  and  O2_3 
REMARK       I    between atoms: C1_2  and  N1_4 
REMARK    2  A    between atoms: N1_4  and  C2_5 
REMARK    3  A    between atoms: C2_5  and  C3_6 
REMARK    4  A    between atoms: C3_6  and  C4_7 
REMARK    5  A    between atoms: C9_13  and  N3_14 
REMARK    6  A    between atoms: N3_14  and  C10_15 
ROOT
HETATM    1  C4  UNL     1      26.320   0.520  51.945  1.00  0.00     0.042 C 
HETATM    2  C5  UNL     1      25.081   0.999  52.162  1.00  0.00     0.057 C 
HETATM    3  C6  UNL     1      24.476   2.121  51.412  1.00  0.00     0.084 C 
HETATM    4  C7  UNL     1      23.129   1.861  50.837  1.00  0.00     0.126 C 
HETATM    5  N2  UNL     1      22.075   1.690  51.816  1.00  0.00    -0.383 N 
HETATM    6  C8  UNL     1      22.045   0.607  52.770  1.00  0.00     0.128 A 
HETATM    7  C9  UNL     1      20.775   0.173  53.085  1.00  0.00     0.160 A 
HETATM    8  N4  UNL     1      20.633  -0.826  53.967  1.00  0.00    -0.222 NA
HETATM    9  C14 UNL     1      21.639  -1.455  54.584  1.00  0.00     0.238 A 
HETATM   10  N5  UNL     1      22.884  -1.027  54.273  1.00  0.00    -0.215 NA
HETATM   11  C15 UNL     1      23.109  -0.027  53.395  1.00  0.00     0.201 A 
HETATM   12  O3  UNL     1      24.472   0.269  53.206  1.00  0.00    -0.294 OA
HETATM   13  H8  UNL     1      21.226   2.295  51.970  1.00  0.00     0.159 HD
ENDROOT
BRANCH   1  14
HETATM   14  C3  UNL     1      26.921  -0.600  52.694  1.00  0.00     0.079 C 
BRANCH  14  15
HETATM   15  C2  UNL     1      27.826  -0.071  53.504  1.00  0.00    -0.009 C 
BRANCH  15  16
HETATM   16  N1  UNL     1      28.350   0.661  54.429  1.00  0.00    -0.143 NA
HETATM   17  C1  UNL     1      28.996   1.894  54.064  1.00  0.00     0.285 C 
HETATM   18  O1  UNL     1      28.731   2.472  53.006  1.00  0.00    -0.630 OA
BRANCH  17  19
HETATM   19  O2  UNL     1      29.946   2.499  54.876  1.00  0.00    -0.758 OA
HETATM   20  H1  UNL     1      29.750   3.230  55.539  1.00  0.00     0.169 HD
ENDBRANCH  17  19
ENDBRANCH  15  16
ENDBRANCH  14  15
ENDBRANCH   1  14
BRANCH   7  21
HETATM   21  N3  UNL     1      19.657   0.784  52.464  1.00  0.00    -0.339 N 
HETATM   22  H9  UNL     1      19.757   1.832  52.602  1.00  0.00     0.167 HD
BRANCH  21  23
HETATM   23  C10 UNL     1      18.545   0.245  51.758  1.00  0.00     0.036 A 
HETATM   24  C11 UNL     1      17.444  -0.440  51.544  1.00  0.00     0.048 A 
HETATM   25  C12 UNL     1      17.418  -0.015  50.131  1.00  0.00     0.015 A 
HETATM   26 BR1  UNL     1      15.911  -0.738  49.181  1.00  0.00    -0.051 Br
HETATM   27  C13 UNL     1      18.524   0.668  50.359  1.00  0.00     0.048 A 
ENDBRANCH  21  23
ENDBRANCH   7  21
TORSDOF 6
ENDMDL
MODEL 2
REMARK VINA RESULT:      -7.6      2.214      3.509
REMARK  6 active torsions:
REMARK  status: ('A' for Active; 'I' for Inactive)
REMARK    1  A    between atoms: C1_2  and  O2_3 
REMARK       I    between atoms: C1_2  and  N1_4 
REMARK    2  A    between atoms: N1_4  and  C2_5 
REMARK    3  A    between atoms: C2_5  and  C3_6 
REMARK    4  A    between atoms: C3_6  and  C4_7 
REMARK    5  A    between atoms: C9_13  and  N3_14 
REMARK    6  A    between atoms: N3_14  and  C10_15 
ROOT
HETATM    1  C4  UNL     1      24.427   1.025  53.211  1.00  0.00     0.042 C 
HETATM    2  C5  UNL     1      23.385   0.174  53.269  1.00  0.00     0.057 C 
HETATM    3  C6  UNL     1      23.200  -0.850  54.320  1.00  0.00     0.084 C 
HETATM    4  C7  UNL     1      21.874  -0.849  54.996  1.00  0.00     0.126 C 
HETATM    5  N2  UNL     1      20.763  -1.234  54.150  1.00  0.00    -0.383 N 
HETATM    6  C8  UNL     1      20.345  -0.477  52.995  1.00  0.00     0.128 A 
HETATM    7  C9  UNL     1      18.986  -0.514  52.762  1.00  0.00     0.160 A 
HETATM    8  N4  UNL     1      18.491   0.151  51.709  1.00  0.00    -0.222 NA
HETATM    9  C14 UNL     1      19.217   0.867  50.842  1.00  0.00     0.238 A 
HETATM   10  N5  UNL     1      20.549   0.902  51.073  1.00  0.00    -0.215 NA
HETATM   11  C15 UNL     1      21.123   0.258  52.111  1.00  0.00     0.201 A 
HETATM   12  O3  UNL     1      22.520   0.417  52.180  1.00  0.00    -0.294 OA
HETATM   13  H8  UNL     1      20.134  -2.073  54.245  1.00  0.00     0.159 HD
ENDROOT
BRANCH   1  14
HETATM   14  C3  UNL     1      24.609   2.045  52.162  1.00  0.00     0.079 C 
BRANCH  14  15
HETATM   15  C2  UNL     1      25.894   2.037  51.844  1.00  0.00    -0.009 C 
BRANCH  15  16
HETATM   16  N1  UNL     1      27.168   1.847  51.933  1.00  0.00    -0.143 NA
HETATM   17  C1  UNL     1      27.859   2.279  53.120  1.00  0.00     0.285 C 
HETATM   18  O1  UNL     1      27.263   2.445  54.187  1.00  0.00    -0.630 OA
BRANCH  17  19
HETATM   19  O2  UNL     1      29.223   2.531  53.129  1.00  0.00    -0.758 OA
HETATM   20  H1  UNL     1      29.740   2.918  52.357  1.00  0.00     0.169 HD
ENDBRANCH  17  19
ENDBRANCH  15  16
ENDBRANCH  14  15
ENDBRANCH   1  14
BRANCH   7  21
HETATM   21  N3  UNL     1      18.150  -1.243  53.643  1.00  0.00    -0.339 N 
HETATM   22  H9  UNL     1      18.125  -0.711  54.562  1.00  0.00     0.167 HD
BRANCH  21  23
HETATM   23  C10 UNL     1      17.420  -2.454  53.483  1.00  0.00     0.036 A 
HETATM   24  C11 UNL     1      17.124  -3.732  53.587  1.00  0.00     0.048 A 
HETATM   25  C12 UNL     1      15.876  -3.536  52.824  1.00  0.00     0.015 A 
HETATM   26 BR1  UNL     1      14.887  -5.171  52.614  1.00  0.00    -0.051 Br
HETATM   27  C13 UNL     1      16.185  -2.257  52.726  1.00  0.00     0.048 A 
ENDBRANCH  21  23
ENDBRANCH   7  21
TORSDOF 6
ENDMDL
MODEL 3
REMARK VINA RESULT:      -7.2      2.236      3.334
REMARK  6 active torsions:
REMARK  status: ('A' for Active; 'I' for Inactive)
REMARK    1  A    between atoms: C1_2  and  O2_3 
REMARK       I    between atoms: C1_2  and  N1_4 
REMARK    2  A    between atoms: N1_4  and  C2_5 
REMARK    3  A    between atoms: C2_5  and  C3_6 
REMARK    4  A    between atoms: C3_6  and  C4_7 
REMARK    5  A    between atoms: C9_13  and  N3_14 
REMARK    6  A    between atoms: N3_14  and  C10_15 
ROOT
HETATM    1  C4  UNL     1      25.096  -0.132  54.066  1.00  0.00     0.042 C 
HETATM    2  C5  UNL     1      23.850  -0.149  53.555  1.00  0.00     0.057 C 
HETATM    3  C6  UNL     1      22.715  -0.889  54.148  1.00  0.00     0.084 C 
HETATM    4  C7  UNL     1      21.474  -0.098  54.369  1.00  0.00     0.126 C 
HETATM    5  N2  UNL     1      20.812   0.341  53.158  1.00  0.00    -0.383 N 
HETATM    6  C8  UNL     1      21.407   1.254  52.213  1.00  0.00     0.128 A 
HETATM    7  C9  UNL     1      20.501   2.085  51.588  1.00  0.00     0.160 A 
HETATM    8  N4  UNL     1      20.948   2.969  50.686  1.00  0.00    -0.222 NA
HETATM    9  C14 UNL     1      22.228   3.121  50.329  1.00  0.00     0.238 A 
HETATM   10  N5  UNL     1      23.115   2.305  50.942  1.00  0.00    -0.215 NA
HETATM   11  C15 UNL     1      22.742   1.390  51.861  1.00  0.00     0.201 A 
HETATM   12  O3  UNL     1      23.812   0.639  52.385  1.00  0.00    -0.294 OA
HETATM   13  H8  UNL     1      19.855   0.073  52.807  1.00  0.00     0.159 HD
ENDROOT
BRANCH   1  14
HETATM   14  C3  UNL     1      26.227   0.607  53.473  1.00  0.00     0.079 C 
BRANCH  14  15
HETATM   15  C2  UNL     1      27.147  -0.292  53.163  1.00  0.00    -0.009 C 
BRANCH  15  16
HETATM   16  N1  UNL     1      28.085  -1.169  53.298  1.00  0.00    -0.143 NA
HETATM   17  C1  UNL     1      27.845  -2.523  52.872  1.00  0.00     0.285 C 
HETATM   18  O1  UNL     1      26.974  -2.792  52.041  1.00  0.00    -0.630 OA
BRANCH  17  19
HETATM   19  O2  UNL     1      28.577  -3.593  53.367  1.00  0.00    -0.758 OA
HETATM   20  H1  UNL     1      29.402  -3.509  53.936  1.00  0.00     0.169 HD
ENDBRANCH  17  19
ENDBRANCH  15  16
ENDBRANCH  14  15
ENDBRANCH   1  14
BRANCH   7  21
HETATM   21  N3  UNL     1      19.127   1.990  51.922  1.00  0.00    -0.339 N 
HETATM   22  H9  UNL     1      19.010   2.418  52.887  1.00  0.00     0.167 HD
BRANCH  21  23
HETATM   23  C10 UNL     1      18.008   1.461  51.220  1.00  0.00     0.036 A 
HETATM   24  C11 UNL     1      16.769   1.344  50.796  1.00  0.00     0.048 A 
HETATM   25  C12 UNL     1      17.122   0.156  49.995  1.00  0.00     0.015 A 
HETATM   26 BR1  UNL     1      15.613  -0.554  49.040  1.00  0.00    -0.051 Br
HETATM   27  C13 UNL     1      18.362   0.284  50.428  1.00  0.00     0.048 A 
ENDBRANCH  21  23
ENDBRANCH   7  21
TORSDOF 6
ENDMDL
MODEL 4
REMARK VINA RESULT:      -7.2      2.667      3.711
REMARK  6 active torsions:
REMARK  status: ('A' for Active; 'I' for Inactive)
REMARK    1  A    between atoms: C1_2  and  O2_3 
REMARK       I    between atoms: C1_2  and  N1_4 
REMARK    2  A    between atoms: N1_4  and  C2_5 
REMARK    3  A    between atoms: C2_5  and  C3_6 
REMARK    4  A    between atoms: C3_6  and  C4_7 
REMARK    5  A    between atoms: C9_13  and  N3_14 
REMARK    6  A    between atoms: N3_14  and  C10_15 
ROOT
HETATM    1  C4  UNL     1      25.124  -0.348  54.120  1.00  0.00     0.042 C 
HETATM    2  C5  UNL     1      24.024   0.019  53.436  1.00  0.00     0.057 C 
HETATM    3  C6  UNL     1      22.783  -0.782  53.359  1.00  0.00     0.084 C 
HETATM    4  C7  UNL     1      21.526  -0.058  53.693  1.00  0.00     0.126 C 
HETATM    5  N2  UNL     1      21.153   0.974  52.747  1.00  0.00    -0.383 N 
HETATM    6  C8  UNL     1      21.947   2.153  52.502  1.00  0.00     0.128 A 
HETATM    7  C9  UNL     1      21.206   3.276  52.199  1.00  0.00     0.160 A 
HETATM    8  N4  UNL     1      21.846   4.426  51.949  1.00  0.00    -0.222 NA
HETATM    9  C14 UNL     1      23.174   4.586  51.967  1.00  0.00     0.238 A 
HETATM   10  N5  UNL     1      23.899   3.483  52.264  1.00  0.00    -0.215 NA
HETATM   11  C15 UNL     1      23.328   2.289  52.528  1.00  0.00     0.201 A 
HETATM   12  O3  UNL     1      24.251   1.266  52.815  1.00  0.00    -0.294 OA
HETATM   13  H8  UNL     1      20.298   1.013  52.132  1.00  0.00     0.159 HD
ENDROOT
BRANCH   1  14
HETATM   14  C3  UNL     1      26.361   0.453  54.195  1.00  0.00     0.079 C 
BRANCH  14  15
HETATM   15  C2  UNL     1      27.332  -0.305  53.710  1.00  0.00    -0.009 C 
BRANCH  15  16
HETATM   16  N1  UNL     1      28.250  -1.211  53.643  1.00  0.00    -0.143 NA
HETATM   17  C1  UNL     1      27.950  -2.465  53.003  1.00  0.00     0.285 C 
HETATM   18  O1  UNL     1      27.032  -2.567  52.185  1.00  0.00    -0.630 OA
BRANCH  17  19
HETATM   19  O2  UNL     1      28.672  -3.620  53.267  1.00  0.00    -0.758 OA
HETATM   20  H1  UNL     1      28.853  -3.985  54.187  1.00  0.00     0.169 HD
ENDBRANCH  17  19
ENDBRANCH  15  16
ENDBRANCH  14  15
ENDBRANCH   1  14
BRANCH   7  21
HETATM   21  N3  UNL     1      19.792   3.188  52.172  1.00  0.00    -0.339 N 
HETATM   22  H9  UNL     1      19.465   3.090  53.177  1.00  0.00     0.167 HD
BRANCH  21  23
HETATM   23  C10 UNL     1      18.855   3.213  51.100  1.00  0.00     0.036 A 
HETATM   24  C11 UNL     1      17.720   3.413  50.468  1.00  0.00     0.048 A 
HETATM   25  C12 UNL     1      18.297   2.906  49.208  1.00  0.00     0.015 A 
HETATM   26 BR1  UNL     1      17.034   2.946  47.760  1.00  0.00    -0.051 Br
HETATM   27  C13 UNL     1      19.430   2.709  49.855  1.00  0.00     0.048 A 
ENDBRANCH  21  23
ENDBRANCH   7  21
TORSDOF 6
ENDMDL
MODEL 5
REMARK VINA RESULT:      -7.2      5.808      8.620
REMARK  6 active torsions:
REMARK  status: ('A' for Active; 'I' for Inactive)
REMARK    1  A    between atoms: C1_2  and  O2_3 
REMARK       I    between atoms: C1_2  and  N1_4 
REMARK    2  A    between atoms: N1_4  and  C2_5 
REMARK    3  A    between atoms: C2_5  and  C3_6 
REMARK    4  A    between atoms: C3_6  and  C4_7 
REMARK    5  A    between atoms: C9_13  and  N3_14 
REMARK    6  A    between atoms: N3_14  and  C10_15 
ROOT
HETATM    1  C4  UNL     1      24.424   1.375  51.857  1.00  0.00     0.042 C 
HETATM    2  C5  UNL     1      25.045   2.533  51.562  1.00  0.00     0.057 C 
HETATM    3  C6  UNL     1      26.427   2.631  51.044  1.00  0.00     0.084 C 
HETATM    4  C7  UNL     1      26.599   3.453  49.815  1.00  0.00     0.126 C 
HETATM    5  N2  UNL     1      26.356   4.870  49.996  1.00  0.00    -0.383 N 
HETATM    6  C8  UNL     1      25.073   5.416  50.365  1.00  0.00     0.128 A 
HETATM    7  C9  UNL     1      24.812   6.655  49.821  1.00  0.00     0.160 A 
HETATM    8  N4  UNL     1      23.649   7.256  50.105  1.00  0.00    -0.222 NA
HETATM    9  C14 UNL     1      22.693   6.746  50.891  1.00  0.00     0.238 A 
HETATM   10  N5  UNL     1      22.951   5.530  51.423  1.00  0.00    -0.215 NA
HETATM   11  C15 UNL     1      24.098   4.862  51.184  1.00  0.00     0.201 A 
HETATM   12  O3  UNL     1      24.176   3.613  51.829  1.00  0.00    -0.294 OA
HETATM   13  H8  UNL     1      27.040   5.665  49.893  1.00  0.00     0.159 HD
ENDROOT
BRANCH   1  14
HETATM   14  C3  UNL     1      23.046   1.280  52.373  1.00  0.00     0.079 C 
BRANCH  14  15
HETATM   15  C2  UNL     1      23.006   0.211  53.152  1.00  0.00    -0.009 C 
BRANCH  15  16
HETATM   16  N1  UNL     1      23.402  -0.798  53.854  1.00  0.00    -0.143 NA
HETATM   17  C1  UNL     1      22.606  -1.227  54.975  1.00  0.00     0.285 C 
HETATM   18  O1  UNL     1      21.406  -0.955  55.054  1.00  0.00    -0.630 OA
BRANCH  17  19
HETATM   19  O2  UNL     1      23.142  -1.967  56.020  1.00  0.00    -0.758 OA
HETATM   20  H1  UNL     1      22.668  -2.720  56.490  1.00  0.00     0.169 HD
ENDBRANCH  17  19
ENDBRANCH  15  16
ENDBRANCH  14  15
ENDBRANCH   1  14
BRANCH   7  21
HETATM   21  N3  UNL     1      25.773   7.256  48.970  1.00  0.00    -0.339 N 
HETATM   22  H9  UNL     1      25.530   6.973  47.976  1.00  0.00     0.167 HD
BRANCH  21  23
HETATM   23  C10 UNL     1      26.893   8.093  49.236  1.00  0.00     0.036 A 
HETATM   24  C11 UNL     1      27.603   9.054  49.786  1.00  0.00     0.048 A 
HETATM   25  C12 UNL     1      28.778   8.694  48.970  1.00  0.00     0.015 A 
HETATM   26 BR1  UNL     1      30.292   9.820  49.335  1.00  0.00    -0.051 Br
HETATM   27  C13 UNL     1      28.054   7.734  48.426  1.00  0.00     0.048 A 
ENDBRANCH  21  23
ENDBRANCH   7  21
TORSDOF 6
ENDMDL
MODEL 6
REMARK VINA RESULT:      -7.1      4.586      8.477
REMARK  6 active torsions:
REMARK  status: ('A' for Active; 'I' for Inactive)
REMARK    1  A    between atoms: C1_2  and  O2_3 
REMARK       I    between atoms: C1_2  and  N1_4 
REMARK    2  A    between atoms: N1_4  and  C2_5 
REMARK    3  A    between atoms: C2_5  and  C3_6 
REMARK    4  A    between atoms: C3_6  and  C4_7 
REMARK    5  A    between atoms: C9_13  and  N3_14 
REMARK    6  A    between atoms: N3_14  and  C10_15 
ROOT
HETATM    1  C4  UNL     1      17.726   1.265  50.755  1.00  0.00     0.042 C 
HETATM    2  C5  UNL     1      19.029   0.927  50.741  1.00  0.00     0.057 C 
HETATM    3  C6  UNL     1      20.013   1.433  49.760  1.00  0.00     0.084 C 
HETATM    4  C7  UNL     1      21.259   2.010  50.334  1.00  0.00     0.126 C 
HETATM    5  N2  UNL     1      22.119   1.053  50.999  1.00  0.00    -0.383 N 
HETATM    6  C8  UNL     1      21.732   0.322  52.180  1.00  0.00     0.128 A 
HETATM    7  C9  UNL     1      22.773   0.060  53.045  1.00  0.00     0.160 A 
HETATM    8  N4  UNL     1      22.524  -0.620  54.173  1.00  0.00    -0.222 NA
HETATM    9  C14 UNL     1      21.323  -1.078  54.543  1.00  0.00     0.238 A 
HETATM   10  N5  UNL     1      20.303  -0.820  53.694  1.00  0.00    -0.215 NA
HETATM   11  C15 UNL     1      20.474  -0.142  52.539  1.00  0.00     0.201 A 
HETATM   12  O3  UNL     1      19.291   0.024  51.795  1.00  0.00    -0.294 OA
HETATM   13  H8  UNL     1      23.097   0.763  50.732  1.00  0.00     0.159 HD
ENDROOT
BRANCH   1  14
HETATM   14  C3  UNL     1      16.747   0.758  51.735  1.00  0.00     0.079 C 
BRANCH  14  15
HETATM   15  C2  UNL     1      15.870   1.730  51.932  1.00  0.00    -0.009 C 
BRANCH  15  16
HETATM   16  N1  UNL     1      15.033   2.511  52.530  1.00  0.00    -0.143 NA
HETATM   17  C1  UNL     1      15.472   3.816  52.951  1.00  0.00     0.285 C 
HETATM   18  O1  UNL     1      16.445   4.367  52.431  1.00  0.00    -0.630 OA
BRANCH  17  19
HETATM   19  O2  UNL     1      14.829   4.522  53.958  1.00  0.00    -0.758 OA
HETATM   20  H1  UNL     1      13.842   4.717  53.979  1.00  0.00     0.169 HD
ENDBRANCH  17  19
ENDBRANCH  15  16
ENDBRANCH  14  15
ENDBRANCH   1  14
BRANCH   7  21
HETATM   21  N3  UNL     1      24.074   0.523  52.726  1.00  0.00    -0.339 N 
HETATM   22  H9  UNL     1      23.963   1.291  52.001  1.00  0.00     0.167 HD
BRANCH  21  23
HETATM   23  C10 UNL     1      25.364   0.142  53.193  1.00  0.00     0.036 A 
HETATM   24  C11 UNL     1      26.307  -0.212  54.038  1.00  0.00     0.048 A 
HETATM   25  C12 UNL     1      27.298  -0.288  52.947  1.00  0.00     0.015 A 
HETATM   26 BR1  UNL     1      29.037  -0.809  53.577  1.00  0.00    -0.051 Br
HETATM   27  C13 UNL     1      26.342   0.069  52.109  1.00  0.00     0.048 A 
ENDBRANCH  21  23
ENDBRANCH   7  21
TORSDOF 6
ENDMDL
MODEL 7
REMARK VINA RESULT:      -7.1      1.948      2.369
REMARK  6 active torsions:
REMARK  status: ('A' for Active; 'I' for Inactive)
REMARK    1  A    between atoms: C1_2  and  O2_3 
REMARK       I    between atoms: C1_2  and  N1_4 
REMARK    2  A    between atoms: N1_4  and  C2_5 
REMARK    3  A    between atoms: C2_5  and  C3_6 
REMARK    4  A    between atoms: C3_6  and  C4_7 
REMARK    5  A    between atoms: C9_13  and  N3_14 
REMARK    6  A    between atoms: N3_14  and  C10_15 
ROOT
HETATM    1  C4  UNL     1      27.001   1.685  53.052  1.00  0.00     0.042 C 
HETATM    2  C5  UNL     1      25.686   1.837  52.804  1.00  0.00     0.057 C 
HETATM    3  C6  UNL     1      25.131   2.722  51.758  1.00  0.00     0.084 C 
HETATM    4  C7  UNL     1      24.153   2.091  50.830  1.00  0.00     0.126 C 
HETATM    5  N2  UNL     1      22.900   1.702  51.444  1.00  0.00    -0.383 N 
HETATM    6  C8  UNL     1      22.798   0.700  52.477  1.00  0.00     0.128 A 
HETATM    7  C9  UNL     1      21.631  -0.033  52.435  1.00  0.00     0.160 A 
HETATM    8  N4  UNL     1      21.432  -0.988  53.353  1.00  0.00    -0.222 NA
HETATM    9  C14 UNL     1      22.288  -1.301  54.334  1.00  0.00     0.238 A 
HETATM   10  N5  UNL     1      23.431  -0.580  54.373  1.00  0.00    -0.215 NA
HETATM   11  C15 UNL     1      23.704   0.397  53.484  1.00  0.00     0.201 A 
HETATM   12  O3  UNL     1      24.945   1.028  53.693  1.00  0.00    -0.294 OA
HETATM   13  H8  UNL     1      21.934   2.073  51.242  1.00  0.00     0.159 HD
ENDROOT
BRANCH   1  14
HETATM   14  C3  UNL     1      27.553   0.801  54.096  1.00  0.00     0.079 C 
BRANCH  14  15
HETATM   15  C2  UNL     1      28.340  -0.067  53.480  1.00  0.00    -0.009 C 
BRANCH  15  16
HETATM   16  N1  UNL     1      29.007  -1.146  53.239  1.00  0.00    -0.143 NA
HETATM   17  C1  UNL     1      28.301  -2.396  53.130  1.00  0.00     0.285 C 
HETATM   18  O1  UNL     1      27.098  -2.434  52.858  1.00  0.00    -0.630 OA
BRANCH  17  19
HETATM   19  O2  UNL     1      28.929  -3.618  53.322  1.00  0.00    -0.758 OA
HETATM   20  H1  UNL     1      28.835  -4.187  54.146  1.00  0.00     0.169 HD
ENDBRANCH  17  19
ENDBRANCH  15  16
ENDBRANCH  14  15
ENDBRANCH   1  14
BRANCH   7  21
HETATM   21  N3  UNL     1      20.680   0.233  51.418  1.00  0.00    -0.339 N 
HETATM   22  H9  UNL     1      21.109  -0.082  50.499  1.00  0.00     0.167 HD
BRANCH  21  23
HETATM   23  C10 UNL     1      19.375   0.800  51.457  1.00  0.00     0.036 A 
HETATM   24  C11 UNL     1      18.439   1.724  51.467  1.00  0.00     0.048 A 
HETATM   25  C12 UNL     1      17.384   0.696  51.551  1.00  0.00     0.015 A 
HETATM   26 BR1  UNL     1      15.622   1.462  51.596  1.00  0.00    -0.051 Br
HETATM   27  C13 UNL     1      18.334  -0.221  51.541  1.00  0.00     0.048 A 
ENDBRANCH  21  23
ENDBRANCH   7  21
TORSDOF 6
ENDMDL
MODEL 8
REMARK VINA RESULT:      -7.0      6.409      8.736
REMARK  6 active torsions:
REMARK  status: ('A' for Active; 'I' for Inactive)
REMARK    1  A    between atoms: C1_2  and  O2_3 
REMARK       I    between atoms: C1_2  and  N1_4 
REMARK    2  A    between atoms: N1_4  and  C2_5 
REMARK    3  A    between atoms: C2_5  and  C3_6 
REMARK    4  A    between atoms: C3_6  and  C4_7 
REMARK    5  A    between atoms: C9_13  and  N3_14 
REMARK    6  A    between atoms: N3_14  and  C10_15 
ROOT
HETATM    1  C4  UNL     1      24.208   2.654  52.411  1.00  0.00     0.042 C 
HETATM    2  C5  UNL     1      24.181   3.665  51.522  1.00  0.00     0.057 C 
HETATM    3  C6  UNL     1      23.204   4.775  51.549  1.00  0.00     0.084 C 
HETATM    4  C7  UNL     1      23.782   6.146  51.493  1.00  0.00     0.126 C 
HETATM    5  N2  UNL     1      24.426   6.480  50.239  1.00  0.00    -0.383 N 
HETATM    6  C8  UNL     1      25.597   5.801  49.740  1.00  0.00     0.128 A 
HETATM    7  C9  UNL     1      26.452   6.610  49.022  1.00  0.00     0.160 A 
HETATM    8  N4  UNL     1      27.569   6.078  48.509  1.00  0.00    -0.222 NA
HETATM    9  C14 UNL     1      27.937   4.798  48.633  1.00  0.00     0.238 A 
HETATM   10  N5  UNL     1      27.097   4.006  49.338  1.00  0.00    -0.215 NA
HETATM   11  C15 UNL     1      25.954   4.468  49.886  1.00  0.00     0.201 A 
HETATM   12  O3  UNL     1      25.218   3.489  50.580  1.00  0.00    -0.294 OA
HETATM   13  H8  UNL     1      24.150   7.224  49.545  1.00  0.00     0.159 HD
ENDROOT
BRANCH   1  14
HETATM   14  C3  UNL     1      25.183   1.548  52.382  1.00  0.00     0.079 C 
BRANCH  14  15
HETATM   15  C2  UNL     1      25.937   1.679  53.462  1.00  0.00    -0.009 C 
BRANCH  15  16
HETATM   16  N1  UNL     1      26.916   2.032  54.227  1.00  0.00    -0.143 NA
HETATM   17  C1  UNL     1      28.201   2.306  53.638  1.00  0.00     0.285 C 
HETATM   18  O1  UNL     1      28.312   2.608  52.448  1.00  0.00    -0.630 OA
BRANCH  17  19
HETATM   19  O2  UNL     1      29.377   2.246  54.372  1.00  0.00    -0.758 OA
HETATM   20  H1  UNL     1      30.219   1.788  54.068  1.00  0.00     0.169 HD
ENDBRANCH  17  19
ENDBRANCH  15  16
ENDBRANCH  14  15
ENDBRANCH   1  14
BRANCH   7  21
HETATM   21  N3  UNL     1      26.134   7.982  48.856  1.00  0.00    -0.339 N 
HETATM   22  H9  UNL     1      25.084   8.076  48.978  1.00  0.00     0.167 HD
BRANCH  21  23
HETATM   23  C10 UNL     1      26.941   9.121  48.580  1.00  0.00     0.036 A 
HETATM   24  C11 UNL     1      27.476  10.109  47.896  1.00  0.00     0.048 A 
HETATM   25  C12 UNL     1      28.257  10.540  49.071  1.00  0.00     0.015 A 
HETATM   26 BR1  UNL     1      29.341  12.083  48.700  1.00  0.00    -0.051 Br
HETATM   27  C13 UNL     1      27.713   9.544  49.746  1.00  0.00     0.048 A 
ENDBRANCH  21  23
ENDBRANCH   7  21
TORSDOF 6
ENDMDL
MODEL 9
REMARK VINA RESULT:      -7.0      2.232      3.393
REMARK  6 active torsions:
REMARK  status: ('A' for Active; 'I' for Inactive)
REMARK    1  A    between atoms: C1_2  and  O2_3 
REMARK       I    between atoms: C1_2  and  N1_4 
REMARK    2  A    between atoms: N1_4  and  C2_5 
REMARK    3  A    between atoms: C2_5  and  C3_6 
REMARK    4  A    between atoms: C3_6  and  C4_7 
REMARK    5  A    between atoms: C9_13  and  N3_14 
REMARK    6  A    between atoms: N3_14  and  C10_15 
ROOT
HETATM    1  C4  UNL     1      24.879  -0.581  53.436  1.00  0.00     0.042 C 
HETATM    2  C5  UNL     1      23.694  -0.126  52.985  1.00  0.00     0.057 C 
HETATM    3  C6  UNL     1      22.379  -0.609  53.459  1.00  0.00     0.084 C 
HETATM    4  C7  UNL     1      21.421   0.446  53.889  1.00  0.00     0.126 C 
HETATM    5  N2  UNL     1      20.944   1.302  52.823  1.00  0.00    -0.383 N 
HETATM    6  C8  UNL     1      21.802   2.178  52.062  1.00  0.00     0.128 A 
HETATM    7  C9  UNL     1      21.194   3.348  51.660  1.00  0.00     0.160 A 
HETATM    8  N4  UNL     1      21.901   4.231  50.942  1.00  0.00    -0.222 NA
HETATM    9  C14 UNL     1      23.177   4.074  50.571  1.00  0.00     0.238 A 
HETATM   10  N5  UNL     1      23.770   2.925  50.966  1.00  0.00    -0.215 NA
HETATM   11  C15 UNL     1      23.125   1.988  51.691  1.00  0.00     0.201 A 
HETATM   12  O3  UNL     1      23.916   0.865  52.004  1.00  0.00    -0.294 OA
HETATM   13  H8  UNL     1      19.958   1.405  52.464  1.00  0.00     0.159 HD
ENDROOT
BRANCH   1  14
HETATM   14  C3  UNL     1      26.190  -0.097  52.963  1.00  0.00     0.079 C 
BRANCH  14  15
HETATM   15  C2  UNL     1      26.687   0.658  53.929  1.00  0.00    -0.009 C 
BRANCH  15  16
HETATM   16  N1  UNL     1      27.531   1.346  54.623  1.00  0.00    -0.143 NA
HETATM   17  C1  UNL     1      28.560   2.086  53.941  1.00  0.00     0.285 C 
HETATM   18  O1  UNL     1      28.439   2.418  52.759  1.00  0.00    -0.630 OA
BRANCH  17  19
HETATM   19  O2  UNL     1      29.737   2.466  54.571  1.00  0.00    -0.758 OA
HETATM   20  H1  UNL     1      30.203   1.931  55.284  1.00  0.00     0.169 HD
ENDBRANCH  17  19
ENDBRANCH  15  16
ENDBRANCH  14  15
ENDBRANCH   1  14
BRANCH   7  21
HETATM   21  N3  UNL     1      19.846   3.591  52.024  1.00  0.00    -0.339 N 
HETATM   22  H9  UNL     1      19.790   3.517  53.082  1.00  0.00     0.167 HD
BRANCH  21  23
HETATM   23  C10 UNL     1      18.688   3.889  51.252  1.00  0.00     0.036 A 
HETATM   24  C11 UNL     1      17.926   4.494  50.367  1.00  0.00     0.048 A 
HETATM   25  C12 UNL     1      16.792   3.608  50.694  1.00  0.00     0.015 A 
HETATM   26 BR1  UNL     1      15.231   4.006  49.645  1.00  0.00    -0.051 Br
HETATM   27  C13 UNL     1      17.567   3.010  51.579  1.00  0.00     0.048 A 
ENDBRANCH  21  23
ENDBRANCH   7  21
TORSDOF 6
ENDMDL
