MODEL 1
REMARK VINA RESULT:      -8.0      0.000      0.000
REMARK  2 active torsions:
REMARK  status: ('A' for Active; 'I' for Inactive)
REMARK    1  A    between atoms: O1_2  and  C2_3 
REMARK    2  A    between atoms: P1_19  and  O3_20 
ROOT
HETATM    1  C2  UNL     1      22.178   4.971  51.934  1.00  0.00     0.093 C 
HETATM    2  C3  UNL     1      23.404   4.676  52.346  1.00  0.00     0.042 C 
HETATM    3  C4  UNL     1      23.762   3.375  52.914  1.00  0.00     0.138 C 
HETATM    4  N1  UNL     1      25.219   3.190  52.838  1.00  0.00    -0.375 N 
HETATM    5  C5  UNL     1      25.785   1.893  53.010  1.00  0.00     0.078 A 
HETATM    6  C6  UNL     1      25.128   0.804  52.606  1.00  0.00    -0.037 A 
HETATM    7  C7  UNL     1      25.645  -0.573  52.746  1.00  0.00     0.140 A 
HETATM    8  C8  UNL     1      26.974  -0.647  53.380  1.00  0.00     0.229 A 
HETATM    9  O2  UNL     1      27.436  -1.818  53.508  1.00  0.00    -0.273 OA
HETATM   10  N2  UNL     1      27.698   0.510  53.822  1.00  0.00    -0.305 N 
HETATM   11  C9  UNL     1      29.004   0.346  54.439  1.00  0.00     0.161 C 
HETATM   12  C10 UNL     1      27.101   1.804  53.637  1.00  0.00     0.151 A 
HETATM   13  N3  UNL     1      27.799   2.797  54.054  1.00  0.00    -0.282 NA
HETATM   14  C11 UNL     1      23.787   0.932  51.968  1.00  0.00     0.074 C 
HETATM   15  C12 UNL     1      23.132   2.213  52.279  1.00  0.00    -0.036 C 
HETATM   16  C13 UNL     1      21.859   2.271  51.935  1.00  0.00     0.011 C 
HETATM   17  P1  UNL     1      21.007   3.618  52.143  1.00  0.00     0.053 P 
HETATM   18  H6  UNL     1      25.935   3.955  52.662  1.00  0.00     0.160 HD
HETATM   19  H12 UNL     1      27.473   3.770  53.975  1.00  0.00     0.188 HD
HETATM   20  H15 UNL     1      20.456   3.665  53.425  1.00  0.00     0.093 HD
ENDROOT
BRANCH  17  21
HETATM   21  O3  UNL     1      19.816   3.806  50.973  1.00  0.00    -0.366 OA
HETATM   22  C14 UNL     1      18.560   3.376  51.441  1.00  0.00     0.207 C 
ENDBRANCH  17  21
BRANCH   1  23
HETATM   23  O1  UNL     1      21.912   6.242  51.401  1.00  0.00    -0.354 OA
HETATM   24  C1  UNL     1      22.939   6.954  50.695  1.00  0.00     0.210 C 
ENDBRANCH   1  23
TORSDOF 2
ENDMDL
MODEL 2
REMARK VINA RESULT:      -8.0      3.711      6.907
REMARK  2 active torsions:
REMARK  status: ('A' for Active; 'I' for Inactive)
REMARK    1  A    between atoms: O1_2  and  C2_3 
REMARK    2  A    between atoms: P1_19  and  O3_20 
ROOT
HETATM    1  C2  UNL     1      27.093   1.153  52.547  1.00  0.00     0.093 C 
HETATM    2  C3  UNL     1      25.883   1.561  52.185  1.00  0.00     0.042 C 
HETATM    3  C4  UNL     1      24.716   0.678  52.169  1.00  0.00     0.138 C 
HETATM    4  N1  UNL     1      23.488   1.486  52.185  1.00  0.00    -0.375 N 
HETATM    5  C5  UNL     1      22.238   0.881  52.509  1.00  0.00     0.078 A 
HETATM    6  C6  UNL     1      22.175  -0.128  53.378  1.00  0.00    -0.037 A 
HETATM    7  C7  UNL     1      20.921  -0.807  53.768  1.00  0.00     0.140 A 
HETATM    8  C8  UNL     1      19.722  -0.264  53.104  1.00  0.00     0.229 A 
HETATM    9  O2  UNL     1      18.637  -0.832  53.425  1.00  0.00    -0.273 OA
HETATM   10  N2  UNL     1      19.766   0.820  52.168  1.00  0.00    -0.305 N 
HETATM   11  C9  UNL     1      18.533   1.292  51.559  1.00  0.00     0.161 C 
HETATM   12  C10 UNL     1      21.041   1.409  51.859  1.00  0.00     0.151 A 
HETATM   13  N3  UNL     1      21.011   2.374  51.014  1.00  0.00    -0.282 NA
HETATM   14  C11 UNL     1      23.417  -0.640  54.023  1.00  0.00     0.074 C 
HETATM   15  C12 UNL     1      24.633  -0.281  53.275  1.00  0.00    -0.036 C 
HETATM   16  C13 UNL     1      25.724  -0.906  53.677  1.00  0.00     0.011 C 
HETATM   17  P1  UNL     1      27.152  -0.586  53.013  1.00  0.00     0.053 P 
HETATM   18  H6  UNL     1      23.424   2.525  51.970  1.00  0.00     0.160 HD
HETATM   19  H12 UNL     1      21.863   2.870  50.718  1.00  0.00     0.188 HD
HETATM   20  H15 UNL     1      27.360  -1.371  51.877  1.00  0.00     0.093 HD
ENDROOT
BRANCH  17  21
HETATM   21  O3  UNL     1      28.417  -0.766  54.104  1.00  0.00    -0.366 OA
HETATM   22  C14 UNL     1      29.601  -1.169  53.460  1.00  0.00     0.207 C 
ENDBRANCH  17  21
BRANCH   1  23
HETATM   23  O1  UNL     1      28.163   2.061  52.537  1.00  0.00    -0.354 OA
HETATM   24  C1  UNL     1      28.758   2.487  53.771  1.00  0.00     0.210 C 
ENDBRANCH   1  23
TORSDOF 2
ENDMDL
MODEL 3
REMARK VINA RESULT:      -7.9      3.561      7.158
REMARK  2 active torsions:
REMARK  status: ('A' for Active; 'I' for Inactive)
REMARK    1  A    between atoms: O1_2  and  C2_3 
REMARK    2  A    between atoms: P1_19  and  O3_20 
ROOT
HETATM    1  C2  UNL     1      26.555   0.158  54.094  1.00  0.00     0.093 C 
HETATM    2  C3  UNL     1      25.365  -0.406  54.255  1.00  0.00     0.042 C 
HETATM    3  C4  UNL     1      24.110   0.280  53.944  1.00  0.00     0.138 C 
HETATM    4  N1  UNL     1      23.036  -0.712  53.779  1.00  0.00    -0.375 N 
HETATM    5  C5  UNL     1      21.811  -0.341  53.152  1.00  0.00     0.078 A 
HETATM    6  C6  UNL     1      21.793   0.573  52.180  1.00  0.00    -0.037 A 
HETATM    7  C7  UNL     1      20.567   1.011  51.480  1.00  0.00     0.140 A 
HETATM    8  C8  UNL     1      19.342   0.340  51.952  1.00  0.00     0.229 A 
HETATM    9  O2  UNL     1      18.281   0.700  51.364  1.00  0.00    -0.273 OA
HETATM   10  N2  UNL     1      19.338  -0.645  52.994  1.00  0.00    -0.305 N 
HETATM   11  C9  UNL     1      18.083  -1.256  53.398  1.00  0.00     0.161 C 
HETATM   12  C10 UNL     1      20.589  -0.997  53.609  1.00  0.00     0.151 A 
HETATM   13  N3  UNL     1      20.517  -1.884  54.534  1.00  0.00    -0.282 NA
HETATM   14  C11 UNL     1      23.059   1.221  51.738  1.00  0.00     0.074 C 
HETATM   15  C12 UNL     1      24.128   1.120  52.744  1.00  0.00    -0.036 C 
HETATM   16  C13 UNL     1      25.182   1.876  52.497  1.00  0.00     0.011 C 
HETATM   17  P1  UNL     1      26.469   1.841  53.458  1.00  0.00     0.053 P 
HETATM   18  H6  UNL     1      23.073  -1.727  54.091  1.00  0.00     0.160 HD
HETATM   19  H12 UNL     1      21.348  -2.214  55.045  1.00  0.00     0.188 HD
HETATM   20  H15 UNL     1      26.323   2.738  54.519  1.00  0.00     0.093 HD
ENDROOT
BRANCH  17  21
HETATM   21  O3  UNL     1      27.897   2.131  52.623  1.00  0.00    -0.366 OA
HETATM   22  C14 UNL     1      28.924   2.557  53.486  1.00  0.00     0.207 C 
ENDBRANCH  17  21
BRANCH   1  23
HETATM   23  O1  UNL     1      27.715  -0.565  54.414  1.00  0.00    -0.354 OA
HETATM   24  C1  UNL     1      28.485  -1.187  53.375  1.00  0.00     0.210 C 
ENDBRANCH   1  23
TORSDOF 2
ENDMDL
MODEL 4
REMARK VINA RESULT:      -7.7      2.248      3.668
REMARK  2 active torsions:
REMARK  status: ('A' for Active; 'I' for Inactive)
REMARK    1  A    between atoms: O1_2  and  C2_3 
REMARK    2  A    between atoms: P1_19  and  O3_20 
ROOT
HETATM    1  C2  UNL     1      20.801   0.423  52.883  1.00  0.00     0.093 C 
HETATM    2  C3  UNL     1      21.962  -0.194  53.060  1.00  0.00     0.042 C 
HETATM    3  C4  UNL     1      23.238   0.363  52.604  1.00  0.00     0.138 C 
HETATM    4  N1  UNL     1      24.342  -0.283  53.328  1.00  0.00    -0.375 N 
HETATM    5  C5  UNL     1      25.642   0.301  53.319  1.00  0.00     0.078 A 
HETATM    6  C6  UNL     1      25.793   1.625  53.270  1.00  0.00    -0.037 A 
HETATM    7  C7  UNL     1      27.104   2.308  53.257  1.00  0.00     0.140 A 
HETATM    8  C8  UNL     1      28.254   1.387  53.307  1.00  0.00     0.229 A 
HETATM    9  O2  UNL     1      29.386   1.953  53.298  1.00  0.00    -0.273 OA
HETATM   10  N2  UNL     1      28.115  -0.039  53.360  1.00  0.00    -0.305 N 
HETATM   11  C9  UNL     1      29.304  -0.874  53.405  1.00  0.00     0.161 C 
HETATM   12  C10 UNL     1      26.791  -0.600  53.367  1.00  0.00     0.151 A 
HETATM   13  N3  UNL     1      26.737  -1.881  53.415  1.00  0.00    -0.282 NA
HETATM   14  C11 UNL     1      24.598   2.514  53.223  1.00  0.00     0.074 C 
HETATM   15  C12 UNL     1      23.388   1.812  52.764  1.00  0.00    -0.036 C 
HETATM   16  C13 UNL     1      22.371   2.606  52.484  1.00  0.00     0.011 C 
HETATM   17  P1  UNL     1      20.952   2.004  52.031  1.00  0.00     0.053 P 
HETATM   18  H6  UNL     1      24.277  -1.186  53.886  1.00  0.00     0.160 HD
HETATM   19  H12 UNL     1      25.843  -2.392  53.424  1.00  0.00     0.188 HD
HETATM   20  H15 UNL     1      20.915   1.799  50.651  1.00  0.00     0.093 HD
ENDROOT
BRANCH  17  21
HETATM   21  O3  UNL     1      19.665   2.962  52.529  1.00  0.00    -0.366 OA
HETATM   22  C14 UNL     1      18.765   3.206  51.474  1.00  0.00     0.207 C 
ENDBRANCH  17  21
BRANCH   1  23
HETATM   23  O1  UNL     1      19.620  -0.175  53.349  1.00  0.00    -0.354 OA
HETATM   24  C1  UNL     1      18.535  -0.425  52.444  1.00  0.00     0.210 C 
ENDBRANCH   1  23
TORSDOF 2
ENDMDL
MODEL 5
REMARK VINA RESULT:      -7.7      2.503      2.815
REMARK  2 active torsions:
REMARK  status: ('A' for Active; 'I' for Inactive)
REMARK    1  A    between atoms: O1_2  and  C2_3 
REMARK    2  A    between atoms: P1_19  and  O3_20 
ROOT
HETATM    1  C2  UNL     1      21.015   1.548  50.327  1.00  0.00     0.093 C 
HETATM    2  C3  UNL     1      22.296   1.867  50.465  1.00  0.00     0.042 C 
HETATM    3  C4  UNL     1      23.026   1.704  51.723  1.00  0.00     0.138 C 
HETATM    4  N1  UNL     1      24.471   1.691  51.455  1.00  0.00    -0.375 N 
HETATM    5  C5  UNL     1      25.379   1.217  52.446  1.00  0.00     0.078 A 
HETATM    6  C6  UNL     1      25.024   0.240  53.282  1.00  0.00    -0.037 A 
HETATM    7  C7  UNL     1      25.905  -0.309  54.334  1.00  0.00     0.140 A 
HETATM    8  C8  UNL     1      27.236   0.325  54.384  1.00  0.00     0.229 A 
HETATM    9  O2  UNL     1      28.006  -0.132  55.278  1.00  0.00    -0.273 OA
HETATM   10  N2  UNL     1      27.638   1.375  53.496  1.00  0.00    -0.305 N 
HETATM   11  C9  UNL     1      28.970   1.944  53.616  1.00  0.00     0.161 C 
HETATM   12  C10 UNL     1      26.701   1.835  52.507  1.00  0.00     0.151 A 
HETATM   13  N3  UNL     1      27.123   2.777  51.745  1.00  0.00    -0.282 NA
HETATM   14  C11 UNL     1      23.667  -0.369  53.190  1.00  0.00     0.074 C 
HETATM   15  C12 UNL     1      22.705   0.497  52.489  1.00  0.00    -0.036 C 
HETATM   16  C13 UNL     1      21.448   0.107  52.590  1.00  0.00     0.011 C 
HETATM   17  P1  UNL     1      20.272   0.900  51.834  1.00  0.00     0.053 P 
HETATM   18  H6  UNL     1      24.940   2.014  50.557  1.00  0.00     0.160 HD
HETATM   19  H12 UNL     1      26.539   3.185  51.001  1.00  0.00     0.188 HD
HETATM   20  H15 UNL     1      19.799   1.955  52.617  1.00  0.00     0.093 HD
ENDROOT
BRANCH  17  21
HETATM   21  O3  UNL     1      19.014  -0.113  51.373  1.00  0.00    -0.366 OA
HETATM   22  C14 UNL     1      17.774   0.551  51.416  1.00  0.00     0.207 C 
ENDBRANCH  17  21
BRANCH   1  23
HETATM   23  O1  UNL     1      20.384   1.733  49.087  1.00  0.00    -0.354 OA
HETATM   24  C1  UNL     1      21.106   2.316  47.992  1.00  0.00     0.210 C 
ENDBRANCH   1  23
TORSDOF 2
ENDMDL
MODEL 6
REMARK VINA RESULT:      -7.4      2.518      2.694
REMARK  2 active torsions:
REMARK  status: ('A' for Active; 'I' for Inactive)
REMARK    1  A    between atoms: O1_2  and  C2_3 
REMARK    2  A    between atoms: P1_19  and  O3_20 
ROOT
HETATM    1  C2  UNL     1      24.497   5.564  48.959  1.00  0.00     0.093 C 
HETATM    2  C3  UNL     1      25.489   5.071  49.691  1.00  0.00     0.042 C 
HETATM    3  C4  UNL     1      25.270   4.181  50.833  1.00  0.00     0.138 C 
HETATM    4  N1  UNL     1      26.511   3.453  51.133  1.00  0.00    -0.375 N 
HETATM    5  C5  UNL     1      26.478   2.298  51.968  1.00  0.00     0.078 A 
HETATM    6  C6  UNL     1      25.419   1.487  51.967  1.00  0.00    -0.037 A 
HETATM    7  C7  UNL     1      25.308   0.271  52.799  1.00  0.00     0.140 A 
HETATM    8  C8  UNL     1      26.488   0.022  53.647  1.00  0.00     0.229 A 
HETATM    9  O2  UNL     1      26.413  -1.016  54.367  1.00  0.00    -0.273 OA
HETATM   10  N2  UNL     1      27.637   0.879  53.664  1.00  0.00    -0.305 N 
HETATM   11  C9  UNL     1      28.758   0.559  54.532  1.00  0.00     0.161 C 
HETATM   12  C10 UNL     1      27.641   2.038  52.813  1.00  0.00     0.151 A 
HETATM   13  N3  UNL     1      28.698   2.763  52.876  1.00  0.00    -0.282 NA
HETATM   14  C11 UNL     1      24.251   1.782  51.090  1.00  0.00     0.074 C 
HETATM   15  C12 UNL     1      24.202   3.191  50.668  1.00  0.00    -0.036 C 
HETATM   16  C13 UNL     1      23.069   3.548  50.091  1.00  0.00     0.011 C 
HETATM   17  P1  UNL     1      22.867   5.033  49.511  1.00  0.00     0.053 P 
HETATM   18  H6  UNL     1      27.481   3.706  50.781  1.00  0.00     0.160 HD
HETATM   19  H12 UNL     1      28.812   3.618  52.312  1.00  0.00     0.188 HD
HETATM   20  H15 UNL     1      22.402   5.896  50.505  1.00  0.00     0.093 HD
ENDROOT
BRANCH  17  21
HETATM   21  O3  UNL     1      21.854   5.062  48.171  1.00  0.00    -0.366 OA
HETATM   22  C14 UNL     1      22.028   3.920  47.367  1.00  0.00     0.207 C 
ENDBRANCH  17  21
BRANCH   1  23
HETATM   23  O1  UNL     1      24.788   6.411  47.879  1.00  0.00    -0.354 OA
HETATM   24  C1  UNL     1      25.812   7.409  48.001  1.00  0.00     0.210 C 
ENDBRANCH   1  23
TORSDOF 2
ENDMDL
MODEL 7
REMARK VINA RESULT:      -7.2      6.326      8.467
REMARK  2 active torsions:
REMARK  status: ('A' for Active; 'I' for Inactive)
REMARK    1  A    between atoms: O1_2  and  C2_3 
REMARK    2  A    between atoms: P1_19  and  O3_20 
ROOT
HETATM    1  C2  UNL     1      29.610   9.192  48.729  1.00  0.00     0.093 C 
HETATM    2  C3  UNL     1      28.495   8.986  49.418  1.00  0.00     0.042 C 
HETATM    3  C4  UNL     1      27.452   8.055  48.986  1.00  0.00     0.138 C 
HETATM    4  N1  UNL     1      26.603   7.700  50.133  1.00  0.00    -0.375 N 
HETATM    5  C5  UNL     1      25.737   6.570  50.060  1.00  0.00     0.078 A 
HETATM    6  C6  UNL     1      26.080   5.495  49.350  1.00  0.00    -0.037 A 
HETATM    7  C7  UNL     1      25.241   4.284  49.225  1.00  0.00     0.140 A 
HETATM    8  C8  UNL     1      23.969   4.365  49.966  1.00  0.00     0.229 A 
HETATM    9  O2  UNL     1      23.236   3.337  49.873  1.00  0.00    -0.273 OA
HETATM   10  N2  UNL     1      23.580   5.510  50.736  1.00  0.00    -0.305 N 
HETATM   11  C9  UNL     1      22.307   5.505  51.436  1.00  0.00     0.161 C 
HETATM   12  C10 UNL     1      24.474   6.636  50.790  1.00  0.00     0.151 A 
HETATM   13  N3  UNL     1      24.067   7.628  51.495  1.00  0.00    -0.282 NA
HETATM   14  C11 UNL     1      27.378   5.462  48.619  1.00  0.00     0.074 C 
HETATM   15  C12 UNL     1      27.929   6.807  48.383  1.00  0.00    -0.036 C 
HETATM   16  C13 UNL     1      28.946   6.839  47.542  1.00  0.00     0.011 C 
HETATM   17  P1  UNL     1      29.709   8.215  47.219  1.00  0.00     0.053 P 
HETATM   18  H6  UNL     1      26.560   8.220  51.059  1.00  0.00     0.160 HD
HETATM   19  H12 UNL     1      24.622   8.488  51.605  1.00  0.00     0.188 HD
HETATM   20  H15 UNL     1      29.082   8.899  46.175  1.00  0.00     0.093 HD
ENDROOT
BRANCH  17  21
HETATM   21  O3  UNL     1      31.338   7.978  46.885  1.00  0.00    -0.366 OA
HETATM   22  C14 UNL     1      31.944   7.136  47.837  1.00  0.00     0.207 C 
ENDBRANCH  17  21
BRANCH   1  23
HETATM   23  O1  UNL     1      30.565  10.102  49.210  1.00  0.00    -0.354 OA
HETATM   24  C1  UNL     1      30.971  11.214  48.399  1.00  0.00     0.210 C 
ENDBRANCH   1  23
TORSDOF 2
ENDMDL
MODEL 8
REMARK VINA RESULT:      -7.2      3.479      6.555
REMARK  2 active torsions:
REMARK  status: ('A' for Active; 'I' for Inactive)
REMARK    1  A    between atoms: O1_2  and  C2_3 
REMARK    2  A    between atoms: P1_19  and  O3_20 
ROOT
HETATM    1  C2  UNL     1      24.247   0.100  53.556  1.00  0.00     0.093 C 
HETATM    2  C3  UNL     1      23.825   1.213  52.971  1.00  0.00     0.042 C 
HETATM    3  C4  UNL     1      24.736   2.250  52.480  1.00  0.00     0.138 C 
HETATM    4  N1  UNL     1      24.036   3.095  51.502  1.00  0.00    -0.375 N 
HETATM    5  C5  UNL     1      24.777   3.952  50.637  1.00  0.00     0.078 A 
HETATM    6  C6  UNL     1      25.990   3.602  50.208  1.00  0.00    -0.037 A 
HETATM    7  C7  UNL     1      26.822   4.432  49.311  1.00  0.00     0.140 A 
HETATM    8  C8  UNL     1      26.186   5.704  48.921  1.00  0.00     0.229 A 
HETATM    9  O2  UNL     1      26.881   6.429  48.152  1.00  0.00    -0.273 OA
HETATM   10  N2  UNL     1      24.884   6.101  49.370  1.00  0.00    -0.305 N 
HETATM   11  C9  UNL     1      24.333   7.374  48.937  1.00  0.00     0.161 C 
HETATM   12  C10 UNL     1      24.160   5.216  50.243  1.00  0.00     0.151 A 
HETATM   13  N3  UNL     1      23.002   5.630  50.609  1.00  0.00    -0.282 NA
HETATM   14  C11 UNL     1      26.588   2.304  50.629  1.00  0.00     0.074 C 
HETATM   15  C12 UNL     1      25.966   1.764  51.849  1.00  0.00    -0.036 C 
HETATM   16  C13 UNL     1      26.614   0.747  52.387  1.00  0.00     0.011 C 
HETATM   17  P1  UNL     1      26.041  -0.005  53.685  1.00  0.00     0.053 P 
HETATM   18  H6  UNL     1      22.983   3.142  51.360  1.00  0.00     0.160 HD
HETATM   19  H12 UNL     1      22.394   5.081  51.233  1.00  0.00     0.188 HD
HETATM   20  H15 UNL     1      26.467   0.627  54.856  1.00  0.00     0.093 HD
ENDROOT
BRANCH  17  21
HETATM   21  O3  UNL     1      26.443  -1.637  53.707  1.00  0.00    -0.366 OA
HETATM   22  C14 UNL     1      27.041  -2.037  52.498  1.00  0.00     0.207 C 
ENDBRANCH  17  21
BRANCH   1  23
HETATM   23  O1  UNL     1      23.312  -0.848  54.000  1.00  0.00    -0.354 OA
HETATM   24  C1  UNL     1      21.962  -0.451  54.278  1.00  0.00     0.210 C 
ENDBRANCH   1  23
TORSDOF 2
ENDMDL
MODEL 9
REMARK VINA RESULT:      -6.9      4.038      6.994
REMARK  2 active torsions:
REMARK  status: ('A' for Active; 'I' for Inactive)
REMARK    1  A    between atoms: O1_2  and  C2_3 
REMARK    2  A    between atoms: P1_19  and  O3_20 
ROOT
HETATM    1  C2  UNL     1      25.037   2.099  51.667  1.00  0.00     0.093 C 
HETATM    2  C3  UNL     1      23.833   2.044  51.111  1.00  0.00     0.042 C 
HETATM    3  C4  UNL     1      22.878   0.969  51.387  1.00  0.00     0.138 C 
HETATM    4  N1  UNL     1      21.524   1.409  51.018  1.00  0.00    -0.375 N 
HETATM    5  C5  UNL     1      20.386   0.692  51.490  1.00  0.00     0.078 A 
HETATM    6  C6  UNL     1      20.403   0.098  52.684  1.00  0.00    -0.037 A 
HETATM    7  C7  UNL     1      19.266  -0.662  53.246  1.00  0.00     0.140 A 
HETATM    8  C8  UNL     1      18.087  -0.708  52.361  1.00  0.00     0.229 A 
HETATM    9  O2  UNL     1      17.102  -1.353  52.825  1.00  0.00    -0.273 OA
HETATM   10  N2  UNL     1      18.047  -0.076  51.075  1.00  0.00    -0.305 N 
HETATM   11  C9  UNL     1      16.843  -0.172  50.266  1.00  0.00     0.161 C 
HETATM   12  C10 UNL     1      19.211   0.638  50.624  1.00  0.00     0.151 A 
HETATM   13  N3  UNL     1      19.109   1.180  49.465  1.00  0.00    -0.282 NA
HETATM   14  C11 UNL     1      21.619   0.174  53.542  1.00  0.00     0.074 C 
HETATM   15  C12 UNL     1      22.832   0.505  52.776  1.00  0.00    -0.036 C 
HETATM   16  C13 UNL     1      23.958   0.352  53.448  1.00  0.00     0.011 C 
HETATM   17  P1  UNL     1      25.373   0.729  52.786  1.00  0.00     0.053 P 
HETATM   18  H6  UNL     1      21.287   2.244  50.406  1.00  0.00     0.160 HD
HETATM   19  H12 UNL     1      19.879   1.716  49.040  1.00  0.00     0.188 HD
HETATM   20  H15 UNL     1      25.889  -0.351  52.066  1.00  0.00     0.093 HD
ENDROOT
BRANCH  17  21
HETATM   21  O3  UNL     1      26.483   1.275  53.922  1.00  0.00    -0.366 OA
HETATM   22  C14 UNL     1      27.003   0.215  54.688  1.00  0.00     0.207 C 
ENDBRANCH  17  21
BRANCH   1  23
HETATM   23  O1  UNL     1      25.897   3.163  51.352  1.00  0.00    -0.354 OA
HETATM   24  C1  UNL     1      26.296   3.388  49.992  1.00  0.00     0.210 C 
ENDBRANCH   1  23
TORSDOF 2
ENDMDL
