MODEL 1
REMARK VINA RESULT:      -8.9      0.000      0.000
REMARK  3 active torsions:
REMARK  status: ('A' for Active; 'I' for Inactive)
REMARK    1  A    between atoms: N4_19  and  C15_20 
REMARK    2  A    between atoms: C15_20  and  P1_21 
REMARK    3  A    between atoms: P1_21  and  C16_22 
ROOT
HETATM    1  F1  UNL     1      26.124   1.213  50.831  1.00  0.00    -0.222 F 
HETATM    2  C1  UNL     1      25.623   2.479  51.278  1.00  0.00     0.296 C 
HETATM    3  C2  UNL     1      25.627   3.347  50.125  1.00  0.00     0.028 C 
HETATM    4  C3  UNL     1      25.357   4.330  49.160  1.00  0.00    -0.011 C 
HETATM    5  C4  UNL     1      24.176   5.341  49.281  1.00  0.00     0.016 A 
HETATM    6  C5  UNL     1      23.345   5.244  48.243  1.00  0.00    -0.009 A 
HETATM    7  C6  UNL     1      22.078   5.266  48.814  1.00  0.00     0.031 A 
HETATM    8  C7  UNL     1      22.137   5.359  50.225  1.00  0.00     0.067 A 
HETATM    9  C8  UNL     1      23.437   5.439  50.814  1.00  0.00     0.045 A 
HETATM   10  C9  UNL     1      24.772   5.449  50.453  1.00  0.00     0.027 A 
HETATM   11  C10 UNL     1      23.626   5.480  52.331  1.00  0.00     0.138 C 
HETATM   12  N1  UNL     1      23.362   4.058  52.681  1.00  0.00    -0.382 N 
HETATM   13  C11 UNL     1      22.246   3.160  52.109  1.00  0.00     0.128 A 
HETATM   14  C12 UNL     1      21.039   3.937  51.917  1.00  0.00     0.201 A 
HETATM   15  N2  UNL     1      20.239   2.910  52.398  1.00  0.00    -0.215 NA
HETATM   16  C13 UNL     1      20.903   1.764  52.783  1.00  0.00     0.238 A 
HETATM   17  N3  UNL     1      22.220   1.352  52.817  1.00  0.00    -0.222 NA
HETATM   18  C14 UNL     1      23.168   2.188  52.397  1.00  0.00     0.161 A 
HETATM   19  N4  UNL     1      24.522   2.167  52.081  1.00  0.00    -0.326 N 
HETATM   20  O1  UNL     1      21.097   5.347  51.332  1.00  0.00    -0.293 OA
HETATM   21  H9  UNL     1      24.156   3.985  53.405  1.00  0.00     0.160 HD
ENDROOT
BRANCH  19  22
HETATM   22  C15 UNL     1      24.929   1.339  53.205  1.00  0.00     0.163 C 
BRANCH  22  23
HETATM   23  P1  UNL     1      26.597   1.955  53.745  1.00  0.00    -0.076 P 
HETATM   24  H13 UNL     1      27.023   2.976  52.805  1.00  0.00     0.064 HD
BRANCH  23  25
HETATM   25  C16 UNL     1      27.852   0.602  53.590  1.00  0.00    -0.032 A 
HETATM   26  C17 UNL     1      29.219   0.732  53.760  1.00  0.00     0.012 A 
HETATM   27  C18 UNL     1      30.028  -0.353  53.615  1.00  0.00     0.001 A 
HETATM   28  C19 UNL     1      29.533  -1.594  53.301  1.00  0.00     0.000 A 
HETATM   29  C20 UNL     1      28.172  -1.733  53.129  1.00  0.00     0.001 A 
HETATM   30  C21 UNL     1      27.327  -0.633  53.274  1.00  0.00     0.012 A 
ENDBRANCH  23  25
ENDBRANCH  22  23
ENDBRANCH  19  22
TORSDOF 3
ENDMDL
MODEL 2
REMARK VINA RESULT:      -8.7      2.121      3.933
REMARK  3 active torsions:
REMARK  status: ('A' for Active; 'I' for Inactive)
REMARK    1  A    between atoms: N4_19  and  C15_20 
REMARK    2  A    between atoms: C15_20  and  P1_21 
REMARK    3  A    between atoms: P1_21  and  C16_22 
ROOT
HETATM    1  F1  UNL     1      23.096  -0.101  54.582  1.00  0.00    -0.222 F 
HETATM    2  C1  UNL     1      22.914   0.186  53.190  1.00  0.00     0.296 C 
HETATM    3  C2  UNL     1      21.545  -0.150  52.883  1.00  0.00     0.028 C 
HETATM    4  C3  UNL     1      20.245  -0.220  52.358  1.00  0.00    -0.011 C 
HETATM    5  C4  UNL     1      19.725   0.735  51.240  1.00  0.00     0.016 A 
HETATM    6  C5  UNL     1      18.656   1.421  51.644  1.00  0.00    -0.009 A 
HETATM    7  C6  UNL     1      18.901   2.722  51.221  1.00  0.00     0.031 A 
HETATM    8  C7  UNL     1      20.150   2.836  50.565  1.00  0.00     0.067 A 
HETATM    9  C8  UNL     1      20.917   1.639  50.423  1.00  0.00     0.045 A 
HETATM   10  C9  UNL     1      20.863   0.294  50.739  1.00  0.00     0.027 A 
HETATM   11  C10 UNL     1      22.308   1.652  49.785  1.00  0.00     0.138 C 
HETATM   12  N1  UNL     1      23.111   2.246  50.889  1.00  0.00    -0.382 N 
HETATM   13  C11 UNL     1      22.709   3.434  51.786  1.00  0.00     0.128 A 
HETATM   14  C12 UNL     1      21.991   4.420  51.004  1.00  0.00     0.201 A 
HETATM   15  N2  UNL     1      22.652   5.470  51.627  1.00  0.00    -0.215 NA
HETATM   16  C13 UNL     1      23.572   5.112  52.589  1.00  0.00     0.238 A 
HETATM   17  N3  UNL     1      24.031   3.923  53.122  1.00  0.00    -0.222 NA
HETATM   18  C14 UNL     1      23.529   2.777  52.666  1.00  0.00     0.161 A 
HETATM   19  N4  UNL     1      23.530   1.426  52.995  1.00  0.00    -0.326 N 
HETATM   20  O1  UNL     1      20.938   3.996  49.981  1.00  0.00    -0.293 OA
HETATM   21  H9  UNL     1      23.955   1.588  50.763  1.00  0.00     0.160 HD
ENDROOT
BRANCH  19  22
HETATM   22  C15 UNL     1      24.943   1.352  53.333  1.00  0.00     0.163 C 
BRANCH  22  23
HETATM   23  P1  UNL     1      25.634  -0.111  52.418  1.00  0.00    -0.076 P 
HETATM   24  H13 UNL     1      24.911  -1.293  52.852  1.00  0.00     0.064 HD
BRANCH  23  25
HETATM   25  C16 UNL     1      27.390  -0.403  52.928  1.00  0.00    -0.032 A 
HETATM   26  C17 UNL     1      28.046  -1.621  52.937  1.00  0.00     0.012 A 
HETATM   27  C18 UNL     1      29.345  -1.692  53.338  1.00  0.00     0.001 A 
HETATM   28  C19 UNL     1      30.043  -0.581  53.742  1.00  0.00     0.000 A 
HETATM   29  C20 UNL     1      29.397   0.638  53.737  1.00  0.00     0.001 A 
HETATM   30  C21 UNL     1      28.066   0.729  53.329  1.00  0.00     0.012 A 
ENDBRANCH  23  25
ENDBRANCH  22  23
ENDBRANCH  19  22
TORSDOF 3
ENDMDL
MODEL 3
REMARK VINA RESULT:      -8.7      1.267      1.314
REMARK  3 active torsions:
REMARK  status: ('A' for Active; 'I' for Inactive)
REMARK    1  A    between atoms: N4_19  and  C15_20 
REMARK    2  A    between atoms: C15_20  and  P1_21 
REMARK    3  A    between atoms: P1_21  and  C16_22 
ROOT
HETATM    1  F1  UNL     1      26.806   1.990  49.928  1.00  0.00    -0.222 F 
HETATM    2  C1  UNL     1      26.083   3.059  50.552  1.00  0.00     0.296 C 
HETATM    3  C2  UNL     1      26.307   4.230  49.739  1.00  0.00     0.028 C 
HETATM    4  C3  UNL     1      26.207   5.450  49.053  1.00  0.00    -0.011 C 
HETATM    5  C4  UNL     1      24.943   6.362  49.114  1.00  0.00     0.016 A 
HETATM    6  C5  UNL     1      24.429   6.563  47.901  1.00  0.00    -0.009 A 
HETATM    7  C6  UNL     1      23.060   6.396  48.075  1.00  0.00     0.031 A 
HETATM    8  C7  UNL     1      22.735   6.067  49.413  1.00  0.00     0.067 A 
HETATM    9  C8  UNL     1      23.819   5.989  50.341  1.00  0.00     0.045 A 
HETATM   10  C9  UNL     1      25.194   6.126  50.388  1.00  0.00     0.027 A 
HETATM   11  C10 UNL     1      23.595   5.582  51.799  1.00  0.00     0.138 C 
HETATM   12  N1  UNL     1      23.388   4.115  51.646  1.00  0.00    -0.382 N 
HETATM   13  C11 UNL     1      22.556   3.410  50.556  1.00  0.00     0.128 A 
HETATM   14  C12 UNL     1      21.373   4.190  50.259  1.00  0.00     0.201 A 
HETATM   15  N2  UNL     1      20.579   3.054  50.187  1.00  0.00    -0.215 NA
HETATM   16  C13 UNL     1      21.226   1.856  50.406  1.00  0.00     0.238 A 
HETATM   17  N3  UNL     1      22.522   1.473  50.692  1.00  0.00    -0.222 NA
HETATM   18  C14 UNL     1      23.460   2.411  50.808  1.00  0.00     0.161 A 
HETATM   19  N4  UNL     1      24.845   2.505  50.892  1.00  0.00    -0.326 N 
HETATM   20  O1  UNL     1      21.446   5.711  50.133  1.00  0.00    -0.293 OA
HETATM   21  H9  UNL     1      23.967   3.844  52.514  1.00  0.00     0.160 HD
ENDROOT
BRANCH  19  22
HETATM   22  C15 UNL     1      25.020   1.388  51.806  1.00  0.00     0.163 C 
BRANCH  22  23
HETATM   23  P1  UNL     1      26.204   1.955  53.121  1.00  0.00    -0.076 P 
HETATM   24  H13 UNL     1      26.801   3.202  52.679  1.00  0.00     0.064 HD
BRANCH  23  25
HETATM   25  C16 UNL     1      27.616   0.764  53.257  1.00  0.00    -0.032 A 
HETATM   26  C17 UNL     1      28.928   1.084  53.558  1.00  0.00     0.012 A 
HETATM   27  C18 UNL     1      29.868   0.102  53.625  1.00  0.00     0.001 A 
HETATM   28  C19 UNL     1      29.561  -1.216  53.402  1.00  0.00     0.000 A 
HETATM   29  C20 UNL     1      28.256  -1.545  53.101  1.00  0.00     0.001 A 
HETATM   30  C21 UNL     1      27.279  -0.552  53.028  1.00  0.00     0.012 A 
ENDBRANCH  23  25
ENDBRANCH  22  23
ENDBRANCH  19  22
TORSDOF 3
ENDMDL
MODEL 4
REMARK VINA RESULT:      -8.7      3.282      5.821
REMARK  3 active torsions:
REMARK  status: ('A' for Active; 'I' for Inactive)
REMARK    1  A    between atoms: N4_19  and  C15_20 
REMARK    2  A    between atoms: C15_20  and  P1_21 
REMARK    3  A    between atoms: P1_21  and  C16_22 
ROOT
HETATM    1  F1  UNL     1      24.575   3.421  53.233  1.00  0.00    -0.222 F 
HETATM    2  C1  UNL     1      23.914   2.504  52.352  1.00  0.00     0.296 C 
HETATM    3  C2  UNL     1      23.680   1.304  53.118  1.00  0.00     0.028 C 
HETATM    4  C3  UNL     1      23.174   0.113  53.662  1.00  0.00    -0.011 C 
HETATM    5  C4  UNL     1      21.858  -0.560  53.164  1.00  0.00     0.016 A 
HETATM    6  C5  UNL     1      20.970  -0.681  54.151  1.00  0.00    -0.009 A 
HETATM    7  C6  UNL     1      19.768  -0.272  53.584  1.00  0.00     0.031 A 
HETATM    8  C7  UNL     1      19.930   0.124  52.235  1.00  0.00     0.067 A 
HETATM    9  C8  UNL     1      21.243   0.019  51.683  1.00  0.00     0.045 A 
HETATM   10  C9  UNL     1      22.524  -0.359  52.043  1.00  0.00     0.027 A 
HETATM   11  C10 UNL     1      21.549   0.475  50.255  1.00  0.00     0.138 C 
HETATM   12  N1  UNL     1      21.551   1.953  50.432  1.00  0.00    -0.382 N 
HETATM   13  C11 UNL     1      20.552   2.782  51.264  1.00  0.00     0.128 A 
HETATM   14  C12 UNL     1      19.223   2.221  51.141  1.00  0.00     0.201 A 
HETATM   15  N2  UNL     1      18.644   3.478  51.043  1.00  0.00    -0.215 NA
HETATM   16  C13 UNL     1      19.516   4.545  51.107  1.00  0.00     0.238 A 
HETATM   17  N3  UNL     1      20.882   4.696  51.249  1.00  0.00    -0.222 NA
HETATM   18  C14 UNL     1      21.641   3.608  51.361  1.00  0.00     0.161 A 
HETATM   19  N4  UNL     1      22.949   3.271  51.692  1.00  0.00    -0.326 N 
HETATM   20  O1  UNL     1      19.001   0.709  51.184  1.00  0.00    -0.293 OA
HETATM   21  H9  UNL     1      22.404   2.127  49.798  1.00  0.00     0.160 HD
ENDROOT
BRANCH  19  22
HETATM   22  C15 UNL     1      23.579   4.350  50.947  1.00  0.00     0.163 C 
BRANCH  22  23
HETATM   23  P1  UNL     1      24.790   3.557  49.781  1.00  0.00    -0.076 P 
HETATM   24  H13 UNL     1      25.600   2.623  50.543  1.00  0.00     0.064 HD
BRANCH  23  25
HETATM   25  C16 UNL     1      25.981   4.826  49.148  1.00  0.00    -0.032 A 
HETATM   26  C17 UNL     1      25.692   6.149  48.865  1.00  0.00     0.012 A 
HETATM   27  C18 UNL     1      26.670   6.975  48.403  1.00  0.00     0.001 A 
HETATM   28  C19 UNL     1      27.956   6.540  48.203  1.00  0.00     0.000 A 
HETATM   29  C20 UNL     1      28.254   5.222  48.481  1.00  0.00     0.001 A 
HETATM   30  C21 UNL     1      27.264   4.361  48.956  1.00  0.00     0.012 A 
ENDBRANCH  23  25
ENDBRANCH  22  23
ENDBRANCH  19  22
TORSDOF 3
ENDMDL
MODEL 5
REMARK VINA RESULT:      -8.6      2.596      6.916
REMARK  3 active torsions:
REMARK  status: ('A' for Active; 'I' for Inactive)
REMARK    1  A    between atoms: N4_19  and  C15_20 
REMARK    2  A    between atoms: C15_20  and  P1_21 
REMARK    3  A    between atoms: P1_21  and  C16_22 
ROOT
HETATM    1  F1  UNL     1      21.460   0.410  51.143  1.00  0.00    -0.222 F 
HETATM    2  C1  UNL     1      22.400   1.040  52.024  1.00  0.00     0.296 C 
HETATM    3  C2  UNL     1      23.094  -0.027  52.704  1.00  0.00     0.028 C 
HETATM    4  C3  UNL     1      24.030  -0.839  53.362  1.00  0.00    -0.011 C 
HETATM    5  C4  UNL     1      25.491  -0.384  53.665  1.00  0.00     0.016 A 
HETATM    6  C5  UNL     1      26.381  -1.201  53.105  1.00  0.00    -0.009 A 
HETATM    7  C6  UNL     1      27.321  -0.349  52.537  1.00  0.00     0.031 A 
HETATM    8  C7  UNL     1      26.987   1.011  52.736  1.00  0.00     0.067 A 
HETATM    9  C8  UNL     1      25.800   1.283  53.484  1.00  0.00     0.045 A 
HETATM   10  C9  UNL     1      24.770   0.621  54.128  1.00  0.00     0.027 A 
HETATM   11  C10 UNL     1      25.308   2.714  53.711  1.00  0.00     0.138 C 
HETATM   12  N1  UNL     1      24.746   3.027  52.369  1.00  0.00    -0.382 N 
HETATM   13  C11 UNL     1      25.371   2.679  51.003  1.00  0.00     0.128 A 
HETATM   14  C12 UNL     1      26.811   2.824  51.070  1.00  0.00     0.201 A 
HETATM   15  N2  UNL     1      26.862   3.415  49.815  1.00  0.00    -0.215 NA
HETATM   16  C13 UNL     1      25.650   3.563  49.174  1.00  0.00     0.238 A 
HETATM   17  N3  UNL     1      24.335   3.261  49.467  1.00  0.00    -0.222 NA
HETATM   18  C14 UNL     1      24.052   2.683  50.633  1.00  0.00     0.161 A 
HETATM   19  N4  UNL     1      22.981   2.058  51.261  1.00  0.00    -0.326 N 
HETATM   20  O1  UNL     1      27.594   2.329  52.285  1.00  0.00    -0.293 OA
HETATM   21  H9  UNL     1      23.875   3.539  52.744  1.00  0.00     0.160 HD
ENDROOT
BRANCH  19  22
HETATM   22  C15 UNL     1      21.968   3.002  50.816  1.00  0.00     0.163 C 
BRANCH  22  23
HETATM   23  P1  UNL     1      21.951   4.389  52.052  1.00  0.00    -0.076 P 
HETATM   24  H13 UNL     1      20.584   4.564  52.510  1.00  0.00     0.064 HD
BRANCH  23  25
HETATM   25  C16 UNL     1      22.390   5.983  51.220  1.00  0.00    -0.032 A 
HETATM   26  C17 UNL     1      21.516   6.827  50.557  1.00  0.00     0.012 A 
HETATM   27  C18 UNL     1      21.977   7.974  49.988  1.00  0.00     0.001 A 
HETATM   28  C19 UNL     1      23.301   8.334  50.046  1.00  0.00     0.000 A 
HETATM   29  C20 UNL     1      24.180   7.499  50.703  1.00  0.00     0.001 A 
HETATM   30  C21 UNL     1      23.725   6.320  51.293  1.00  0.00     0.012 A 
ENDBRANCH  23  25
ENDBRANCH  22  23
ENDBRANCH  19  22
TORSDOF 3
ENDMDL
MODEL 6
REMARK VINA RESULT:      -8.4      3.188      5.544
REMARK  3 active torsions:
REMARK  status: ('A' for Active; 'I' for Inactive)
REMARK    1  A    between atoms: N4_19  and  C15_20 
REMARK    2  A    between atoms: C15_20  and  P1_21 
REMARK    3  A    between atoms: P1_21  and  C16_22 
ROOT
HETATM    1  F1  UNL     1      23.449   2.356  48.121  1.00  0.00    -0.222 F 
HETATM    2  C1  UNL     1      22.666   2.807  49.234  1.00  0.00     0.296 C 
HETATM    3  C2  UNL     1      21.292   2.510  48.910  1.00  0.00     0.028 C 
HETATM    4  C3  UNL     1      19.927   2.181  48.935  1.00  0.00    -0.011 C 
HETATM    5  C4  UNL     1      19.152   1.861  50.249  1.00  0.00     0.016 A 
HETATM    6  C5  UNL     1      18.617   0.641  50.214  1.00  0.00    -0.009 A 
HETATM    7  C6  UNL     1      18.907   0.102  51.462  1.00  0.00     0.031 A 
HETATM    8  C7  UNL     1      19.648   1.002  52.265  1.00  0.00     0.067 A 
HETATM    9  C8  UNL     1      19.945   2.279  51.699  1.00  0.00     0.045 A 
HETATM   10  C9  UNL     1      19.751   3.001  50.535  1.00  0.00     0.027 A 
HETATM   11  C10 UNL     1      20.792   3.309  52.450  1.00  0.00     0.138 C 
HETATM   12  N1  UNL     1      22.150   2.723  52.284  1.00  0.00    -0.382 N 
HETATM   13  C11 UNL     1      22.533   1.235  52.408  1.00  0.00     0.128 A 
HETATM   14  C12 UNL     1      21.768   0.616  53.471  1.00  0.00     0.201 A 
HETATM   15  N2  UNL     1      22.870  -0.097  53.920  1.00  0.00    -0.215 NA
HETATM   16  C13 UNL     1      24.039   0.100  53.215  1.00  0.00     0.238 A 
HETATM   17  N3  UNL     1      24.417   0.859  52.125  1.00  0.00    -0.222 NA
HETATM   18  C14 UNL     1      23.508   1.629  51.529  1.00  0.00     0.161 A 
HETATM   19  N4  UNL     1      23.366   2.376  50.365  1.00  0.00    -0.326 N 
HETATM   20  O1  UNL     1      20.280   0.917  53.645  1.00  0.00    -0.293 OA
HETATM   21  H9  UNL     1      22.641   3.664  52.099  1.00  0.00     0.160 HD
ENDROOT
BRANCH  19  22
HETATM   22  C15 UNL     1      24.698   2.959  50.393  1.00  0.00     0.163 C 
BRANCH  22  23
HETATM   23  P1  UNL     1      24.516   4.732  49.867  1.00  0.00    -0.076 P 
HETATM   24  H13 UNL     1      23.548   4.781  48.785  1.00  0.00     0.064 HD
BRANCH  23  25
HETATM   25  C16 UNL     1      26.101   5.338  49.126  1.00  0.00    -0.032 A 
HETATM   26  C17 UNL     1      27.256   4.597  48.950  1.00  0.00     0.012 A 
HETATM   27  C18 UNL     1      28.354   5.173  48.389  1.00  0.00     0.001 A 
HETATM   28  C19 UNL     1      28.361   6.484  47.982  1.00  0.00     0.000 A 
HETATM   29  C20 UNL     1      27.214   7.230  48.153  1.00  0.00     0.001 A 
HETATM   30  C21 UNL     1      26.079   6.657  48.727  1.00  0.00     0.012 A 
ENDBRANCH  23  25
ENDBRANCH  22  23
ENDBRANCH  19  22
TORSDOF 3
ENDMDL
MODEL 7
REMARK VINA RESULT:      -8.1      2.583      3.598
REMARK  3 active torsions:
REMARK  status: ('A' for Active; 'I' for Inactive)
REMARK    1  A    between atoms: N4_19  and  C15_20 
REMARK    2  A    between atoms: C15_20  and  P1_21 
REMARK    3  A    between atoms: P1_21  and  C16_22 
ROOT
HETATM    1  F1  UNL     1      25.379   2.785  49.252  1.00  0.00    -0.222 F 
HETATM    2  C1  UNL     1      25.179   4.072  49.851  1.00  0.00     0.296 C 
HETATM    3  C2  UNL     1      26.099   4.971  49.197  1.00  0.00     0.028 C 
HETATM    4  C3  UNL     1      26.745   6.076  48.621  1.00  0.00    -0.011 C 
HETATM    5  C4  UNL     1      26.112   7.500  48.566  1.00  0.00     0.016 A 
HETATM    6  C5  UNL     1      26.000   7.934  47.311  1.00  0.00    -0.009 A 
HETATM    7  C6  UNL     1      24.723   8.479  47.248  1.00  0.00     0.031 A 
HETATM    8  C7  UNL     1      24.037   8.357  48.480  1.00  0.00     0.067 A 
HETATM    9  C8  UNL     1      24.747   7.744  49.558  1.00  0.00     0.045 A 
HETATM   10  C9  UNL     1      25.974   7.169  49.836  1.00  0.00     0.027 A 
HETATM   11  C10 UNL     1      24.086   7.504  50.917  1.00  0.00     0.138 C 
HETATM   12  N1  UNL     1      23.213   6.341  50.597  1.00  0.00    -0.382 N 
HETATM   13  C11 UNL     1      22.358   6.152  49.327  1.00  0.00     0.128 A 
HETATM   14  C12 UNL     1      21.795   7.423  48.919  1.00  0.00     0.201 A 
HETATM   15  N2  UNL     1      20.572   6.842  48.616  1.00  0.00    -0.215 NA
HETATM   16  C13 UNL     1      20.488   5.481  48.822  1.00  0.00     0.238 A 
HETATM   17  N3  UNL     1      21.345   4.497  49.274  1.00  0.00    -0.222 NA
HETATM   18  C14 UNL     1      22.585   4.834  49.624  1.00  0.00     0.161 A 
HETATM   19  N4  UNL     1      23.791   4.217  49.936  1.00  0.00    -0.326 N 
HETATM   20  O1  UNL     1      22.633   8.700  48.950  1.00  0.00    -0.293 OA
HETATM   21  H9  UNL     1      23.409   5.815  51.516  1.00  0.00     0.160 HD
ENDROOT
BRANCH  19  22
HETATM   22  C15 UNL     1      23.218   3.163  50.758  1.00  0.00     0.163 C 
BRANCH  22  23
HETATM   23  P1  UNL     1      24.200   3.122  52.335  1.00  0.00    -0.076 P 
HETATM   24  H13 UNL     1      25.263   4.105  52.227  1.00  0.00     0.064 HD
BRANCH  23  25
HETATM   25  C16 UNL     1      25.063   1.492  52.500  1.00  0.00    -0.032 A 
HETATM   26  C17 UNL     1      26.271   1.145  51.921  1.00  0.00     0.012 A 
HETATM   27  C18 UNL     1      26.793  -0.095  52.128  1.00  0.00     0.001 A 
HETATM   28  C19 UNL     1      26.156  -1.032  52.901  1.00  0.00     0.000 A 
HETATM   29  C20 UNL     1      24.951  -0.696  53.482  1.00  0.00     0.001 A 
HETATM   30  C21 UNL     1      24.401   0.570  53.282  1.00  0.00     0.012 A 
ENDBRANCH  23  25
ENDBRANCH  22  23
ENDBRANCH  19  22
TORSDOF 3
ENDMDL
MODEL 8
REMARK VINA RESULT:      -7.9      3.856      6.417
REMARK  3 active torsions:
REMARK  status: ('A' for Active; 'I' for Inactive)
REMARK    1  A    between atoms: N4_19  and  C15_20 
REMARK    2  A    between atoms: C15_20  and  P1_21 
REMARK    3  A    between atoms: P1_21  and  C16_22 
ROOT
HETATM    1  F1  UNL     1      22.599   5.077  52.667  1.00  0.00    -0.222 F 
HETATM    2  C1  UNL     1      22.334   3.933  51.845  1.00  0.00     0.296 C 
HETATM    3  C2  UNL     1      22.911   2.801  52.527  1.00  0.00     0.028 C 
HETATM    4  C3  UNL     1      23.210   1.530  53.045  1.00  0.00    -0.011 C 
HETATM    5  C4  UNL     1      22.353   0.263  52.740  1.00  0.00     0.016 A 
HETATM    6  C5  UNL     1      21.878  -0.283  53.859  1.00  0.00    -0.009 A 
HETATM    7  C6  UNL     1      20.549  -0.568  53.566  1.00  0.00     0.031 A 
HETATM    8  C7  UNL     1      20.203  -0.170  52.252  1.00  0.00     0.067 A 
HETATM    9  C8  UNL     1      21.239   0.411  51.458  1.00  0.00     0.045 A 
HETATM   10  C9  UNL     1      22.575   0.760  51.538  1.00  0.00     0.027 A 
HETATM   11  C10 UNL     1      20.966   0.933  50.046  1.00  0.00     0.138 C 
HETATM   12  N1  UNL     1      20.249   2.200  50.355  1.00  0.00    -0.382 N 
HETATM   13  C11 UNL     1      19.163   2.406  51.431  1.00  0.00     0.128 A 
HETATM   14  C12 UNL     1      18.316   1.234  51.505  1.00  0.00     0.201 A 
HETATM   15  N2  UNL     1      17.170   2.007  51.633  1.00  0.00    -0.215 NA
HETATM   16  C13 UNL     1      17.365   3.372  51.630  1.00  0.00     0.238 A 
HETATM   17  N3  UNL     1      18.456   4.213  51.530  1.00  0.00    -0.222 NA
HETATM   18  C14 UNL     1      19.669   3.679  51.399  1.00  0.00     0.161 A 
HETATM   19  N4  UNL     1      21.001   4.077  51.448  1.00  0.00    -0.326 N 
HETATM   20  O1  UNL     1      18.912  -0.172  51.450  1.00  0.00    -0.293 OA
HETATM   21  H9  UNL     1      20.741   2.781  49.592  1.00  0.00     0.160 HD
ENDROOT
BRANCH  19  22
HETATM   22  C15 UNL     1      20.821   5.311  50.701  1.00  0.00     0.163 C 
BRANCH  22  23
HETATM   23  P1  UNL     1      21.927   5.200  49.212  1.00  0.00    -0.076 P 
HETATM   24  H13 UNL     1      22.288   3.806  49.025  1.00  0.00     0.064 HD
BRANCH  23  25
HETATM   25  C16 UNL     1      23.526   6.072  49.545  1.00  0.00    -0.032 A 
HETATM   26  C17 UNL     1      24.789   5.622  49.204  1.00  0.00     0.012 A 
HETATM   27  C18 UNL     1      25.884   6.370  49.511  1.00  0.00     0.001 A 
HETATM   28  C19 UNL     1      25.783   7.576  50.159  1.00  0.00     0.000 A 
HETATM   29  C20 UNL     1      24.528   8.033  50.503  1.00  0.00     0.001 A 
HETATM   30  C21 UNL     1      23.395   7.280  50.196  1.00  0.00     0.012 A 
ENDBRANCH  23  25
ENDBRANCH  22  23
ENDBRANCH  19  22
TORSDOF 3
ENDMDL
MODEL 9
REMARK VINA RESULT:      -7.9      3.074      7.468
REMARK  3 active torsions:
REMARK  status: ('A' for Active; 'I' for Inactive)
REMARK    1  A    between atoms: N4_19  and  C15_20 
REMARK    2  A    between atoms: C15_20  and  P1_21 
REMARK    3  A    between atoms: P1_21  and  C16_22 
ROOT
HETATM    1  F1  UNL     1      21.356   0.681  50.811  1.00  0.00    -0.222 F 
HETATM    2  C1  UNL     1      22.273   1.245  51.757  1.00  0.00     0.296 C 
HETATM    3  C2  UNL     1      22.904   0.132  52.424  1.00  0.00     0.028 C 
HETATM    4  C3  UNL     1      23.785  -0.735  53.090  1.00  0.00    -0.011 C 
HETATM    5  C4  UNL     1      25.243  -0.337  53.475  1.00  0.00     0.016 A 
HETATM    6  C5  UNL     1      26.134  -1.160  52.922  1.00  0.00    -0.009 A 
HETATM    7  C6  UNL     1      27.123  -0.316  52.431  1.00  0.00     0.031 A 
HETATM    8  C7  UNL     1      26.821   1.046  52.671  1.00  0.00     0.067 A 
HETATM    9  C8  UNL     1      25.609   1.325  53.376  1.00  0.00     0.045 A 
HETATM   10  C9  UNL     1      24.532   0.670  53.946  1.00  0.00     0.027 A 
HETATM   11  C10 UNL     1      25.150   2.760  53.638  1.00  0.00     0.138 C 
HETATM   12  N1  UNL     1      24.659   3.144  52.286  1.00  0.00    -0.382 N 
HETATM   13  C11 UNL     1      25.335   2.830  50.936  1.00  0.00     0.128 A 
HETATM   14  C12 UNL     1      26.774   2.927  51.073  1.00  0.00     0.201 A 
HETATM   15  N2  UNL     1      26.900   3.565  49.847  1.00  0.00    -0.215 NA
HETATM   16  C13 UNL     1      25.723   3.776  49.159  1.00  0.00     0.238 A 
HETATM   17  N3  UNL     1      24.388   3.504  49.381  1.00  0.00    -0.222 NA
HETATM   18  C14 UNL     1      24.035   2.890  50.509  1.00  0.00     0.161 A 
HETATM   19  N4  UNL     1      22.918   2.274  51.063  1.00  0.00    -0.326 N 
HETATM   20  O1  UNL     1      27.487   2.360  52.300  1.00  0.00    -0.293 OA
HETATM   21  H9  UNL     1      23.787   3.667  52.643  1.00  0.00     0.160 HD
ENDROOT
BRANCH  19  22
HETATM   22  C15 UNL     1      21.955   3.266  50.612  1.00  0.00     0.163 C 
BRANCH  22  23
HETATM   23  P1  UNL     1      20.651   3.382  51.931  1.00  0.00    -0.076 P 
HETATM   24  H13 UNL     1      20.792   2.230  52.803  1.00  0.00     0.064 HD
BRANCH  23  25
HETATM   25  C16 UNL     1      18.970   3.214  51.175  1.00  0.00    -0.032 A 
HETATM   26  C17 UNL     1      17.816   3.848  51.599  1.00  0.00     0.012 A 
HETATM   27  C18 UNL     1      16.641   3.632  50.946  1.00  0.00     0.001 A 
HETATM   28  C19 UNL     1      16.555   2.793  49.863  1.00  0.00     0.000 A 
HETATM   29  C20 UNL     1      17.700   2.155  49.433  1.00  0.00     0.001 A 
HETATM   30  C21 UNL     1      18.912   2.366  50.090  1.00  0.00     0.012 A 
ENDBRANCH  23  25
ENDBRANCH  22  23
ENDBRANCH  19  22
TORSDOF 3
ENDMDL
