MODEL 1
REMARK VINA RESULT:      -7.1      0.000      0.000
REMARK  9 active torsions:
REMARK  status: ('A' for Active; 'I' for Inactive)
REMARK    1  A    between atoms: N1_2  and  C3_4 
REMARK    2  A    between atoms: C3_4  and  C4_5 
REMARK    3  A    between atoms: C5_6  and  S1_7 
REMARK    4  A    between atoms: S1_7  and  C6_9 
REMARK    5  A    between atoms: C6_9  and  N2_10 
REMARK    6  A    between atoms: C7_11  and  C8_12 
REMARK    7  A    between atoms: C9_13  and  N3_14 
REMARK    8  A    between atoms: N3_14  and  C10_15 
REMARK    9  A    between atoms: C13_18  and  N4_19 
ROOT
HETATM    1  C8  UNL     1      21.451   4.180  52.196  1.00  0.00     0.019 C 
HETATM    2  C9  UNL     1      21.493   2.861  52.149  1.00  0.00     0.088 C 
ENDROOT
BRANCH   2   3
HETATM    3  N3  UNL     1      22.390   2.232  51.254  1.00  0.00    -0.366 N 
HETATM    4  H16 UNL     1      22.226   2.150  50.224  1.00  0.00     0.165 HD
BRANCH   3   5
HETATM    5  C10 UNL     1      23.591   1.675  51.802  1.00  0.00     0.033 A 
HETATM    6  C11 UNL     1      24.810   2.048  51.259  1.00  0.00     0.032 A 
HETATM    7  C12 UNL     1      25.991   1.510  51.784  1.00  0.00     0.034 A 
HETATM    8  C13 UNL     1      25.951   0.608  52.842  1.00  0.00     0.061 A 
HETATM    9  C17 UNL     1      24.728   0.223  53.399  1.00  0.00     0.063 A 
HETATM   10 CL1  UNL     1      24.660  -0.904  54.722  1.00  0.00    -0.082 Cl
HETATM   11  C18 UNL     1      23.592   0.779  52.851  1.00  0.00     0.055 A 
BRANCH   8  12
HETATM   12  N4  UNL     1      27.181   0.065  53.365  1.00  0.00    -0.314 N 
HETATM   13  C14 UNL     1      27.986   0.617  54.310  1.00  0.00     0.117 A 
HETATM   14  C15 UNL     1      29.038  -0.262  54.484  1.00  0.00     0.135 A 
HETATM   15  N5  UNL     1      28.887  -1.335  53.665  1.00  0.00    -0.254 NA
HETATM   16  C16 UNL     1      27.737  -1.112  52.986  1.00  0.00     0.214 A 
ENDBRANCH   8  12
ENDBRANCH   3   5
ENDBRANCH   2   3
BRANCH   1  17
HETATM   17  C7  UNL     1      22.335   4.924  51.321  1.00  0.00     0.035 C 
HETATM   18  C6  UNL     1      23.463   5.562  51.632  1.00  0.00     0.078 C 
BRANCH  18  19
HETATM   19  S1  UNL     1      24.582   6.480  50.631  1.00  0.00     0.085 S 
HETATM   20  O1  UNL     1      23.882   7.465  49.729  1.00  0.00    -0.247 OA
BRANCH  19  21
HETATM   21  C5  UNL     1      25.732   5.464  49.759  1.00  0.00     0.082 C 
HETATM   22  C4  UNL     1      26.702   5.461  48.854  1.00  0.00     0.012 C 
BRANCH  22  23
HETATM   23  C3  UNL     1      27.121   6.715  48.216  1.00  0.00     0.299 C 
BRANCH  23  24
HETATM   24  N1  UNL     1      28.557   6.834  48.180  1.00  0.00     0.083 N 
HETATM   25  C1  UNL     1      29.199   5.526  48.203  1.00  0.00     0.309 C 
HETATM   26  C2  UNL     1      28.914   7.505  46.931  1.00  0.00     0.309 C 
ENDBRANCH  23  24
ENDBRANCH  22  23
ENDBRANCH  19  21
ENDBRANCH  18  19
BRANCH  18  27
HETATM   27  N2  UNL     1      23.759   5.441  53.017  1.00  0.00    -0.295 NA
HETATM   28  H11 UNL     1      24.711   5.771  53.346  1.00  0.00     0.124 HD
HETATM   29  H12 UNL     1      24.679   5.741  53.447  1.00  0.00     0.124 HD
ENDBRANCH  18  27
ENDBRANCH   1  17
TORSDOF 9
ENDMDL
MODEL 2
REMARK VINA RESULT:      -7.0      3.653      5.293
REMARK  9 active torsions:
REMARK  status: ('A' for Active; 'I' for Inactive)
REMARK    1  A    between atoms: N1_2  and  C3_4 
REMARK    2  A    between atoms: C3_4  and  C4_5 
REMARK    3  A    between atoms: C5_6  and  S1_7 
REMARK    4  A    between atoms: S1_7  and  C6_9 
REMARK    5  A    between atoms: C6_9  and  N2_10 
REMARK    6  A    between atoms: C7_11  and  C8_12 
REMARK    7  A    between atoms: C9_13  and  N3_14 
REMARK    8  A    between atoms: N3_14  and  C10_15 
REMARK    9  A    between atoms: C13_18  and  N4_19 
ROOT
HETATM    1  C8  UNL     1      26.419   5.411  49.060  1.00  0.00     0.019 C 
HETATM    2  C9  UNL     1      25.907   4.674  50.029  1.00  0.00     0.088 C 
ENDROOT
BRANCH   2   3
HETATM    3  N3  UNL     1      26.653   3.582  50.533  1.00  0.00    -0.366 N 
HETATM    4  H16 UNL     1      27.672   3.436  50.346  1.00  0.00     0.165 HD
BRANCH   3   5
HETATM    5  C10 UNL     1      25.961   2.626  51.345  1.00  0.00     0.033 A 
HETATM    6  C11 UNL     1      24.766   2.994  51.942  1.00  0.00     0.032 A 
HETATM    7  C12 UNL     1      24.082   2.070  52.740  1.00  0.00     0.034 A 
HETATM    8  C13 UNL     1      24.588   0.791  52.938  1.00  0.00     0.061 A 
HETATM    9  C17 UNL     1      25.793   0.405  52.341  1.00  0.00     0.063 A 
HETATM   10 CL1  UNL     1      26.440  -1.191  52.578  1.00  0.00    -0.082 Cl
HETATM   11  C18 UNL     1      26.431   1.348  51.564  1.00  0.00     0.055 A 
BRANCH   8  12
HETATM   12  N4  UNL     1      23.865  -0.145  53.765  1.00  0.00    -0.314 N 
HETATM   13  C14 UNL     1      22.613  -0.629  53.557  1.00  0.00     0.117 A 
HETATM   14  C15 UNL     1      22.351  -1.488  54.607  1.00  0.00     0.135 A 
HETATM   15  N5  UNL     1      23.418  -1.535  55.447  1.00  0.00    -0.254 NA
HETATM   16  C16 UNL     1      24.338  -0.700  54.909  1.00  0.00     0.214 A 
ENDBRANCH   8  12
ENDBRANCH   3   5
ENDBRANCH   2   3
BRANCH   1  17
HETATM   17  C7  UNL     1      27.733   5.060  48.557  1.00  0.00     0.035 C 
HETATM   18  C6  UNL     1      28.804   5.842  48.425  1.00  0.00     0.078 C 
BRANCH  18  19
HETATM   19  S1  UNL     1      30.421   5.490  47.827  1.00  0.00     0.085 S 
HETATM   20  O1  UNL     1      30.610   4.035  47.481  1.00  0.00    -0.247 OA
BRANCH  19  21
HETATM   21  C5  UNL     1      31.701   6.108  48.872  1.00  0.00     0.082 C 
HETATM   22  C4  UNL     1      32.975   6.477  48.919  1.00  0.00     0.012 C 
BRANCH  22  23
HETATM   23  C3  UNL     1      33.807   6.413  47.711  1.00  0.00     0.299 C 
BRANCH  23  24
HETATM   24  N1  UNL     1      34.969   5.586  47.917  1.00  0.00     0.083 N 
HETATM   25  C1  UNL     1      35.459   5.687  49.286  1.00  0.00     0.309 C 
HETATM   26  C2  UNL     1      34.576   4.199  47.666  1.00  0.00     0.309 C 
ENDBRANCH  23  24
ENDBRANCH  22  23
ENDBRANCH  19  21
ENDBRANCH  18  19
BRANCH  18  27
HETATM   27  N2  UNL     1      28.532   7.168  48.861  1.00  0.00    -0.295 NA
HETATM   28  H11 UNL     1      28.353   7.317  49.895  1.00  0.00     0.124 HD
HETATM   29  H12 UNL     1      28.341   7.424  49.870  1.00  0.00     0.124 HD
ENDBRANCH  18  27
ENDBRANCH   1  17
TORSDOF 9
ENDMDL
MODEL 3
REMARK VINA RESULT:      -7.0      3.182      4.958
REMARK  9 active torsions:
REMARK  status: ('A' for Active; 'I' for Inactive)
REMARK    1  A    between atoms: N1_2  and  C3_4 
REMARK    2  A    between atoms: C3_4  and  C4_5 
REMARK    3  A    between atoms: C5_6  and  S1_7 
REMARK    4  A    between atoms: S1_7  and  C6_9 
REMARK    5  A    between atoms: C6_9  and  N2_10 
REMARK    6  A    between atoms: C7_11  and  C8_12 
REMARK    7  A    between atoms: C9_13  and  N3_14 
REMARK    8  A    between atoms: N3_14  and  C10_15 
REMARK    9  A    between atoms: C13_18  and  N4_19 
ROOT
HETATM    1  C8  UNL     1      26.334   5.293  49.021  1.00  0.00     0.019 C 
HETATM    2  C9  UNL     1      25.798   4.606  50.012  1.00  0.00     0.088 C 
ENDROOT
BRANCH   2   3
HETATM    3  N3  UNL     1      26.558   3.590  50.638  1.00  0.00    -0.366 N 
HETATM    4  H16 UNL     1      27.597   3.505  50.556  1.00  0.00     0.165 HD
BRANCH   3   5
HETATM    5  C10 UNL     1      25.852   2.625  51.427  1.00  0.00     0.033 A 
HETATM    6  C11 UNL     1      24.638   2.982  51.994  1.00  0.00     0.032 A 
HETATM    7  C12 UNL     1      23.939   2.050  52.768  1.00  0.00     0.034 A 
HETATM    8  C13 UNL     1      24.449   0.772  52.974  1.00  0.00     0.061 A 
HETATM    9  C17 UNL     1      25.672   0.399  52.408  1.00  0.00     0.063 A 
HETATM   10 CL1  UNL     1      26.325  -1.195  52.655  1.00  0.00    -0.082 Cl
HETATM   11  C18 UNL     1      26.325   1.349  51.653  1.00  0.00     0.055 A 
BRANCH   8  12
HETATM   12  N4  UNL     1      23.711  -0.172  53.777  1.00  0.00    -0.314 N 
HETATM   13  C14 UNL     1      22.490  -0.702  53.508  1.00  0.00     0.117 A 
HETATM   14  C15 UNL     1      22.196  -1.551  54.558  1.00  0.00     0.135 A 
HETATM   15  N5  UNL     1      23.215  -1.546  55.458  1.00  0.00    -0.254 NA
HETATM   16  C16 UNL     1      24.136  -0.691  54.956  1.00  0.00     0.214 A 
ENDBRANCH   8  12
ENDBRANCH   3   5
ENDBRANCH   2   3
BRANCH   1  17
HETATM   17  C7  UNL     1      27.689   4.968  48.619  1.00  0.00     0.035 C 
HETATM   18  C6  UNL     1      28.738   5.783  48.512  1.00  0.00     0.078 C 
BRANCH  18  19
HETATM   19  S1  UNL     1      30.401   5.464  48.035  1.00  0.00     0.085 S 
HETATM   20  O1  UNL     1      31.289   5.124  49.206  1.00  0.00    -0.247 OA
BRANCH  19  21
HETATM   21  C5  UNL     1      31.088   6.726  47.011  1.00  0.00     0.082 C 
HETATM   22  C4  UNL     1      31.651   7.927  47.008  1.00  0.00     0.012 C 
BRANCH  22  23
HETATM   23  C3  UNL     1      31.872   8.644  48.270  1.00  0.00     0.299 C 
BRANCH  23  24
HETATM   24  N1  UNL     1      31.553  10.043  48.143  1.00  0.00     0.083 N 
HETATM   25  C1  UNL     1      31.326  10.413  46.752  1.00  0.00     0.309 C 
HETATM   26  C2  UNL     1      30.323  10.287  48.896  1.00  0.00     0.309 C 
ENDBRANCH  23  24
ENDBRANCH  22  23
ENDBRANCH  19  21
ENDBRANCH  18  19
BRANCH  18  27
HETATM   27  N2  UNL     1      28.392   7.118  48.858  1.00  0.00    -0.295 NA
HETATM   28  H11 UNL     1      27.586   7.566  48.337  1.00  0.00     0.124 HD
HETATM   29  H12 UNL     1      27.604   7.655  48.399  1.00  0.00     0.124 HD
ENDBRANCH  18  27
ENDBRANCH   1  17
TORSDOF 9
ENDMDL
MODEL 4
REMARK VINA RESULT:      -6.9      1.845      2.049
REMARK  9 active torsions:
REMARK  status: ('A' for Active; 'I' for Inactive)
REMARK    1  A    between atoms: N1_2  and  C3_4 
REMARK    2  A    between atoms: C3_4  and  C4_5 
REMARK    3  A    between atoms: C5_6  and  S1_7 
REMARK    4  A    between atoms: S1_7  and  C6_9 
REMARK    5  A    between atoms: C6_9  and  N2_10 
REMARK    6  A    between atoms: C7_11  and  C8_12 
REMARK    7  A    between atoms: C9_13  and  N3_14 
REMARK    8  A    between atoms: N3_14  and  C10_15 
REMARK    9  A    between atoms: C13_18  and  N4_19 
ROOT
HETATM    1  C8  UNL     1      22.437   5.200  51.521  1.00  0.00     0.019 C 
HETATM    2  C9  UNL     1      22.270   3.896  51.640  1.00  0.00     0.088 C 
ENDROOT
BRANCH   2   3
HETATM    3  N3  UNL     1      23.028   3.026  50.822  1.00  0.00    -0.366 N 
HETATM    4  H16 UNL     1      22.848   2.878  49.802  1.00  0.00     0.165 HD
BRANCH   3   5
HETATM    5  C10 UNL     1      24.104   2.308  51.437  1.00  0.00     0.033 A 
HETATM    6  C11 UNL     1      25.404   2.576  51.037  1.00  0.00     0.032 A 
HETATM    7  C12 UNL     1      26.464   1.880  51.628  1.00  0.00     0.034 A 
HETATM    8  C13 UNL     1      26.227   0.925  52.611  1.00  0.00     0.061 A 
HETATM    9  C17 UNL     1      24.920   0.645  53.025  1.00  0.00     0.063 A 
HETATM   10 CL1  UNL     1      24.605  -0.546  54.253  1.00  0.00    -0.082 Cl
HETATM   11  C18 UNL     1      23.909   1.355  52.415  1.00  0.00     0.055 A 
BRANCH   8  12
HETATM   12  N4  UNL     1      27.335   0.219  53.206  1.00  0.00    -0.314 N 
HETATM   13  C14 UNL     1      28.174   0.673  54.174  1.00  0.00     0.117 A 
HETATM   14  C15 UNL     1      29.070  -0.349  54.420  1.00  0.00     0.135 A 
HETATM   15  N5  UNL     1      28.792  -1.413  53.621  1.00  0.00    -0.254 NA
HETATM   16  C16 UNL     1      27.721  -1.040  52.882  1.00  0.00     0.214 A 
ENDBRANCH   8  12
ENDBRANCH   3   5
ENDBRANCH   2   3
BRANCH   1  17
HETATM   17  C7  UNL     1      23.399   5.679  50.548  1.00  0.00     0.035 C 
HETATM   18  C6  UNL     1      24.426   6.507  50.738  1.00  0.00     0.078 C 
BRANCH  18  19
HETATM   19  S1  UNL     1      25.629   7.129  49.615  1.00  0.00     0.085 S 
HETATM   20  O1  UNL     1      26.595   6.069  49.150  1.00  0.00    -0.247 OA
BRANCH  19  21
HETATM   21  C5  UNL     1      26.447   8.579  50.201  1.00  0.00     0.082 C 
HETATM   22  C4  UNL     1      27.553   9.305  50.113  1.00  0.00     0.012 C 
BRANCH  22  23
HETATM   23  C3  UNL     1      28.642   8.889  49.220  1.00  0.00     0.299 C 
BRANCH  23  24
HETATM   24  N1  UNL     1      29.810   9.714  49.395  1.00  0.00     0.083 N 
HETATM   25  C1  UNL     1      30.981   9.118  48.765  1.00  0.00     0.309 C 
HETATM   26  C2  UNL     1      29.543  11.002  48.756  1.00  0.00     0.309 C 
ENDBRANCH  23  24
ENDBRANCH  22  23
ENDBRANCH  19  21
ENDBRANCH  18  19
BRANCH  18  27
HETATM   27  N2  UNL     1      24.513   6.917  52.097  1.00  0.00    -0.295 NA
HETATM   28  H11 UNL     1      24.845   6.201  52.805  1.00  0.00     0.124 HD
HETATM   29  H12 UNL     1      24.833   6.281  52.880  1.00  0.00     0.124 HD
ENDBRANCH  18  27
ENDBRANCH   1  17
TORSDOF 9
ENDMDL
MODEL 5
REMARK VINA RESULT:      -6.9      2.647      4.962
REMARK  9 active torsions:
REMARK  status: ('A' for Active; 'I' for Inactive)
REMARK    1  A    between atoms: N1_2  and  C3_4 
REMARK    2  A    between atoms: C3_4  and  C4_5 
REMARK    3  A    between atoms: C5_6  and  S1_7 
REMARK    4  A    between atoms: S1_7  and  C6_9 
REMARK    5  A    between atoms: C6_9  and  N2_10 
REMARK    6  A    between atoms: C7_11  and  C8_12 
REMARK    7  A    between atoms: C9_13  and  N3_14 
REMARK    8  A    between atoms: N3_14  and  C10_15 
REMARK    9  A    between atoms: C13_18  and  N4_19 
ROOT
HETATM    1  C8  UNL     1      27.030   4.538  48.935  1.00  0.00     0.019 C 
HETATM    2  C9  UNL     1      26.711   3.630  49.839  1.00  0.00     0.088 C 
ENDROOT
BRANCH   2   3
HETATM    3  N3  UNL     1      25.829   3.981  50.887  1.00  0.00    -0.366 N 
HETATM    4  H16 UNL     1      25.633   4.966  51.181  1.00  0.00     0.165 HD
BRANCH   3   5
HETATM    5  C10 UNL     1      25.170   2.916  51.583  1.00  0.00     0.033 A 
HETATM    6  C11 UNL     1      23.897   3.132  52.088  1.00  0.00     0.032 A 
HETATM    7  C12 UNL     1      23.244   2.101  52.772  1.00  0.00     0.034 A 
HETATM    8  C13 UNL     1      23.857   0.866  52.949  1.00  0.00     0.061 A 
HETATM    9  C17 UNL     1      25.141   0.634  52.445  1.00  0.00     0.063 A 
HETATM   10 CL1  UNL     1      25.924  -0.905  52.658  1.00  0.00    -0.082 Cl
HETATM   11  C18 UNL     1      25.746   1.678  51.779  1.00  0.00     0.055 A 
BRANCH   8  12
HETATM   12  N4  UNL     1      23.165  -0.182  53.659  1.00  0.00    -0.314 N 
HETATM   13  C14 UNL     1      22.093  -0.897  53.227  1.00  0.00     0.117 A 
HETATM   14  C15 UNL     1      21.783  -1.781  54.243  1.00  0.00     0.135 A 
HETATM   15  N5  UNL     1      22.645  -1.616  55.281  1.00  0.00    -0.254 NA
HETATM   16  C16 UNL     1      23.486  -0.627  54.899  1.00  0.00     0.214 A 
ENDBRANCH   8  12
ENDBRANCH   3   5
ENDBRANCH   2   3
BRANCH   1  17
HETATM   17  C7  UNL     1      26.453   5.862  49.063  1.00  0.00     0.035 C 
HETATM   18  C6  UNL     1      27.073   7.041  49.033  1.00  0.00     0.078 C 
BRANCH  18  19
HETATM   19  S1  UNL     1      26.444   8.678  49.181  1.00  0.00     0.085 S 
HETATM   20  O1  UNL     1      26.891   9.361  50.450  1.00  0.00    -0.247 OA
BRANCH  19  21
HETATM   21  C5  UNL     1      24.700   8.780  48.938  1.00  0.00     0.082 C 
HETATM   22  C4  UNL     1      23.517   8.453  49.442  1.00  0.00     0.012 C 
BRANCH  22  23
HETATM   23  C3  UNL     1      23.433   7.705  50.702  1.00  0.00     0.299 C 
BRANCH  23  24
HETATM   24  N1  UNL     1      22.171   7.021  50.825  1.00  0.00     0.083 N 
HETATM   25  C1  UNL     1      21.085   7.801  50.245  1.00  0.00     0.309 C 
HETATM   26  C2  UNL     1      22.278   5.758  50.094  1.00  0.00     0.309 C 
ENDBRANCH  23  24
ENDBRANCH  22  23
ENDBRANCH  19  21
ENDBRANCH  18  19
BRANCH  18  27
HETATM   27  N2  UNL     1      28.473   6.883  48.844  1.00  0.00    -0.295 NA
HETATM   28  H11 UNL     1      28.819   6.716  47.856  1.00  0.00     0.124 HD
HETATM   29  H12 UNL     1      28.920   6.713  47.899  1.00  0.00     0.124 HD
ENDBRANCH  18  27
ENDBRANCH   1  17
TORSDOF 9
ENDMDL
MODEL 6
REMARK VINA RESULT:      -6.9      3.455      7.568
REMARK  9 active torsions:
REMARK  status: ('A' for Active; 'I' for Inactive)
REMARK    1  A    between atoms: N1_2  and  C3_4 
REMARK    2  A    between atoms: C3_4  and  C4_5 
REMARK    3  A    between atoms: C5_6  and  S1_7 
REMARK    4  A    between atoms: S1_7  and  C6_9 
REMARK    5  A    between atoms: C6_9  and  N2_10 
REMARK    6  A    between atoms: C7_11  and  C8_12 
REMARK    7  A    between atoms: C9_13  and  N3_14 
REMARK    8  A    between atoms: N3_14  and  C10_15 
REMARK    9  A    between atoms: C13_18  and  N4_19 
ROOT
HETATM    1  C8  UNL     1      23.538   4.692  52.788  1.00  0.00     0.019 C 
HETATM    2  C9  UNL     1      23.845   5.528  51.814  1.00  0.00     0.088 C 
ENDROOT
BRANCH   2   3
HETATM    3  N3  UNL     1      24.182   5.010  50.541  1.00  0.00    -0.366 N 
HETATM    4  H16 UNL     1      23.641   4.258  50.056  1.00  0.00     0.165 HD
BRANCH   3   5
HETATM    5  C10 UNL     1      25.334   5.556  49.887  1.00  0.00     0.033 A 
HETATM    6  C11 UNL     1      26.219   4.692  49.260  1.00  0.00     0.032 A 
HETATM    7  C12 UNL     1      27.350   5.212  48.620  1.00  0.00     0.034 A 
HETATM    8  C13 UNL     1      27.593   6.581  48.607  1.00  0.00     0.061 A 
HETATM    9  C17 UNL     1      26.708   7.463  49.235  1.00  0.00     0.063 A 
HETATM   10 CL1  UNL     1      26.996   9.178  49.228  1.00  0.00    -0.082 Cl
HETATM   11  C18 UNL     1      25.608   6.907  49.852  1.00  0.00     0.055 A 
BRANCH   8  12
HETATM   12  N4  UNL     1      28.766   7.093  47.942  1.00  0.00    -0.314 N 
HETATM   13  C14 UNL     1      28.844   7.589  46.680  1.00  0.00     0.117 A 
HETATM   14  C15 UNL     1      30.162   7.955  46.488  1.00  0.00     0.135 A 
HETATM   15  N5  UNL     1      30.885   7.692  47.608  1.00  0.00    -0.254 NA
HETATM   16  C16 UNL     1      30.005   7.162  48.489  1.00  0.00     0.214 A 
ENDBRANCH   8  12
ENDBRANCH   3   5
ENDBRANCH   2   3
BRANCH   1  17
HETATM   17  C7  UNL     1      23.561   3.271  52.501  1.00  0.00     0.035 C 
HETATM   18  C6  UNL     1      24.454   2.363  52.892  1.00  0.00     0.078 C 
BRANCH  18  19
HETATM   19  S1  UNL     1      24.548   0.632  52.585  1.00  0.00     0.085 S 
HETATM   20  O1  UNL     1      23.884  -0.187  53.664  1.00  0.00    -0.247 OA
BRANCH  19  21
HETATM   21  C5  UNL     1      26.182   0.075  52.224  1.00  0.00     0.082 C 
HETATM   22  C4  UNL     1      27.362  -0.227  52.750  1.00  0.00     0.012 C 
BRANCH  22  23
HETATM   23  C3  UNL     1      27.578  -0.109  54.198  1.00  0.00     0.299 C 
BRANCH  23  24
HETATM   24  N1  UNL     1      28.946   0.225  54.501  1.00  0.00     0.083 N 
HETATM   25  C1  UNL     1      29.875  -0.552  53.692  1.00  0.00     0.309 C 
HETATM   26  C2  UNL     1      29.134   1.643  54.192  1.00  0.00     0.309 C 
ENDBRANCH  23  24
ENDBRANCH  22  23
ENDBRANCH  19  21
ENDBRANCH  18  19
BRANCH  18  27
HETATM   27  N2  UNL     1      25.475   2.951  53.687  1.00  0.00    -0.295 NA
HETATM   28  H11 UNL     1      25.721   3.965  53.498  1.00  0.00     0.124 HD
HETATM   29  H12 UNL     1      25.795   3.955  53.579  1.00  0.00     0.124 HD
ENDBRANCH  18  27
ENDBRANCH   1  17
TORSDOF 9
ENDMDL
MODEL 7
REMARK VINA RESULT:      -6.8      1.307      1.653
REMARK  9 active torsions:
REMARK  status: ('A' for Active; 'I' for Inactive)
REMARK    1  A    between atoms: N1_2  and  C3_4 
REMARK    2  A    between atoms: C3_4  and  C4_5 
REMARK    3  A    between atoms: C5_6  and  S1_7 
REMARK    4  A    between atoms: S1_7  and  C6_9 
REMARK    5  A    between atoms: C6_9  and  N2_10 
REMARK    6  A    between atoms: C7_11  and  C8_12 
REMARK    7  A    between atoms: C9_13  and  N3_14 
REMARK    8  A    between atoms: N3_14  and  C10_15 
REMARK    9  A    between atoms: C13_18  and  N4_19 
ROOT
HETATM    1  C8  UNL     1      22.449   5.456  50.816  1.00  0.00     0.019 C 
HETATM    2  C9  UNL     1      22.332   4.141  50.824  1.00  0.00     0.088 C 
ENDROOT
BRANCH   2   3
HETATM    3  N3  UNL     1      23.274   3.360  50.115  1.00  0.00    -0.366 N 
HETATM    4  H16 UNL     1      23.309   3.292  49.072  1.00  0.00     0.165 HD
BRANCH   3   5
HETATM    5  C10 UNL     1      24.233   2.621  50.882  1.00  0.00     0.033 A 
HETATM    6  C11 UNL     1      25.581   2.892  50.708  1.00  0.00     0.032 A 
HETATM    7  C12 UNL     1      26.528   2.176  51.449  1.00  0.00     0.034 A 
HETATM    8  C13 UNL     1      26.130   1.198  52.354  1.00  0.00     0.061 A 
HETATM    9  C17 UNL     1      24.773   0.915  52.539  1.00  0.00     0.063 A 
HETATM   10 CL1  UNL     1      24.258  -0.305  53.667  1.00  0.00    -0.082 Cl
HETATM   11  C18 UNL     1      23.877   1.645  51.789  1.00  0.00     0.055 A 
BRANCH   8  12
HETATM   12  N4  UNL     1      27.125   0.472  53.106  1.00  0.00    -0.314 N 
HETATM   13  C14 UNL     1      27.803   0.903  54.201  1.00  0.00     0.117 A 
HETATM   14  C15 UNL     1      28.640  -0.133  54.569  1.00  0.00     0.135 A 
HETATM   15  N5  UNL     1      28.483  -1.182  53.720  1.00  0.00    -0.254 NA
HETATM   16  C16 UNL     1      27.545  -0.787  52.828  1.00  0.00     0.214 A 
ENDBRANCH   8  12
ENDBRANCH   3   5
ENDBRANCH   2   3
BRANCH   1  17
HETATM   17  C7  UNL     1      23.549   6.039  50.072  1.00  0.00     0.035 C 
HETATM   18  C6  UNL     1      24.574   6.753  50.535  1.00  0.00     0.078 C 
BRANCH  18  19
HETATM   19  S1  UNL     1      25.938   7.488  49.699  1.00  0.00     0.085 S 
HETATM   20  O1  UNL     1      25.520   8.603  48.773  1.00  0.00    -0.247 OA
BRANCH  19  21
HETATM   21  C5  UNL     1      26.988   6.311  48.909  1.00  0.00     0.082 C 
HETATM   22  C4  UNL     1      28.007   6.162  48.073  1.00  0.00     0.012 C 
BRANCH  22  23
HETATM   23  C3  UNL     1      28.641   7.338  47.463  1.00  0.00     0.299 C 
BRANCH  23  24
HETATM   24  N1  UNL     1      30.016   7.467  47.873  1.00  0.00     0.083 N 
HETATM   25  C1  UNL     1      30.150   8.376  49.004  1.00  0.00     0.309 C 
HETATM   26  C2  UNL     1      30.482   6.142  48.283  1.00  0.00     0.309 C 
ENDBRANCH  23  24
ENDBRANCH  22  23
ENDBRANCH  19  21
ENDBRANCH  18  19
BRANCH  18  27
HETATM   27  N2  UNL     1      24.499   6.910  51.946  1.00  0.00    -0.295 NA
HETATM   28  H11 UNL     1      25.286   7.436  52.423  1.00  0.00     0.124 HD
HETATM   29  H12 UNL     1      25.231   7.418  52.517  1.00  0.00     0.124 HD
ENDBRANCH  18  27
ENDBRANCH   1  17
TORSDOF 9
ENDMDL
MODEL 8
REMARK VINA RESULT:      -6.7      1.806      2.426
REMARK  9 active torsions:
REMARK  status: ('A' for Active; 'I' for Inactive)
REMARK    1  A    between atoms: N1_2  and  C3_4 
REMARK    2  A    between atoms: C3_4  and  C4_5 
REMARK    3  A    between atoms: C5_6  and  S1_7 
REMARK    4  A    between atoms: S1_7  and  C6_9 
REMARK    5  A    between atoms: C6_9  and  N2_10 
REMARK    6  A    between atoms: C7_11  and  C8_12 
REMARK    7  A    between atoms: C9_13  and  N3_14 
REMARK    8  A    between atoms: N3_14  and  C10_15 
REMARK    9  A    between atoms: C13_18  and  N4_19 
ROOT
HETATM    1  C8  UNL     1      20.219   3.236  52.372  1.00  0.00     0.019 C 
HETATM    2  C9  UNL     1      20.695   2.018  52.555  1.00  0.00     0.088 C 
ENDROOT
BRANCH   2   3
HETATM    3  N3  UNL     1      21.584   1.474  51.599  1.00  0.00    -0.366 N 
HETATM    4  H16 UNL     1      21.340   1.324  50.593  1.00  0.00     0.165 HD
BRANCH   3   5
HETATM    5  C10 UNL     1      22.895   1.108  52.047  1.00  0.00     0.033 A 
HETATM    6  C11 UNL     1      23.020   0.158  53.049  1.00  0.00     0.032 A 
HETATM    7  C12 UNL     1      24.294  -0.206  53.498  1.00  0.00     0.034 A 
HETATM    8  C13 UNL     1      25.433   0.373  52.949  1.00  0.00     0.061 A 
HETATM    9  C17 UNL     1      25.322   1.332  51.937  1.00  0.00     0.063 A 
HETATM   10 CL1  UNL     1      26.736   2.066  51.239  1.00  0.00    -0.082 Cl
HETATM   11  C18 UNL     1      24.047   1.659  51.527  1.00  0.00     0.055 A 
BRANCH   8  12
HETATM   12  N4  UNL     1      26.736  -0.018  53.428  1.00  0.00    -0.314 N 
HETATM   13  C14 UNL     1      27.471   0.588  54.396  1.00  0.00     0.117 A 
HETATM   14  C15 UNL     1      28.640  -0.140  54.508  1.00  0.00     0.135 A 
HETATM   15  N5  UNL     1      28.628  -1.175  53.628  1.00  0.00    -0.254 NA
HETATM   16  C16 UNL     1      27.447  -1.080  52.974  1.00  0.00     0.214 A 
ENDBRANCH   8  12
ENDBRANCH   3   5
ENDBRANCH   2   3
BRANCH   1  17
HETATM   17  C7  UNL     1      20.638   3.961  51.188  1.00  0.00     0.035 C 
HETATM   18  C6  UNL     1      21.551   4.927  51.090  1.00  0.00     0.078 C 
BRANCH  18  19
HETATM   19  S1  UNL     1      22.108   5.848  49.697  1.00  0.00     0.085 S 
HETATM   20  O1  UNL     1      22.900   5.011  48.725  1.00  0.00    -0.247 OA
BRANCH  19  21
HETATM   21  C5  UNL     1      22.941   7.341  50.137  1.00  0.00     0.082 C 
HETATM   22  C4  UNL     1      24.115   7.871  50.451  1.00  0.00     0.012 C 
BRANCH  22  23
HETATM   23  C3  UNL     1      25.316   7.028  50.503  1.00  0.00     0.299 C 
BRANCH  23  24
HETATM   24  N1  UNL     1      25.908   6.873  49.199  1.00  0.00     0.083 N 
HETATM   25  C1  UNL     1      27.056   7.754  49.027  1.00  0.00     0.309 C 
HETATM   26  C2  UNL     1      26.363   5.488  49.080  1.00  0.00     0.309 C 
ENDBRANCH  23  24
ENDBRANCH  22  23
ENDBRANCH  19  21
ENDBRANCH  18  19
BRANCH  18  27
HETATM   27  N2  UNL     1      22.138   5.213  52.352  1.00  0.00    -0.295 NA
HETATM   28  H11 UNL     1      21.566   5.778  53.043  1.00  0.00     0.124 HD
HETATM   29  H12 UNL     1      21.652   5.768  53.111  1.00  0.00     0.124 HD
ENDBRANCH  18  27
ENDBRANCH   1  17
TORSDOF 9
ENDMDL
MODEL 9
REMARK VINA RESULT:      -6.7      3.177      4.081
REMARK  9 active torsions:
REMARK  status: ('A' for Active; 'I' for Inactive)
REMARK    1  A    between atoms: N1_2  and  C3_4 
REMARK    2  A    between atoms: C3_4  and  C4_5 
REMARK    3  A    between atoms: C5_6  and  S1_7 
REMARK    4  A    between atoms: S1_7  and  C6_9 
REMARK    5  A    between atoms: C6_9  and  N2_10 
REMARK    6  A    between atoms: C7_11  and  C8_12 
REMARK    7  A    between atoms: C9_13  and  N3_14 
REMARK    8  A    between atoms: N3_14  and  C10_15 
REMARK    9  A    between atoms: C13_18  and  N4_19 
ROOT
HETATM    1  C8  UNL     1      20.704   0.492  49.919  1.00  0.00     0.019 C 
HETATM    2  C9  UNL     1      20.846   0.487  51.232  1.00  0.00     0.088 C 
ENDROOT
BRANCH   2   3
HETATM    3  N3  UNL     1      21.656   1.473  51.842  1.00  0.00    -0.366 N 
HETATM    4  H16 UNL     1      21.347   2.458  52.012  1.00  0.00     0.165 HD
BRANCH   3   5
HETATM    5  C10 UNL     1      22.976   1.090  52.246  1.00  0.00     0.033 A 
HETATM    6  C11 UNL     1      23.122   0.080  53.185  1.00  0.00     0.032 A 
HETATM    7  C12 UNL     1      24.405  -0.302  53.590  1.00  0.00     0.034 A 
HETATM    8  C13 UNL     1      25.532   0.320  53.061  1.00  0.00     0.061 A 
HETATM    9  C17 UNL     1      25.399   1.340  52.114  1.00  0.00     0.063 A 
HETATM   10 CL1  UNL     1      26.797   2.128  51.443  1.00  0.00    -0.082 Cl
HETATM   11  C18 UNL     1      24.116   1.682  51.745  1.00  0.00     0.055 A 
BRANCH   8  12
HETATM   12  N4  UNL     1      26.845  -0.091  53.495  1.00  0.00    -0.314 N 
HETATM   13  C14 UNL     1      27.602   0.476  54.470  1.00  0.00     0.117 A 
HETATM   14  C15 UNL     1      28.772  -0.257  54.527  1.00  0.00     0.135 A 
HETATM   15  N5  UNL     1      28.740  -1.256  53.607  1.00  0.00    -0.254 NA
HETATM   16  C16 UNL     1      27.544  -1.134  52.984  1.00  0.00     0.214 A 
ENDBRANCH   8  12
ENDBRANCH   3   5
ENDBRANCH   2   3
BRANCH   1  17
HETATM   17  C7  UNL     1      21.392   1.520  49.162  1.00  0.00     0.035 C 
HETATM   18  C6  UNL     1      20.871   2.431  48.341  1.00  0.00     0.078 C 
BRANCH  18  19
HETATM   19  S1  UNL     1      21.638   3.701  47.394  1.00  0.00     0.085 S 
HETATM   20  O1  UNL     1      21.936   3.272  45.979  1.00  0.00    -0.247 OA
BRANCH  19  21
HETATM   21  C5  UNL     1      23.038   4.418  48.193  1.00  0.00     0.082 C 
HETATM   22  C4  UNL     1      23.511   4.867  49.348  1.00  0.00     0.012 C 
BRANCH  22  23
HETATM   23  C3  UNL     1      22.674   4.831  50.553  1.00  0.00     0.299 C 
BRANCH  23  24
HETATM   24  N1  UNL     1      22.769   6.062  51.296  1.00  0.00     0.083 N 
HETATM   25  C1  UNL     1      24.086   6.669  51.155  1.00  0.00     0.309 C 
HETATM   26  C2  UNL     1      21.772   6.985  50.753  1.00  0.00     0.309 C 
ENDBRANCH  23  24
ENDBRANCH  22  23
ENDBRANCH  19  21
ENDBRANCH  18  19
BRANCH  18  27
HETATM   27  N2  UNL     1      19.457   2.307  48.263  1.00  0.00    -0.295 NA
HETATM   28  H11 UNL     1      18.928   3.057  47.733  1.00  0.00     0.124 HD
HETATM   29  H12 UNL     1      18.837   3.001  47.758  1.00  0.00     0.124 HD
ENDBRANCH  18  27
ENDBRANCH   1  17
TORSDOF 9
ENDMDL
