MODEL 1
REMARK VINA RESULT:      -6.4      0.000      0.000
REMARK  9 active torsions:
REMARK  status: ('A' for Active; 'I' for Inactive)
REMARK    1  A    between atoms: C2_2  and  C3_3 
REMARK    2  A    between atoms: C3_3  and  C4_4 
REMARK    3  A    between atoms: C4_4  and  C5_5 
REMARK    4  A    between atoms: C5_5  and  N1_6 
REMARK    5  A    between atoms: N1_6  and  C6_7 
REMARK    6  A    between atoms: C7_8  and  N2_9 
REMARK    7  A    between atoms: C8_10  and  C9_11 
REMARK    8  A    between atoms: C9_11  and  C10_12 
REMARK    9  A    between atoms: N4_16  and  C13_17 
ROOT
HETATM    1  C10 UNL     1      22.309   0.534  53.431  1.00  0.00     0.202 C 
HETATM    2  N3  UNL     1      21.644  -0.295  54.377  1.00  0.00    -0.282 NA
HETATM    3  C11 UNL     1      22.376  -1.086  55.080  1.00  0.00     0.106 C 
HETATM    4  C12 UNL     1      23.855  -1.225  55.005  1.00  0.00     0.189 C 
HETATM    5  N4  UNL     1      24.381  -0.505  53.862  1.00  0.00    -0.309 N 
HETATM    6  N5  UNL     1      23.446  -0.179  52.875  1.00  0.00    -0.212 NA
HETATM    7  H29 UNL     1      23.162  -1.011  52.312  1.00  0.00     0.149 HD
ENDROOT
BRANCH   1   8
HETATM    8  C9  UNL     1      21.397   0.877  52.297  1.00  0.00     0.091 C 
BRANCH   8   9
HETATM    9  C8  UNL     1      22.229   1.079  51.073  1.00  0.00     0.092 C 
HETATM   10  N2  UNL     1      22.932   2.004  50.495  1.00  0.00    -0.276 NA
BRANCH  10  11
HETATM   11  C7  UNL     1      22.989   3.256  51.166  1.00  0.00     0.132 C 
HETATM   12  C6  UNL     1      24.166   3.510  51.716  1.00  0.00     0.102 C 
BRANCH  12  13
HETATM   13  N1  UNL     1      25.233   2.577  51.611  1.00  0.00    -0.398 N 
HETATM   14  H12 UNL     1      25.120   1.562  51.911  1.00  0.00     0.158 HD
BRANCH  13  15
HETATM   15  C5  UNL     1      26.523   2.982  51.085  1.00  0.00     0.119 C 
BRANCH  15  16
HETATM   16  C4  UNL     1      26.408   3.060  49.574  1.00  0.00     0.020 C 
BRANCH  16  17
HETATM   17  C3  UNL     1      26.972   4.356  49.044  1.00  0.00     0.001 C 
BRANCH  17  18
HETATM   18  C2  UNL     1      26.190   5.506  49.663  1.00  0.00    -0.004 C 
HETATM   19  C1  UNL     1      25.061   5.830  48.694  1.00  0.00     0.005 C 
ENDBRANCH  17  18
ENDBRANCH  16  17
ENDBRANCH  15  16
ENDBRANCH  13  15
ENDBRANCH  12  13
ENDBRANCH  10  11
ENDBRANCH   8   9
ENDBRANCH   1   8
BRANCH   5  20
HETATM   20  C13 UNL     1      25.750  -0.146  53.738  1.00  0.00     0.031 A 
HETATM   21  C14 UNL     1      26.444   0.593  54.587  1.00  0.00     0.026 A 
HETATM   22  C15 UNL     1      27.813   0.727  54.095  1.00  0.00    -0.001 A 
HETATM   23  C16 UNL     1      27.926   0.056  52.937  1.00  0.00    -0.016 A 
HETATM   24  C17 UNL     1      26.625  -0.556  52.611  1.00  0.00     0.055 A 
HETATM   25  C18 UNL     1      26.733  -2.039  52.475  1.00  0.00     0.020 C 
ENDBRANCH   5  20
TORSDOF 9
ENDMDL
MODEL 2
REMARK VINA RESULT:      -6.2      2.561      3.590
REMARK  9 active torsions:
REMARK  status: ('A' for Active; 'I' for Inactive)
REMARK    1  A    between atoms: C2_2  and  C3_3 
REMARK    2  A    between atoms: C3_3  and  C4_4 
REMARK    3  A    between atoms: C4_4  and  C5_5 
REMARK    4  A    between atoms: C5_5  and  N1_6 
REMARK    5  A    between atoms: N1_6  and  C6_7 
REMARK    6  A    between atoms: C7_8  and  N2_9 
REMARK    7  A    between atoms: C8_10  and  C9_11 
REMARK    8  A    between atoms: C9_11  and  C10_12 
REMARK    9  A    between atoms: N4_16  and  C13_17 
ROOT
HETATM    1  C10 UNL     1      24.545   1.477  52.360  1.00  0.00     0.202 C 
HETATM    2  N3  UNL     1      23.472   0.798  53.003  1.00  0.00    -0.282 NA
HETATM    3  C11 UNL     1      23.778  -0.196  53.761  1.00  0.00     0.106 C 
HETATM    4  C12 UNL     1      25.145  -0.713  54.035  1.00  0.00     0.189 C 
HETATM    5  N4  UNL     1      26.114  -0.092  53.155  1.00  0.00    -0.309 N 
HETATM    6  N5  UNL     1      25.585   0.523  52.016  1.00  0.00    -0.212 NA
HETATM    7  H29 UNL     1      25.273  -0.172  51.302  1.00  0.00     0.149 HD
ENDROOT
BRANCH   1   8
HETATM    8  C9  UNL     1      24.079   2.111  51.088  1.00  0.00     0.091 C 
BRANCH   8   9
HETATM    9  C8  UNL     1      24.560   3.526  51.070  1.00  0.00     0.092 C 
HETATM   10  N2  UNL     1      25.468   4.256  50.501  1.00  0.00    -0.276 NA
BRANCH  10  11
HETATM   11  C7  UNL     1      26.327   3.585  49.588  1.00  0.00     0.132 C 
HETATM   12  C6  UNL     1      27.210   4.383  49.008  1.00  0.00     0.102 C 
BRANCH  12  13
HETATM   13  N1  UNL     1      27.245   5.771  49.312  1.00  0.00    -0.398 N 
HETATM   14  H12 UNL     1      27.009   6.137  50.284  1.00  0.00     0.158 HD
BRANCH  13  15
HETATM   15  C5  UNL     1      27.608   6.743  48.299  1.00  0.00     0.119 C 
BRANCH  15  16
HETATM   16  C4  UNL     1      28.992   6.390  47.786  1.00  0.00     0.020 C 
BRANCH  16  17
HETATM   17  C3  UNL     1      29.845   7.622  47.606  1.00  0.00     0.001 C 
BRANCH  17  18
HETATM   18  C2  UNL     1      30.637   7.847  48.887  1.00  0.00    -0.004 C 
HETATM   19  C1  UNL     1      30.380   9.288  49.303  1.00  0.00     0.005 C 
ENDBRANCH  17  18
ENDBRANCH  16  17
ENDBRANCH  15  16
ENDBRANCH  13  15
ENDBRANCH  12  13
ENDBRANCH  10  11
ENDBRANCH   8   9
ENDBRANCH   1   8
BRANCH   5  20
HETATM   20  C13 UNL     1      27.511  -0.099  53.416  1.00  0.00     0.031 A 
HETATM   21  C14 UNL     1      28.354  -1.078  53.132  1.00  0.00     0.026 A 
HETATM   22  C15 UNL     1      29.696  -0.690  53.561  1.00  0.00    -0.001 A 
HETATM   23  C16 UNL     1      29.641   0.535  54.106  1.00  0.00    -0.016 A 
HETATM   24  C17 UNL     1      28.249   1.016  54.061  1.00  0.00     0.055 A 
HETATM   25  C18 UNL     1      28.133   2.298  53.303  1.00  0.00     0.020 C 
ENDBRANCH   5  20
TORSDOF 9
ENDMDL
MODEL 3
REMARK VINA RESULT:      -6.2      1.888      5.216
REMARK  9 active torsions:
REMARK  status: ('A' for Active; 'I' for Inactive)
REMARK    1  A    between atoms: C2_2  and  C3_3 
REMARK    2  A    between atoms: C3_3  and  C4_4 
REMARK    3  A    between atoms: C4_4  and  C5_5 
REMARK    4  A    between atoms: C5_5  and  N1_6 
REMARK    5  A    between atoms: N1_6  and  C6_7 
REMARK    6  A    between atoms: C7_8  and  N2_9 
REMARK    7  A    between atoms: C8_10  and  C9_11 
REMARK    8  A    between atoms: C9_11  and  C10_12 
REMARK    9  A    between atoms: N4_16  and  C13_17 
ROOT
HETATM    1  C10 UNL     1      23.931   3.494  51.206  1.00  0.00     0.202 C 
HETATM    2  N3  UNL     1      24.401   4.180  50.051  1.00  0.00    -0.282 NA
HETATM    3  C11 UNL     1      25.617   3.960  49.693  1.00  0.00     0.106 C 
HETATM    4  C12 UNL     1      26.590   3.059  50.368  1.00  0.00     0.189 C 
HETATM    5  N4  UNL     1      26.070   2.605  51.642  1.00  0.00    -0.309 N 
HETATM    6  N5  UNL     1      25.015   3.359  52.164  1.00  0.00    -0.212 NA
HETATM    7  H29 UNL     1      25.336   4.278  52.541  1.00  0.00     0.149 HD
ENDROOT
BRANCH   1   8
HETATM    8  C9  UNL     1      22.839   4.270  51.872  1.00  0.00     0.091 C 
BRANCH   8   9
HETATM    9  C8  UNL     1      21.682   4.349  50.929  1.00  0.00     0.092 C 
HETATM   10  N2  UNL     1      20.419   4.057  50.885  1.00  0.00    -0.276 NA
BRANCH  10  11
HETATM   11  C7  UNL     1      19.871   3.474  52.060  1.00  0.00     0.132 C 
HETATM   12  C6  UNL     1      19.915   2.151  52.065  1.00  0.00     0.102 C 
BRANCH  12  13
HETATM   13  N1  UNL     1      20.470   1.438  50.968  1.00  0.00    -0.398 N 
HETATM   14  H12 UNL     1      20.300   1.740  49.961  1.00  0.00     0.158 HD
BRANCH  13  15
HETATM   15  C5  UNL     1      21.295   0.266  51.186  1.00  0.00     0.119 C 
BRANCH  15  16
HETATM   16  C4  UNL     1      21.554   0.148  52.677  1.00  0.00     0.020 C 
BRANCH  16  17
HETATM   17  C3  UNL     1      23.004   0.405  53.007  1.00  0.00     0.001 C 
BRANCH  17  18
HETATM   18  C2  UNL     1      23.474  -0.673  53.974  1.00  0.00    -0.004 C 
HETATM   19  C1  UNL     1      22.273  -1.026  54.841  1.00  0.00     0.005 C 
ENDBRANCH  17  18
ENDBRANCH  16  17
ENDBRANCH  15  16
ENDBRANCH  13  15
ENDBRANCH  12  13
ENDBRANCH  10  11
ENDBRANCH   8   9
ENDBRANCH   1   8
BRANCH   5  20
HETATM   20  C13 UNL     1      26.586   1.473  52.327  1.00  0.00     0.031 A 
HETATM   21  C14 UNL     1      26.527   0.217  51.916  1.00  0.00     0.026 A 
HETATM   22  C15 UNL     1      27.173  -0.641  52.908  1.00  0.00    -0.001 A 
HETATM   23  C16 UNL     1      27.619   0.123  53.918  1.00  0.00    -0.016 A 
HETATM   24  C17 UNL     1      27.284   1.531  53.637  1.00  0.00     0.055 A 
HETATM   25  C18 UNL     1      28.505   2.391  53.601  1.00  0.00     0.020 C 
ENDBRANCH   5  20
TORSDOF 9
ENDMDL
MODEL 4
REMARK VINA RESULT:      -6.2      2.959      4.403
REMARK  9 active torsions:
REMARK  status: ('A' for Active; 'I' for Inactive)
REMARK    1  A    between atoms: C2_2  and  C3_3 
REMARK    2  A    between atoms: C3_3  and  C4_4 
REMARK    3  A    between atoms: C4_4  and  C5_5 
REMARK    4  A    between atoms: C5_5  and  N1_6 
REMARK    5  A    between atoms: N1_6  and  C6_7 
REMARK    6  A    between atoms: C7_8  and  N2_9 
REMARK    7  A    between atoms: C8_10  and  C9_11 
REMARK    8  A    between atoms: C9_11  and  C10_12 
REMARK    9  A    between atoms: N4_16  and  C13_17 
ROOT
HETATM    1  C10 UNL     1      25.145   2.378  52.136  1.00  0.00     0.202 C 
HETATM    2  N3  UNL     1      23.839   1.972  52.531  1.00  0.00    -0.282 NA
HETATM    3  C11 UNL     1      23.733   0.837  53.127  1.00  0.00     0.106 C 
HETATM    4  C12 UNL     1      24.841  -0.102  53.447  1.00  0.00     0.189 C 
HETATM    5  N4  UNL     1      26.069   0.314  52.800  1.00  0.00    -0.309 N 
HETATM    6  N5  UNL     1      25.915   1.212  51.740  1.00  0.00    -0.212 NA
HETATM    7  H29 UNL     1      25.535   0.751  50.884  1.00  0.00     0.149 HD
ENDROOT
BRANCH   1   8
HETATM    8  C9  UNL     1      25.077   3.294  50.956  1.00  0.00     0.091 C 
BRANCH   8   9
HETATM    9  C8  UNL     1      26.366   3.184  50.207  1.00  0.00     0.092 C 
HETATM   10  N2  UNL     1      27.067   3.848  49.341  1.00  0.00    -0.276 NA
BRANCH  10  11
HETATM   11  C7  UNL     1      26.516   5.085  48.907  1.00  0.00     0.132 C 
HETATM   12  C6  UNL     1      27.427   6.018  48.677  1.00  0.00     0.102 C 
BRANCH  12  13
HETATM   13  N1  UNL     1      28.809   5.746  48.864  1.00  0.00    -0.398 N 
HETATM   14  H12 UNL     1      29.176   5.305  49.761  1.00  0.00     0.158 HD
BRANCH  13  15
HETATM   15  C5  UNL     1      29.774   6.064  47.829  1.00  0.00     0.119 C 
BRANCH  15  16
HETATM   16  C4  UNL     1      31.143   6.156  48.479  1.00  0.00     0.020 C 
BRANCH  16  17
HETATM   17  C3  UNL     1      32.178   5.387  47.696  1.00  0.00     0.001 C 
BRANCH  17  18
HETATM   18  C2  UNL     1      31.532   4.111  47.172  1.00  0.00    -0.004 C 
HETATM   19  C1  UNL     1      32.647   3.296  46.532  1.00  0.00     0.005 C 
ENDBRANCH  17  18
ENDBRANCH  16  17
ENDBRANCH  15  16
ENDBRANCH  13  15
ENDBRANCH  12  13
ENDBRANCH  10  11
ENDBRANCH   8   9
ENDBRANCH   1   8
BRANCH   5  20
HETATM   20  C13 UNL     1      27.350  -0.150  53.202  1.00  0.00     0.031 A 
HETATM   21  C14 UNL     1      27.925  -1.280  52.825  1.00  0.00     0.026 A 
HETATM   22  C15 UNL     1      29.237  -1.384  53.461  1.00  0.00    -0.001 A 
HETATM   23  C16 UNL     1      29.436  -0.297  54.225  1.00  0.00    -0.016 A 
HETATM   24  C17 UNL     1      28.255   0.579  54.126  1.00  0.00     0.055 A 
HETATM   25  C18 UNL     1      28.618   1.938  53.623  1.00  0.00     0.020 C 
ENDBRANCH   5  20
TORSDOF 9
ENDMDL
MODEL 5
REMARK VINA RESULT:      -6.1      1.616      5.449
REMARK  9 active torsions:
REMARK  status: ('A' for Active; 'I' for Inactive)
REMARK    1  A    between atoms: C2_2  and  C3_3 
REMARK    2  A    between atoms: C3_3  and  C4_4 
REMARK    3  A    between atoms: C4_4  and  C5_5 
REMARK    4  A    between atoms: C5_5  and  N1_6 
REMARK    5  A    between atoms: N1_6  and  C6_7 
REMARK    6  A    between atoms: C7_8  and  N2_9 
REMARK    7  A    between atoms: C8_10  and  C9_11 
REMARK    8  A    between atoms: C9_11  and  C10_12 
REMARK    9  A    between atoms: N4_16  and  C13_17 
ROOT
HETATM    1  C10 UNL     1      21.573   4.053  50.067  1.00  0.00     0.202 C 
HETATM    2  N3  UNL     1      21.163   4.332  51.401  1.00  0.00    -0.282 NA
HETATM    3  C11 UNL     1      22.084   4.649  52.242  1.00  0.00     0.106 C 
HETATM    4  C12 UNL     1      23.542   4.750  51.964  1.00  0.00     0.189 C 
HETATM    5  N4  UNL     1      23.851   4.226  50.649  1.00  0.00    -0.309 N 
HETATM    6  N5  UNL     1      22.872   3.402  50.085  1.00  0.00    -0.212 NA
HETATM    7  H29 UNL     1      22.843   2.460  50.534  1.00  0.00     0.149 HD
ENDROOT
BRANCH   1   8
HETATM    8  C9  UNL     1      20.612   3.116  49.407  1.00  0.00     0.091 C 
BRANCH   8   9
HETATM    9  C8  UNL     1      21.307   1.811  49.189  1.00  0.00     0.092 C 
HETATM   10  N2  UNL     1      21.488   0.675  49.786  1.00  0.00    -0.276 NA
BRANCH  10  11
HETATM   11  C7  UNL     1      20.865   0.529  51.056  1.00  0.00     0.132 C 
HETATM   12  C6  UNL     1      21.703   0.652  52.074  1.00  0.00     0.102 C 
BRANCH  12  13
HETATM   13  N1  UNL     1      23.083   0.906  51.852  1.00  0.00    -0.398 N 
HETATM   14  H12 UNL     1      23.502   0.903  50.873  1.00  0.00     0.158 HD
BRANCH  13  15
HETATM   15  C5  UNL     1      23.975   1.180  52.963  1.00  0.00     0.119 C 
BRANCH  15  16
HETATM   16  C4  UNL     1      24.565  -0.140  53.424  1.00  0.00     0.020 C 
BRANCH  16  17
HETATM   17  C3  UNL     1      25.831   0.069  54.219  1.00  0.00     0.001 C 
BRANCH  17  18
HETATM   18  C2  UNL     1      27.019  -0.145  53.291  1.00  0.00    -0.004 C 
HETATM   19  C1  UNL     1      26.704  -1.387  52.469  1.00  0.00     0.005 C 
ENDBRANCH  17  18
ENDBRANCH  16  17
ENDBRANCH  15  16
ENDBRANCH  13  15
ENDBRANCH  12  13
ENDBRANCH  10  11
ENDBRANCH   8   9
ENDBRANCH   1   8
BRANCH   5  20
HETATM   20  C13 UNL     1      25.061   4.519  49.965  1.00  0.00     0.031 A 
HETATM   21  C14 UNL     1      25.434   5.703  49.510  1.00  0.00     0.026 A 
HETATM   22  C15 UNL     1      26.742   5.578  48.870  1.00  0.00    -0.001 A 
HETATM   23  C16 UNL     1      27.144   4.299  48.949  1.00  0.00    -0.016 A 
HETATM   24  C17 UNL     1      26.111   3.517  49.652  1.00  0.00     0.055 A 
HETATM   25  C18 UNL     1      26.658   2.854  50.874  1.00  0.00     0.020 C 
ENDBRANCH   5  20
TORSDOF 9
ENDMDL
MODEL 6
REMARK VINA RESULT:      -6.1      2.050      2.714
REMARK  9 active torsions:
REMARK  status: ('A' for Active; 'I' for Inactive)
REMARK    1  A    between atoms: C2_2  and  C3_3 
REMARK    2  A    between atoms: C3_3  and  C4_4 
REMARK    3  A    between atoms: C4_4  and  C5_5 
REMARK    4  A    between atoms: C5_5  and  N1_6 
REMARK    5  A    between atoms: N1_6  and  C6_7 
REMARK    6  A    between atoms: C7_8  and  N2_9 
REMARK    7  A    between atoms: C8_10  and  C9_11 
REMARK    8  A    between atoms: C9_11  and  C10_12 
REMARK    9  A    between atoms: N4_16  and  C13_17 
ROOT
HETATM    1  C10 UNL     1      23.109   1.797  52.722  1.00  0.00     0.202 C 
HETATM    2  N3  UNL     1      22.016   0.908  52.920  1.00  0.00    -0.282 NA
HETATM    3  C11 UNL     1      22.295  -0.287  53.308  1.00  0.00     0.106 C 
HETATM    4  C12 UNL     1      23.651  -0.838  53.572  1.00  0.00     0.189 C 
HETATM    5  N4  UNL     1      24.675   0.081  53.119  1.00  0.00    -0.309 N 
HETATM    6  N5  UNL     1      24.250   1.057  52.213  1.00  0.00    -0.212 NA
HETATM    7  H29 UNL     1      24.081   0.663  51.260  1.00  0.00     0.149 HD
ENDROOT
BRANCH   1   8
HETATM    8  C9  UNL     1      22.762   2.840  51.708  1.00  0.00     0.091 C 
BRANCH   8   9
HETATM    9  C8  UNL     1      22.905   4.181  52.351  1.00  0.00     0.092 C 
HETATM   10  N2  UNL     1      22.566   5.417  52.150  1.00  0.00    -0.276 NA
BRANCH  10  11
HETATM   11  C7  UNL     1      21.816   5.675  50.969  1.00  0.00     0.132 C 
HETATM   12  C6  UNL     1      22.107   6.835  50.401  1.00  0.00     0.102 C 
BRANCH  12  13
HETATM   13  N1  UNL     1      23.086   7.696  50.966  1.00  0.00    -0.398 N 
HETATM   14  H12 UNL     1      23.004   8.056  51.965  1.00  0.00     0.158 HD
BRANCH  13  15
HETATM   15  C5  UNL     1      24.239   8.117  50.194  1.00  0.00     0.119 C 
BRANCH  15  16
HETATM   16  C4  UNL     1      25.356   7.120  50.441  1.00  0.00     0.020 C 
BRANCH  16  17
HETATM   17  C3  UNL     1      25.550   6.203  49.259  1.00  0.00     0.001 C 
BRANCH  17  18
HETATM   18  C2  UNL     1      25.713   4.780  49.778  1.00  0.00    -0.004 C 
HETATM   19  C1  UNL     1      26.989   4.238  49.150  1.00  0.00     0.005 C 
ENDBRANCH  17  18
ENDBRANCH  16  17
ENDBRANCH  15  16
ENDBRANCH  13  15
ENDBRANCH  12  13
ENDBRANCH  10  11
ENDBRANCH   8   9
ENDBRANCH   1   8
BRANCH   5  20
HETATM   20  C13 UNL     1      26.025   0.011  53.558  1.00  0.00     0.031 A 
HETATM   21  C14 UNL     1      26.491   0.434  54.720  1.00  0.00     0.026 A 
HETATM   22  C15 UNL     1      27.929   0.178  54.779  1.00  0.00    -0.001 A 
HETATM   23  C16 UNL     1      28.314  -0.404  53.632  1.00  0.00    -0.016 A 
HETATM   24  C17 UNL     1      27.138  -0.561  52.758  1.00  0.00     0.055 A 
HETATM   25  C18 UNL     1      26.909  -1.991  52.392  1.00  0.00     0.020 C 
ENDBRANCH   5  20
TORSDOF 9
ENDMDL
MODEL 7
REMARK VINA RESULT:      -6.1      1.672      4.537
REMARK  9 active torsions:
REMARK  status: ('A' for Active; 'I' for Inactive)
REMARK    1  A    between atoms: C2_2  and  C3_3 
REMARK    2  A    between atoms: C3_3  and  C4_4 
REMARK    3  A    between atoms: C4_4  and  C5_5 
REMARK    4  A    between atoms: C5_5  and  N1_6 
REMARK    5  A    between atoms: N1_6  and  C6_7 
REMARK    6  A    between atoms: C7_8  and  N2_9 
REMARK    7  A    between atoms: C8_10  and  C9_11 
REMARK    8  A    between atoms: C9_11  and  C10_12 
REMARK    9  A    between atoms: N4_16  and  C13_17 
ROOT
HETATM    1  C10 UNL     1      21.042   3.157  51.554  1.00  0.00     0.202 C 
HETATM    2  N3  UNL     1      20.610   2.833  50.237  1.00  0.00    -0.282 NA
HETATM    3  C11 UNL     1      20.842   1.638  49.822  1.00  0.00     0.106 C 
HETATM    4  C12 UNL     1      21.522   0.553  50.580  1.00  0.00     0.189 C 
HETATM    5  N4  UNL     1      22.109   1.070  51.800  1.00  0.00    -0.309 N 
HETATM    6  N5  UNL     1      22.280   2.457  51.844  1.00  0.00    -0.212 NA
HETATM    7  H29 UNL     1      23.073   2.775  51.243  1.00  0.00     0.149 HD
ENDROOT
BRANCH   1   8
HETATM    8  C9  UNL     1      21.317   4.623  51.672  1.00  0.00     0.091 C 
BRANCH   8   9
HETATM    9  C8  UNL     1      22.738   4.797  52.100  1.00  0.00     0.092 C 
HETATM   10  N2  UNL     1      23.904   5.039  51.586  1.00  0.00    -0.276 NA
BRANCH  10  11
HETATM   11  C7  UNL     1      23.942   5.208  50.175  1.00  0.00     0.132 C 
HETATM   12  C6  UNL     1      25.086   4.828  49.626  1.00  0.00     0.102 C 
BRANCH  12  13
HETATM   13  N1  UNL     1      26.138   4.308  50.428  1.00  0.00    -0.398 N 
HETATM   14  H12 UNL     1      26.677   4.922  51.110  1.00  0.00     0.158 HD
BRANCH  13  15
HETATM   15  C5  UNL     1      26.515   2.910  50.341  1.00  0.00     0.119 C 
BRANCH  15  16
HETATM   16  C4  UNL     1      26.706   2.389  51.753  1.00  0.00     0.020 C 
BRANCH  16  17
HETATM   17  C3  UNL     1      26.741   0.881  51.785  1.00  0.00     0.001 C 
BRANCH  17  18
HETATM   18  C2  UNL     1      27.303   0.443  53.131  1.00  0.00    -0.004 C 
HETATM   19  C1  UNL     1      27.725  -1.010  52.969  1.00  0.00     0.005 C 
ENDBRANCH  17  18
ENDBRANCH  16  17
ENDBRANCH  15  16
ENDBRANCH  13  15
ENDBRANCH  12  13
ENDBRANCH  10  11
ENDBRANCH   8   9
ENDBRANCH   1   8
BRANCH   5  20
HETATM   20  C13 UNL     1      22.488   0.238  52.887  1.00  0.00     0.031 A 
HETATM   21  C14 UNL     1      23.725  -0.027  53.273  1.00  0.00     0.026 A 
HETATM   22  C15 UNL     1      23.684  -0.922  54.428  1.00  0.00    -0.001 A 
HETATM   23  C16 UNL     1      22.402  -1.188  54.725  1.00  0.00    -0.016 A 
HETATM   24  C17 UNL     1      21.532  -0.475  53.772  1.00  0.00     0.055 A 
HETATM   25  C18 UNL     1      20.593   0.453  54.471  1.00  0.00     0.020 C 
ENDBRANCH   5  20
TORSDOF 9
ENDMDL
MODEL 8
REMARK VINA RESULT:      -6.0      1.155      1.666
REMARK  9 active torsions:
REMARK  status: ('A' for Active; 'I' for Inactive)
REMARK    1  A    between atoms: C2_2  and  C3_3 
REMARK    2  A    between atoms: C3_3  and  C4_4 
REMARK    3  A    between atoms: C4_4  and  C5_5 
REMARK    4  A    between atoms: C5_5  and  N1_6 
REMARK    5  A    between atoms: N1_6  and  C6_7 
REMARK    6  A    between atoms: C7_8  and  N2_9 
REMARK    7  A    between atoms: C8_10  and  C9_11 
REMARK    8  A    between atoms: C9_11  and  C10_12 
REMARK    9  A    between atoms: N4_16  and  C13_17 
ROOT
HETATM    1  C10 UNL     1      22.596   0.657  53.446  1.00  0.00     0.202 C 
HETATM    2  N3  UNL     1      21.769  -0.155  54.271  1.00  0.00    -0.282 NA
HETATM    3  C11 UNL     1      22.357  -1.030  55.010  1.00  0.00     0.106 C 
HETATM    4  C12 UNL     1      23.821  -1.283  55.088  1.00  0.00     0.189 C 
HETATM    5  N4  UNL     1      24.523  -0.561  54.047  1.00  0.00    -0.309 N 
HETATM    6  N5  UNL     1      23.731  -0.121  52.981  1.00  0.00    -0.212 NA
HETATM    7  H29 UNL     1      23.450  -0.904  52.350  1.00  0.00     0.149 HD
ENDROOT
BRANCH   1   8
HETATM    8  C9  UNL     1      21.844   1.118  52.238  1.00  0.00     0.091 C 
BRANCH   8   9
HETATM    9  C8  UNL     1      22.791   1.863  51.355  1.00  0.00     0.092 C 
HETATM   10  N2  UNL     1      23.369   3.021  51.278  1.00  0.00    -0.276 NA
BRANCH  10  11
HETATM   11  C7  UNL     1      23.070   3.940  52.321  1.00  0.00     0.132 C 
HETATM   12  C6  UNL     1      23.658   5.117  52.174  1.00  0.00     0.102 C 
BRANCH  12  13
HETATM   13  N1  UNL     1      24.499   5.376  51.058  1.00  0.00    -0.398 N 
HETATM   14  H12 UNL     1      25.544   5.177  51.087  1.00  0.00     0.158 HD
BRANCH  13  15
HETATM   15  C5  UNL     1      23.954   5.923  49.831  1.00  0.00     0.119 C 
BRANCH  15  16
HETATM   16  C4  UNL     1      25.053   5.907  48.784  1.00  0.00     0.020 C 
BRANCH  16  17
HETATM   17  C3  UNL     1      26.272   6.666  49.250  1.00  0.00     0.001 C 
BRANCH  17  18
HETATM   18  C2  UNL     1      27.458   6.239  48.396  1.00  0.00    -0.004 C 
HETATM   19  C1  UNL     1      27.656   4.751  48.649  1.00  0.00     0.005 C 
ENDBRANCH  17  18
ENDBRANCH  16  17
ENDBRANCH  15  16
ENDBRANCH  13  15
ENDBRANCH  12  13
ENDBRANCH  10  11
ENDBRANCH   8   9
ENDBRANCH   1   8
BRANCH   5  20
HETATM   20  C13 UNL     1      25.920  -0.307  54.089  1.00  0.00     0.031 A 
HETATM   21  C14 UNL     1      26.599   0.153  55.126  1.00  0.00     0.026 A 
HETATM   22  C15 UNL     1      28.009   0.272  54.759  1.00  0.00    -0.001 A 
HETATM   23  C16 UNL     1      28.161  -0.123  53.485  1.00  0.00    -0.016 A 
HETATM   24  C17 UNL     1      26.847  -0.525  52.950  1.00  0.00     0.055 A 
HETATM   25  C18 UNL     1      26.855  -1.942  52.477  1.00  0.00     0.020 C 
ENDBRANCH   5  20
TORSDOF 9
ENDMDL
MODEL 9
REMARK VINA RESULT:      -6.0      1.875      4.866
REMARK  9 active torsions:
REMARK  status: ('A' for Active; 'I' for Inactive)
REMARK    1  A    between atoms: C2_2  and  C3_3 
REMARK    2  A    between atoms: C3_3  and  C4_4 
REMARK    3  A    between atoms: C4_4  and  C5_5 
REMARK    4  A    between atoms: C5_5  and  N1_6 
REMARK    5  A    between atoms: N1_6  and  C6_7 
REMARK    6  A    between atoms: C7_8  and  N2_9 
REMARK    7  A    between atoms: C8_10  and  C9_11 
REMARK    8  A    between atoms: C9_11  and  C10_12 
REMARK    9  A    between atoms: N4_16  and  C13_17 
ROOT
HETATM    1  C10 UNL     1      25.224   3.670  50.805  1.00  0.00     0.202 C 
HETATM    2  N3  UNL     1      24.096   4.122  51.546  1.00  0.00    -0.282 NA
HETATM    3  C11 UNL     1      23.927   3.621  52.718  1.00  0.00     0.106 C 
HETATM    4  C12 UNL     1      24.792   2.609  53.383  1.00  0.00     0.189 C 
HETATM    5  N4  UNL     1      25.759   2.069  52.450  1.00  0.00    -0.309 N 
HETATM    6  N5  UNL     1      25.466   2.268  51.097  1.00  0.00    -0.212 NA
HETATM    7  H29 UNL     1      24.693   1.649  50.766  1.00  0.00     0.149 HD
ENDROOT
BRANCH   1   8
HETATM    8  C9  UNL     1      24.968   3.783  49.335  1.00  0.00     0.091 C 
BRANCH   8   9
HETATM    9  C8  UNL     1      23.528   4.129  49.138  1.00  0.00     0.092 C 
HETATM   10  N2  UNL     1      22.393   3.547  48.901  1.00  0.00    -0.276 NA
BRANCH  10  11
HETATM   11  C7  UNL     1      22.432   2.132  48.773  1.00  0.00     0.132 C 
HETATM   12  C6  UNL     1      21.868   1.493  49.787  1.00  0.00     0.102 C 
BRANCH  12  13
HETATM   13  N1  UNL     1      21.296   2.213  50.871  1.00  0.00    -0.398 N 
HETATM   14  H12 UNL     1      21.036   3.242  50.784  1.00  0.00     0.158 HD
BRANCH  13  15
HETATM   15  C5  UNL     1      21.045   1.563  52.143  1.00  0.00     0.119 C 
BRANCH  15  16
HETATM   16  C4  UNL     1      21.409   0.096  51.998  1.00  0.00     0.020 C 
BRANCH  16  17
HETATM   17  C3  UNL     1      22.486  -0.305  52.975  1.00  0.00     0.001 C 
BRANCH  17  18
HETATM   18  C2  UNL     1      21.929  -1.394  53.882  1.00  0.00    -0.004 C 
HETATM   19  C1  UNL     1      22.707  -1.306  55.187  1.00  0.00     0.005 C 
ENDBRANCH  17  18
ENDBRANCH  16  17
ENDBRANCH  15  16
ENDBRANCH  13  15
ENDBRANCH  12  13
ENDBRANCH  10  11
ENDBRANCH   8   9
ENDBRANCH   1   8
BRANCH   5  20
HETATM   20  C13 UNL     1      26.932   1.381  52.863  1.00  0.00     0.031 A 
HETATM   21  C14 UNL     1      27.985   1.919  53.454  1.00  0.00     0.026 A 
HETATM   22  C15 UNL     1      28.973   0.874  53.715  1.00  0.00    -0.001 A 
HETATM   23  C16 UNL     1      28.492  -0.298  53.269  1.00  0.00    -0.016 A 
HETATM   24  C17 UNL     1      27.155  -0.077  52.690  1.00  0.00     0.055 A 
HETATM   25  C18 UNL     1      26.115  -0.904  53.373  1.00  0.00     0.020 C 
ENDBRANCH   5  20
TORSDOF 9
ENDMDL
