MODEL 1
REMARK VINA RESULT:      -9.1      0.000      0.000
REMARK  8 active torsions:
REMARK  status: ('A' for Active; 'I' for Inactive)
REMARK    1  A    between atoms: C3_3  and  C4_4 
REMARK    2  A    between atoms: S1_5  and  C7_8 
REMARK    3  A    between atoms: C7_8  and  C8_9 
REMARK    4  A    between atoms: C7_8  and  N2_26 
REMARK       I    between atoms: C8_9  and  N1_11 
REMARK    5  A    between atoms: N1_11  and  C9_12 
REMARK    6  A    between atoms: C13_16  and  C14_17 
REMARK    7  A    between atoms: C14_17  and  O2_18 
REMARK    8  A    between atoms: C14_17  and  C15_19 
ROOT
HETATM    1  C9  UNL     1      24.154   2.514  52.133  1.00  0.00     0.035 A 
HETATM    2  C10 UNL     1      24.281   2.846  50.778  1.00  0.00     0.029 A 
HETATM    3  C11 UNL     1      25.496   2.949  50.141  1.00  0.00     0.003 A 
HETATM    4  C12 UNL     1      26.584   2.700  50.939  1.00  0.00     0.010 A 
HETATM    5  C13 UNL     1      26.541   2.368  52.276  1.00  0.00    -0.023 A 
HETATM    6  C21 UNL     1      25.298   2.278  52.866  1.00  0.00     0.039 A 
ENDROOT
BRANCH   1   7
HETATM    7  N1  UNL     1      22.866   2.436  52.672  1.00  0.00    -0.324 N 
HETATM    8  C8  UNL     1      22.375   1.008  52.570  1.00  0.00     0.269 C 
HETATM    9  O1  UNL     1      23.562   0.962  52.051  1.00  0.00    -0.269 OA
HETATM   10  H10 UNL     1      22.103   3.048  53.140  1.00  0.00     0.169 HD
BRANCH   8  11
HETATM   11  C7  UNL     1      21.019   0.203  52.976  1.00  0.00     0.265 A 
HETATM   12  C6  UNL     1      21.822  -0.124  54.073  1.00  0.00     0.104 A 
HETATM   13  C5  UNL     1      20.808  -0.171  53.456  1.00  0.00     0.240 A 
HETATM   14  S1  UNL     1      19.618  -0.207  52.714  1.00  0.00    -0.064 SA
HETATM   15  N2  UNL     1      19.496  -0.210  52.635  1.00  0.00     0.006 N 
HETATM   16  C4  UNL     1      18.200  -0.273  51.878  1.00  0.00     0.080 A 
HETATM   17  H8  UNL     1      17.395  -0.244  51.262  1.00  0.00     0.116 HD
HETATM   18  C22 UNL     1      19.887   0.595  51.289  1.00  0.00     0.336 A 
BRANCH  16  19
HETATM   19  C3  UNL     1      17.095  -0.920  52.853  1.00  0.00    -0.025 C 
HETATM   20  C2  UNL     1      15.971  -1.473  52.437  1.00  0.00    -0.034 C 
HETATM   21  C1  UNL     1      15.453  -1.638  51.063  1.00  0.00     0.036 C 
ENDBRANCH  16  19
ENDBRANCH   8  11
ENDBRANCH   1   7
BRANCH   5  22
HETATM   22  C14 UNL     1      27.835   2.128  52.997  1.00  0.00     0.184 C 
BRANCH  22  23
HETATM   23  O2  UNL     1      27.765   2.779  54.212  1.00  0.00    -0.386 OA
HETATM   24  H15 UNL     1      26.829   2.751  54.527  1.00  0.00     0.210 HD
ENDBRANCH  22  23
BRANCH  22  25
HETATM   25  C15 UNL     1      28.159   0.701  53.074  1.00  0.00    -0.025 A 
HETATM   26  C16 UNL     1      27.280  -0.298  52.692  1.00  0.00     0.010 A 
HETATM   27  C17 UNL     1      27.637  -1.619  52.787  1.00  0.00     0.001 A 
HETATM   28  C18 UNL     1      28.880  -1.984  53.263  1.00  0.00     0.000 A 
HETATM   29  C19 UNL     1      29.805  -1.041  53.661  1.00  0.00     0.001 A 
HETATM   30  C20 UNL     1      29.403   0.282  53.548  1.00  0.00     0.010 A 
ENDBRANCH  22  25
ENDBRANCH   5  22
TORSDOF 8
ENDMDL
MODEL 2
REMARK VINA RESULT:      -9.1      1.063      1.818
REMARK  8 active torsions:
REMARK  status: ('A' for Active; 'I' for Inactive)
REMARK    1  A    between atoms: C3_3  and  C4_4 
REMARK    2  A    between atoms: S1_5  and  C7_8 
REMARK    3  A    between atoms: C7_8  and  C8_9 
REMARK    4  A    between atoms: C7_8  and  N2_26 
REMARK       I    between atoms: C8_9  and  N1_11 
REMARK    5  A    between atoms: N1_11  and  C9_12 
REMARK    6  A    between atoms: C13_16  and  C14_17 
REMARK    7  A    between atoms: C14_17  and  O2_18 
REMARK    8  A    between atoms: C14_17  and  C15_19 
ROOT
HETATM    1  C9  UNL     1      24.141   2.386  51.988  1.00  0.00     0.035 A 
HETATM    2  C10 UNL     1      24.764   2.773  50.794  1.00  0.00     0.029 A 
HETATM    3  C11 UNL     1      26.121   2.678  50.592  1.00  0.00     0.003 A 
HETATM    4  C12 UNL     1      26.825   2.172  51.655  1.00  0.00     0.010 A 
HETATM    5  C13 UNL     1      26.286   1.771  52.858  1.00  0.00    -0.023 A 
HETATM    6  C21 UNL     1      24.920   1.886  53.009  1.00  0.00     0.039 A 
ENDROOT
BRANCH   1   7
HETATM    7  N1  UNL     1      22.752   2.526  52.078  1.00  0.00    -0.324 N 
HETATM    8  C8  UNL     1      22.099   1.220  51.681  1.00  0.00     0.269 C 
HETATM    9  O1  UNL     1      23.366   0.977  51.564  1.00  0.00    -0.269 OA
HETATM   10  H10 UNL     1      21.987   3.249  52.340  1.00  0.00     0.169 HD
BRANCH   8  11
HETATM   11  C7  UNL     1      20.573   0.665  51.551  1.00  0.00     0.265 A 
HETATM   12  C6  UNL     1      20.749   1.168  50.258  1.00  0.00     0.104 A 
HETATM   13  C5  UNL     1      20.110   0.632  51.105  1.00  0.00     0.240 A 
HETATM   14  S1  UNL     1      19.377  -0.005  52.117  1.00  0.00    -0.064 SA
HETATM   15  N2  UNL     1      19.302  -0.069  52.224  1.00  0.00     0.006 N 
HETATM   16  C4  UNL     1      18.481  -0.761  53.274  1.00  0.00     0.080 A 
HETATM   17  H8  UNL     1      18.035  -1.196  54.074  1.00  0.00     0.116 HD
HETATM   18  C22 UNL     1      20.286   0.038  53.502  1.00  0.00     0.336 A 
BRANCH  16  19
HETATM   19  C3  UNL     1      17.186  -1.386  52.550  1.00  0.00    -0.025 C 
HETATM   20  C2  UNL     1      16.732  -2.606  52.767  1.00  0.00    -0.034 C 
HETATM   21  C1  UNL     1      17.247  -3.659  53.666  1.00  0.00     0.036 C 
ENDBRANCH  16  19
ENDBRANCH   8  11
ENDBRANCH   1   7
BRANCH   5  22
HETATM   22  C14 UNL     1      27.208   1.238  53.915  1.00  0.00     0.184 C 
BRANCH  22  23
HETATM   23  O2  UNL     1      26.541   1.296  55.122  1.00  0.00    -0.386 OA
HETATM   24  H15 UNL     1      26.754   2.158  55.555  1.00  0.00     0.210 HD
ENDBRANCH  22  23
BRANCH  22  25
HETATM   25  C15 UNL     1      27.740  -0.080  53.561  1.00  0.00    -0.025 A 
HETATM   26  C16 UNL     1      29.064  -0.439  53.750  1.00  0.00     0.010 A 
HETATM   27  C17 UNL     1      29.508  -1.689  53.398  1.00  0.00     0.001 A 
HETATM   28  C18 UNL     1      28.647  -2.617  52.850  1.00  0.00     0.000 A 
HETATM   29  C19 UNL     1      27.315  -2.328  52.634  1.00  0.00     0.001 A 
HETATM   30  C20 UNL     1      26.909  -1.053  53.004  1.00  0.00     0.010 A 
ENDBRANCH  22  25
ENDBRANCH   5  22
TORSDOF 8
ENDMDL
MODEL 3
REMARK VINA RESULT:      -8.7      3.890      7.110
REMARK  8 active torsions:
REMARK  status: ('A' for Active; 'I' for Inactive)
REMARK    1  A    between atoms: C3_3  and  C4_4 
REMARK    2  A    between atoms: S1_5  and  C7_8 
REMARK    3  A    between atoms: C7_8  and  C8_9 
REMARK    4  A    between atoms: C7_8  and  N2_26 
REMARK       I    between atoms: C8_9  and  N1_11 
REMARK    5  A    between atoms: N1_11  and  C9_12 
REMARK    6  A    between atoms: C13_16  and  C14_17 
REMARK    7  A    between atoms: C14_17  and  O2_18 
REMARK    8  A    between atoms: C14_17  and  C15_19 
ROOT
HETATM    1  C9  UNL     1      24.549   2.551  52.369  1.00  0.00     0.035 A 
HETATM    2  C10 UNL     1      23.457   1.794  51.923  1.00  0.00     0.029 A 
HETATM    3  C11 UNL     1      23.190   0.523  52.376  1.00  0.00     0.003 A 
HETATM    4  C12 UNL     1      24.080   0.048  53.306  1.00  0.00     0.010 A 
HETATM    5  C13 UNL     1      25.174   0.730  53.793  1.00  0.00    -0.023 A 
HETATM    6  C21 UNL     1      25.397   2.001  53.306  1.00  0.00     0.039 A 
ENDROOT
BRANCH   1   7
HETATM    7  N1  UNL     1      24.718   3.834  51.838  1.00  0.00    -0.324 N 
HETATM    8  C8  UNL     1      25.568   3.742  50.590  1.00  0.00     0.269 C 
HETATM    9  O1  UNL     1      25.475   2.513  50.989  1.00  0.00    -0.269 OA
HETATM   10  H10 UNL     1      24.444   4.869  52.014  1.00  0.00     0.169 HD
BRANCH   8  11
HETATM   11  C7  UNL     1      26.153   4.792  49.491  1.00  0.00     0.265 A 
HETATM   12  C6  UNL     1      26.971   3.690  49.219  1.00  0.00     0.104 A 
HETATM   13  C5  UNL     1      26.605   4.806  49.033  1.00  0.00     0.240 A 
HETATM   14  S1  UNL     1      26.153   6.118  48.825  1.00  0.00    -0.064 SA
HETATM   15  N2  UNL     1      26.106   6.254  48.806  1.00  0.00     0.006 N 
HETATM   16  C4  UNL     1      25.652   7.661  48.543  1.00  0.00     0.080 A 
HETATM   17  H8  UNL     1      25.262   8.595  48.483  1.00  0.00     0.116 HD
HETATM   18  C22 UNL     1      25.021   6.451  49.988  1.00  0.00     0.336 A 
BRANCH  16  19
HETATM   19  C3  UNL     1      26.323   8.142  47.161  1.00  0.00    -0.025 C 
HETATM   20  C2  UNL     1      25.654   8.338  46.041  1.00  0.00    -0.034 C 
HETATM   21  C1  UNL     1      24.211   8.181  45.764  1.00  0.00     0.036 C 
ENDBRANCH  16  19
ENDBRANCH   8  11
ENDBRANCH   1   7
BRANCH   5  22
HETATM   22  C14 UNL     1      26.045   0.054  54.812  1.00  0.00     0.184 C 
BRANCH  22  23
HETATM   23  O2  UNL     1      25.370  -1.061  55.266  1.00  0.00    -0.386 OA
HETATM   24  H15 UNL     1      25.980  -1.837  55.212  1.00  0.00     0.210 HD
ENDBRANCH  22  23
BRANCH  22  25
HETATM   25  C15 UNL     1      27.392  -0.201  54.295  1.00  0.00    -0.025 A 
HETATM   26  C16 UNL     1      28.473   0.623  54.560  1.00  0.00     0.010 A 
HETATM   27  C17 UNL     1      29.713   0.336  54.048  1.00  0.00     0.001 A 
HETATM   28  C18 UNL     1      29.913  -0.779  53.260  1.00  0.00     0.000 A 
HETATM   29  C19 UNL     1      28.881  -1.643  52.957  1.00  0.00     0.001 A 
HETATM   30  C20 UNL     1      27.644  -1.315  53.495  1.00  0.00     0.010 A 
ENDBRANCH  22  25
ENDBRANCH   5  22
TORSDOF 8
ENDMDL
MODEL 4
REMARK VINA RESULT:      -8.5      4.747      8.741
REMARK  8 active torsions:
REMARK  status: ('A' for Active; 'I' for Inactive)
REMARK    1  A    between atoms: C3_3  and  C4_4 
REMARK    2  A    between atoms: S1_5  and  C7_8 
REMARK    3  A    between atoms: C7_8  and  C8_9 
REMARK    4  A    between atoms: C7_8  and  N2_26 
REMARK       I    between atoms: C8_9  and  N1_11 
REMARK    5  A    between atoms: N1_11  and  C9_12 
REMARK    6  A    between atoms: C13_16  and  C14_17 
REMARK    7  A    between atoms: C14_17  and  O2_18 
REMARK    8  A    between atoms: C14_17  and  C15_19 
ROOT
HETATM    1  C9  UNL     1      26.031   2.726  50.461  1.00  0.00     0.035 A 
HETATM    2  C10 UNL     1      24.641   2.602  50.587  1.00  0.00     0.029 A 
HETATM    3  C11 UNL     1      24.034   2.058  51.696  1.00  0.00     0.003 A 
HETATM    4  C12 UNL     1      24.899   1.644  52.677  1.00  0.00     0.010 A 
HETATM    5  C13 UNL     1      26.274   1.732  52.626  1.00  0.00    -0.023 A 
HETATM    6  C21 UNL     1      26.831   2.285  51.493  1.00  0.00     0.039 A 
ENDROOT
BRANCH   1   7
HETATM    7  N1  UNL     1      26.534   3.298  49.288  1.00  0.00    -0.324 N 
HETATM    8  C8  UNL     1      26.596   4.800  49.460  1.00  0.00     0.269 C 
HETATM    9  O1  UNL     1      26.125   4.381  50.592  1.00  0.00    -0.269 OA
HETATM   10  H10 UNL     1      26.898   3.031  48.301  1.00  0.00     0.169 HD
BRANCH   8  11
HETATM   11  C7  UNL     1      27.058   6.066  48.544  1.00  0.00     0.265 A 
HETATM   12  C6  UNL     1      25.690   6.340  48.649  1.00  0.00     0.104 A 
HETATM   13  C5  UNL     1      26.790   6.581  48.267  1.00  0.00     0.240 A 
HETATM   14  S1  UNL     1      28.096   6.851  47.834  1.00  0.00    -0.064 SA
HETATM   15  N2  UNL     1      28.232   6.876  47.788  1.00  0.00     0.006 N 
HETATM   16  C4  UNL     1      29.616   7.209  47.307  1.00  0.00     0.080 A 
HETATM   17  H8  UNL     1      30.588   7.305  47.035  1.00  0.00     0.116 HD
HETATM   18  C22 UNL     1      29.054   5.581  48.297  1.00  0.00     0.336 A 
BRANCH  16  19
HETATM   19  C3  UNL     1      29.584   8.711  46.727  1.00  0.00    -0.025 C 
HETATM   20  C2  UNL     1      30.115   9.752  47.339  1.00  0.00    -0.034 C 
HETATM   21  C1  UNL     1      30.832   9.826  48.628  1.00  0.00     0.036 C 
ENDBRANCH  16  19
ENDBRANCH   8  11
ENDBRANCH   1   7
BRANCH   5  22
HETATM   22  C14 UNL     1      27.068   1.227  53.795  1.00  0.00     0.184 C 
BRANCH  22  23
HETATM   23  O2  UNL     1      26.245   1.251  54.903  1.00  0.00    -0.386 OA
HETATM   24  H15 UNL     1      26.120   2.192  55.178  1.00  0.00     0.210 HD
ENDBRANCH  22  23
BRANCH  22  25
HETATM   25  C15 UNL     1      27.692  -0.068  53.512  1.00  0.00    -0.025 A 
HETATM   26  C16 UNL     1      29.026  -0.338  53.765  1.00  0.00     0.010 A 
HETATM   27  C17 UNL     1      29.558  -1.569  53.478  1.00  0.00     0.001 A 
HETATM   28  C18 UNL     1      28.777  -2.568  52.932  1.00  0.00     0.000 A 
HETATM   29  C19 UNL     1      27.441  -2.369  52.655  1.00  0.00     0.001 A 
HETATM   30  C20 UNL     1      26.944  -1.109  52.960  1.00  0.00     0.010 A 
ENDBRANCH  22  25
ENDBRANCH   5  22
TORSDOF 8
ENDMDL
MODEL 5
REMARK VINA RESULT:      -8.5      3.952      7.667
REMARK  8 active torsions:
REMARK  status: ('A' for Active; 'I' for Inactive)
REMARK    1  A    between atoms: C3_3  and  C4_4 
REMARK    2  A    between atoms: S1_5  and  C7_8 
REMARK    3  A    between atoms: C7_8  and  C8_9 
REMARK    4  A    between atoms: C7_8  and  N2_26 
REMARK       I    between atoms: C8_9  and  N1_11 
REMARK    5  A    between atoms: N1_11  and  C9_12 
REMARK    6  A    between atoms: C13_16  and  C14_17 
REMARK    7  A    between atoms: C14_17  and  O2_18 
REMARK    8  A    between atoms: C14_17  and  C15_19 
ROOT
HETATM    1  C9  UNL     1      23.893   3.362  52.110  1.00  0.00     0.035 A 
HETATM    2  C10 UNL     1      22.527   3.412  51.803  1.00  0.00     0.029 A 
HETATM    3  C11 UNL     1      21.652   2.396  52.109  1.00  0.00     0.003 A 
HETATM    4  C12 UNL     1      22.221   1.322  52.745  1.00  0.00     0.010 A 
HETATM    5  C13 UNL     1      23.552   1.199  53.080  1.00  0.00    -0.023 A 
HETATM    6  C21 UNL     1      24.387   2.246  52.750  1.00  0.00     0.039 A 
ENDROOT
BRANCH   1   7
HETATM    7  N1  UNL     1      24.686   4.457  51.751  1.00  0.00    -0.324 N 
HETATM    8  C8  UNL     1      25.282   4.206  50.384  1.00  0.00     0.269 C 
HETATM    9  O1  UNL     1      24.575   3.144  50.609  1.00  0.00    -0.269 OA
HETATM   10  H10 UNL     1      25.014   5.424  52.117  1.00  0.00     0.169 HD
BRANCH   8  11
HETATM   11  C7  UNL     1      26.271   5.012  49.370  1.00  0.00     0.265 A 
HETATM   12  C6  UNL     1      26.852   3.742  49.301  1.00  0.00     0.104 A 
HETATM   13  C5  UNL     1      26.786   4.891  49.004  1.00  0.00     0.240 A 
HETATM   14  S1  UNL     1      26.685   6.247  48.661  1.00  0.00    -0.064 SA
HETATM   15  N2  UNL     1      26.674   6.388  48.628  1.00  0.00     0.006 N 
HETATM   16  C4  UNL     1      26.602   7.834  48.227  1.00  0.00     0.080 A 
HETATM   17  H8  UNL     1      26.449   8.822  48.056  1.00  0.00     0.116 HD
HETATM   18  C22 UNL     1      25.475   6.911  49.578  1.00  0.00     0.336 A 
BRANCH  16  19
HETATM   19  C3  UNL     1      27.592   8.044  46.975  1.00  0.00    -0.025 C 
HETATM   20  C2  UNL     1      27.213   8.510  45.800  1.00  0.00    -0.034 C 
HETATM   21  C1  UNL     1      25.875   8.935  45.340  1.00  0.00     0.036 C 
ENDBRANCH  16  19
ENDBRANCH   8  11
ENDBRANCH   1   7
BRANCH   5  22
HETATM   22  C14 UNL     1      24.004  -0.051  53.776  1.00  0.00     0.184 C 
BRANCH  22  23
HETATM   23  O2  UNL     1      23.270  -1.103  53.267  1.00  0.00    -0.386 OA
HETATM   24  H15 UNL     1      22.648  -0.748  52.585  1.00  0.00     0.210 HD
ENDBRANCH  22  23
BRANCH  22  25
HETATM   25  C15 UNL     1      25.459  -0.218  53.708  1.00  0.00    -0.025 A 
HETATM   26  C16 UNL     1      26.099  -0.867  52.666  1.00  0.00     0.010 A 
HETATM   27  C17 UNL     1      27.465  -0.994  52.654  1.00  0.00     0.001 A 
HETATM   28  C18 UNL     1      28.232  -0.479  53.679  1.00  0.00     0.000 A 
HETATM   29  C19 UNL     1      27.661   0.180  54.748  1.00  0.00     0.001 A 
HETATM   30  C20 UNL     1      26.277   0.286  54.719  1.00  0.00     0.010 A 
ENDBRANCH  22  25
ENDBRANCH   5  22
TORSDOF 8
ENDMDL
MODEL 6
REMARK VINA RESULT:      -8.4      1.821      2.367
REMARK  8 active torsions:
REMARK  status: ('A' for Active; 'I' for Inactive)
REMARK    1  A    between atoms: C3_3  and  C4_4 
REMARK    2  A    between atoms: S1_5  and  C7_8 
REMARK    3  A    between atoms: C7_8  and  C8_9 
REMARK    4  A    between atoms: C7_8  and  N2_26 
REMARK       I    between atoms: C8_9  and  N1_11 
REMARK    5  A    between atoms: N1_11  and  C9_12 
REMARK    6  A    between atoms: C13_16  and  C14_17 
REMARK    7  A    between atoms: C14_17  and  O2_18 
REMARK    8  A    between atoms: C14_17  and  C15_19 
ROOT
HETATM    1  C9  UNL     1      23.310   0.535  52.502  1.00  0.00     0.035 A 
HETATM    2  C10 UNL     1      23.570   1.822  52.012  1.00  0.00     0.029 A 
HETATM    3  C11 UNL     1      24.632   2.586  52.436  1.00  0.00     0.003 A 
HETATM    4  C12 UNL     1      25.425   1.989  53.382  1.00  0.00     0.010 A 
HETATM    5  C13 UNL     1      25.236   0.731  53.913  1.00  0.00    -0.023 A 
HETATM    6  C21 UNL     1      24.156   0.006  53.453  1.00  0.00     0.039 A 
ENDROOT
BRANCH   1   7
HETATM    7  N1  UNL     1      22.201  -0.149  51.994  1.00  0.00    -0.324 N 
HETATM    8  C8  UNL     1      21.058  -0.033  52.978  1.00  0.00     0.269 C 
HETATM    9  O1  UNL     1      22.017   0.631  53.543  1.00  0.00    -0.269 OA
HETATM   10  H10 UNL     1      21.881  -0.729  51.135  1.00  0.00     0.169 HD
BRANCH   8  11
HETATM   11  C7  UNL     1      19.518  -0.559  53.054  1.00  0.00     0.265 A 
HETATM   12  C6  UNL     1      20.097  -1.394  54.015  1.00  0.00     0.104 A 
HETATM   13  C5  UNL     1      19.175  -0.996  53.379  1.00  0.00     0.240 A 
HETATM   14  S1  UNL     1      18.100  -0.507  52.622  1.00  0.00    -0.064 SA
HETATM   15  N2  UNL     1      17.990  -0.456  52.542  1.00  0.00     0.006 N 
HETATM   16  C4  UNL     1      16.808   0.040  51.759  1.00  0.00     0.080 A 
HETATM   17  H8  UNL     1      16.105   0.453  51.156  1.00  0.00     0.116 HD
HETATM   18  C22 UNL     1      18.703   0.597  51.543  1.00  0.00     0.336 A 
BRANCH  16  19
HETATM   19  C3  UNL     1      15.482  -0.577  52.432  1.00  0.00    -0.025 C 
HETATM   20  C2  UNL     1      14.487   0.147  52.907  1.00  0.00    -0.034 C 
HETATM   21  C1  UNL     1      14.324   1.615  52.952  1.00  0.00     0.036 C 
ENDBRANCH  16  19
ENDBRANCH   8  11
ENDBRANCH   1   7
BRANCH   5  22
HETATM   22  C14 UNL     1      26.206   0.234  54.944  1.00  0.00     0.184 C 
BRANCH  22  23
HETATM   23  O2  UNL     1      25.595  -0.794  55.634  1.00  0.00    -0.386 OA
HETATM   24  H15 UNL     1      24.791  -0.434  56.081  1.00  0.00     0.210 HD
ENDBRANCH  22  23
BRANCH  22  25
HETATM   25  C15 UNL     1      27.506  -0.098  54.355  1.00  0.00    -0.025 A 
HETATM   26  C16 UNL     1      28.635   0.687  54.519  1.00  0.00     0.010 A 
HETATM   27  C17 UNL     1      29.826   0.328  53.943  1.00  0.00     0.001 A 
HETATM   28  C18 UNL     1      29.930  -0.824  53.189  1.00  0.00     0.000 A 
HETATM   29  C19 UNL     1      28.846  -1.653  52.985  1.00  0.00     0.001 A 
HETATM   30  C20 UNL     1      27.661  -1.252  53.586  1.00  0.00     0.010 A 
ENDBRANCH  22  25
ENDBRANCH   5  22
TORSDOF 8
ENDMDL
MODEL 7
REMARK VINA RESULT:      -8.4      3.715      7.853
REMARK  8 active torsions:
REMARK  status: ('A' for Active; 'I' for Inactive)
REMARK    1  A    between atoms: C3_3  and  C4_4 
REMARK    2  A    between atoms: S1_5  and  C7_8 
REMARK    3  A    between atoms: C7_8  and  C8_9 
REMARK    4  A    between atoms: C7_8  and  N2_26 
REMARK       I    between atoms: C8_9  and  N1_11 
REMARK    5  A    between atoms: N1_11  and  C9_12 
REMARK    6  A    between atoms: C13_16  and  C14_17 
REMARK    7  A    between atoms: C14_17  and  O2_18 
REMARK    8  A    between atoms: C14_17  and  C15_19 
ROOT
HETATM    1  C9  UNL     1      23.436   3.350  52.363  1.00  0.00     0.035 A 
HETATM    2  C10 UNL     1      22.059   3.355  52.107  1.00  0.00     0.029 A 
HETATM    3  C11 UNL     1      21.244   2.276  52.363  1.00  0.00     0.003 A 
HETATM    4  C12 UNL     1      21.887   1.186  52.892  1.00  0.00     0.010 A 
HETATM    5  C13 UNL     1      23.234   1.104  53.171  1.00  0.00    -0.023 A 
HETATM    6  C21 UNL     1      24.006   2.214  52.896  1.00  0.00     0.039 A 
ENDROOT
BRANCH   1   7
HETATM    7  N1  UNL     1      24.163   4.507  52.065  1.00  0.00    -0.324 N 
HETATM    8  C8  UNL     1      24.611   4.448  50.621  1.00  0.00     0.269 C 
HETATM    9  O1  UNL     1      23.954   3.343  50.783  1.00  0.00    -0.269 OA
HETATM   10  H10 UNL     1      24.511   5.431  52.514  1.00  0.00     0.169 HD
BRANCH   8  11
HETATM   11  C7  UNL     1      25.466   5.408  49.619  1.00  0.00     0.265 A 
HETATM   12  C6  UNL     1      24.299   6.171  49.735  1.00  0.00     0.104 A 
HETATM   13  C5  UNL     1      25.394   5.971  49.316  1.00  0.00     0.240 A 
HETATM   14  S1  UNL     1      26.688   5.717  48.839  1.00  0.00    -0.064 SA
HETATM   15  N2  UNL     1      26.822   5.689  48.789  1.00  0.00     0.006 N 
HETATM   16  C4  UNL     1      28.209   5.463  48.258  1.00  0.00     0.080 A 
HETATM   17  H8  UNL     1      29.136   5.180  47.961  1.00  0.00     0.116 HD
HETATM   18  C22 UNL     1      27.132   4.208  49.360  1.00  0.00     0.336 A 
BRANCH  16  19
HETATM   19  C3  UNL     1      28.706   6.839  47.587  1.00  0.00    -0.025 C 
HETATM   20  C2  UNL     1      29.923   7.332  47.720  1.00  0.00    -0.034 C 
HETATM   21  C1  UNL     1      31.081   6.798  48.467  1.00  0.00     0.036 C 
ENDBRANCH  16  19
ENDBRANCH   8  11
ENDBRANCH   1   7
BRANCH   5  22
HETATM   22  C14 UNL     1      23.770  -0.172  53.751  1.00  0.00     0.184 C 
BRANCH  22  23
HETATM   23  O2  UNL     1      23.109  -1.219  53.141  1.00  0.00    -0.386 OA
HETATM   24  H15 UNL     1      23.214  -2.024  53.704  1.00  0.00     0.210 HD
ENDBRANCH  22  23
BRANCH  22  25
HETATM   25  C15 UNL     1      25.232  -0.232  53.678  1.00  0.00    -0.025 A 
HETATM   26  C16 UNL     1      25.918  -0.682  52.562  1.00  0.00     0.010 A 
HETATM   27  C17 UNL     1      27.289  -0.717  52.550  1.00  0.00     0.001 A 
HETATM   28  C18 UNL     1      28.017  -0.306  53.647  1.00  0.00     0.000 A 
HETATM   29  C19 UNL     1      27.400   0.154  54.792  1.00  0.00     0.001 A 
HETATM   30  C20 UNL     1      26.013   0.173  54.762  1.00  0.00     0.010 A 
ENDBRANCH  22  25
ENDBRANCH   5  22
TORSDOF 8
ENDMDL
MODEL 8
REMARK VINA RESULT:      -8.4      3.426      6.796
REMARK  8 active torsions:
REMARK  status: ('A' for Active; 'I' for Inactive)
REMARK    1  A    between atoms: C3_3  and  C4_4 
REMARK    2  A    between atoms: S1_5  and  C7_8 
REMARK    3  A    between atoms: C7_8  and  C8_9 
REMARK    4  A    between atoms: C7_8  and  N2_26 
REMARK       I    between atoms: C8_9  and  N1_11 
REMARK    5  A    between atoms: N1_11  and  C9_12 
REMARK    6  A    between atoms: C13_16  and  C14_17 
REMARK    7  A    between atoms: C14_17  and  O2_18 
REMARK    8  A    between atoms: C14_17  and  C15_19 
ROOT
HETATM    1  C9  UNL     1      23.533   1.208  52.022  1.00  0.00     0.035 A 
HETATM    2  C10 UNL     1      22.335   0.482  52.063  1.00  0.00     0.029 A 
HETATM    3  C11 UNL     1      22.092  -0.514  52.980  1.00  0.00     0.003 A 
HETATM    4  C12 UNL     1      23.120  -0.746  53.859  1.00  0.00     0.010 A 
HETATM    5  C13 UNL     1      24.325  -0.077  53.882  1.00  0.00    -0.023 A 
HETATM    6  C21 UNL     1      24.517   0.913  52.941  1.00  0.00     0.039 A 
ENDROOT
BRANCH   1   7
HETATM    7  N1  UNL     1      23.665   2.201  51.046  1.00  0.00    -0.324 N 
HETATM    8  C8  UNL     1      23.560   3.558  51.707  1.00  0.00     0.269 C 
HETATM    9  O1  UNL     1      23.428   2.726  52.692  1.00  0.00    -0.269 OA
HETATM   10  H10 UNL     1      23.822   2.328  49.980  1.00  0.00     0.169 HD
BRANCH   8  11
HETATM   11  C7  UNL     1      23.617   5.109  51.213  1.00  0.00     0.265 A 
HETATM   12  C6  UNL     1      22.385   5.120  51.876  1.00  0.00     0.104 A 
HETATM   13  C5  UNL     1      23.254   5.639  51.253  1.00  0.00     0.240 A 
HETATM   14  S1  UNL     1      24.295   6.234  50.523  1.00  0.00    -0.064 SA
HETATM   15  N2  UNL     1      24.403   6.293  50.447  1.00  0.00     0.006 N 
HETATM   16  C4  UNL     1      25.496   6.973  49.672  1.00  0.00     0.080 A 
HETATM   17  H8  UNL     1      26.291   7.301  49.136  1.00  0.00     0.116 HD
HETATM   18  C22 UNL     1      25.381   5.044  50.134  1.00  0.00     0.336 A 
BRANCH  16  19
HETATM   19  C3  UNL     1      25.218   8.558  49.725  1.00  0.00    -0.025 C 
HETATM   20  C2  UNL     1      26.156   9.469  49.902  1.00  0.00    -0.034 C 
HETATM   21  C1  UNL     1      27.613   9.301  50.087  1.00  0.00     0.036 C 
ENDBRANCH  16  19
ENDBRANCH   8  11
ENDBRANCH   1   7
BRANCH   5  22
HETATM   22  C14 UNL     1      25.340  -0.463  54.918  1.00  0.00     0.184 C 
BRANCH  22  23
HETATM   23  O2  UNL     1      24.862  -1.578  55.577  1.00  0.00    -0.386 OA
HETATM   24  H15 UNL     1      25.072  -2.376  55.032  1.00  0.00     0.210 HD
ENDBRANCH  22  23
BRANCH  22  25
HETATM   25  C15 UNL     1      26.679  -0.607  54.342  1.00  0.00    -0.025 A 
HETATM   26  C16 UNL     1      26.976  -1.501  53.327  1.00  0.00     0.010 A 
HETATM   27  C17 UNL     1      28.249  -1.594  52.826  1.00  0.00     0.001 A 
HETATM   28  C18 UNL     1      29.264  -0.798  53.319  1.00  0.00     0.000 A 
HETATM   29  C19 UNL     1      29.039   0.115  54.329  1.00  0.00     0.001 A 
HETATM   30  C20 UNL     1      27.737   0.176  54.806  1.00  0.00     0.010 A 
ENDBRANCH  22  25
ENDBRANCH   5  22
TORSDOF 8
ENDMDL
MODEL 9
REMARK VINA RESULT:      -8.3      1.739      3.284
REMARK  8 active torsions:
REMARK  status: ('A' for Active; 'I' for Inactive)
REMARK    1  A    between atoms: C3_3  and  C4_4 
REMARK    2  A    between atoms: S1_5  and  C7_8 
REMARK    3  A    between atoms: C7_8  and  C8_9 
REMARK    4  A    between atoms: C7_8  and  N2_26 
REMARK       I    between atoms: C8_9  and  N1_11 
REMARK    5  A    between atoms: N1_11  and  C9_12 
REMARK    6  A    between atoms: C13_16  and  C14_17 
REMARK    7  A    between atoms: C14_17  and  O2_18 
REMARK    8  A    between atoms: C14_17  and  C15_19 
ROOT
HETATM    1  C9  UNL     1      22.042   0.248  53.929  1.00  0.00     0.035 A 
HETATM    2  C10 UNL     1      22.364  -0.711  54.899  1.00  0.00     0.029 A 
HETATM    3  C11 UNL     1      23.646  -1.165  55.107  1.00  0.00     0.003 A 
HETATM    4  C12 UNL     1      24.593  -0.604  54.288  1.00  0.00     0.010 A 
HETATM    5  C13 UNL     1      24.354   0.342  53.315  1.00  0.00    -0.023 A 
HETATM    6  C21 UNL     1      23.052   0.763  53.146  1.00  0.00     0.039 A 
ENDROOT
BRANCH   1   7
HETATM    7  N1  UNL     1      20.703   0.635  53.809  1.00  0.00    -0.324 N 
HETATM    8  C8  UNL     1      20.069  -0.130  52.668  1.00  0.00     0.269 C 
HETATM    9  O1  UNL     1      21.289  -0.565  52.688  1.00  0.00    -0.269 OA
HETATM   10  H10 UNL     1      19.966   1.292  54.258  1.00  0.00     0.169 HD
BRANCH   8  11
HETATM   11  C7  UNL     1      18.596  -0.194  51.975  1.00  0.00     0.265 A 
HETATM   12  C6  UNL     1      19.230   0.691  51.096  1.00  0.00     0.104 A 
HETATM   13  C5  UNL     1      18.294   0.059  51.466  1.00  0.00     0.240 A 
HETATM   14  S1  UNL     1      17.203  -0.700  51.916  1.00  0.00    -0.064 SA
HETATM   15  N2  UNL     1      17.091  -0.779  51.966  1.00  0.00     0.006 N 
HETATM   16  C4  UNL     1      15.899  -1.579  52.407  1.00  0.00     0.080 A 
HETATM   17  H8  UNL     1      15.173  -2.152  52.821  1.00  0.00     0.116 HD
HETATM   18  C22 UNL     1      17.638  -1.404  53.352  1.00  0.00     0.336 A 
BRANCH  16  19
HETATM   19  C3  UNL     1      14.818  -1.543  51.215  1.00  0.00    -0.025 C 
HETATM   20  C2  UNL     1      14.273  -2.617  50.676  1.00  0.00    -0.034 C 
HETATM   21  C1  UNL     1      14.487  -4.044  50.992  1.00  0.00     0.036 C 
ENDBRANCH  16  19
ENDBRANCH   8  11
ENDBRANCH   1   7
BRANCH   5  22
HETATM   22  C14 UNL     1      25.515   0.849  52.508  1.00  0.00     0.184 C 
BRANCH  22  23
HETATM   23  O2  UNL     1      25.361   2.213  52.365  1.00  0.00    -0.386 OA
HETATM   24  H15 UNL     1      24.677   2.378  51.671  1.00  0.00     0.210 HD
ENDBRANCH  22  23
BRANCH  22  25
HETATM   25  C15 UNL     1      26.798   0.423  53.073  1.00  0.00    -0.025 A 
HETATM   26  C16 UNL     1      27.528   1.193  53.962  1.00  0.00     0.010 A 
HETATM   27  C17 UNL     1      28.725   0.745  54.458  1.00  0.00     0.001 A 
HETATM   28  C18 UNL     1      29.230  -0.485  54.084  1.00  0.00     0.000 A 
HETATM   29  C19 UNL     1      28.556  -1.304  53.203  1.00  0.00     0.001 A 
HETATM   30  C20 UNL     1      27.349  -0.812  52.726  1.00  0.00     0.010 A 
ENDBRANCH  22  25
ENDBRANCH   5  22
TORSDOF 8
ENDMDL
