MODEL 1
REMARK VINA RESULT:      -7.3      0.000      0.000
REMARK  7 active torsions:
REMARK  status: ('A' for Active; 'I' for Inactive)
REMARK    1  A    between atoms: N1_5  and  C4_6 
REMARK    2  A    between atoms: C9_13  and  C10_14 
REMARK    3  A    between atoms: C10_14  and  O1_15 
REMARK    4  A    between atoms: O1_15  and  C11_16 
REMARK    5  A    between atoms: C11_16  and  C12_17 
REMARK    6  A    between atoms: C12_17  and  C13_18 
REMARK    7  A    between atoms: C13_18  and  N4_19 
ROOT
HETATM    1  C4  UNL     1      25.133  -0.647  53.982  1.00  0.00     0.141 A 
HETATM    2  N2  UNL     1      25.237  -1.144  55.225  1.00  0.00    -0.224 NA
HETATM    3  C5  UNL     1      24.114  -1.419  55.953  1.00  0.00     0.236 A 
HETATM    4  N3  UNL     1      22.903  -1.185  55.413  1.00  0.00    -0.240 NA
HETATM    5  C6  UNL     1      22.767  -0.688  54.167  1.00  0.00     0.084 A 
HETATM    6  C7  UNL     1      23.929  -0.385  53.366  1.00  0.00     0.052 A 
HETATM    7  C8  UNL     1      22.607  -0.146  52.815  1.00  0.00     0.008 A 
HETATM    8  C9  UNL     1      21.714   0.243  51.892  1.00  0.00     0.014 C 
ENDROOT
BRANCH   8   9
HETATM    9  C10 UNL     1      20.260   0.175  52.164  1.00  0.00     0.196 C 
BRANCH   9  10
HETATM   10  O1  UNL     1      19.627   1.388  51.951  1.00  0.00    -0.387 OA
BRANCH  10  11
HETATM   11  C11 UNL     1      20.212   2.468  52.567  1.00  0.00     0.169 C 
BRANCH  11  12
HETATM   12  C12 UNL     1      20.138   3.676  51.708  1.00  0.00     0.056 C 
BRANCH  12  13
HETATM   13  C13 UNL     1      21.421   4.353  51.426  1.00  0.00     0.274 C 
BRANCH  13  14
HETATM   14  N4  UNL     1      22.575   3.635  51.828  1.00  0.00     0.092 N 
HETATM   15  C14 UNL     1      23.428   4.671  52.522  1.00  0.00     0.298 C 
HETATM   16  C15 UNL     1      23.609   5.851  51.623  1.00  0.00     0.198 C 
HETATM   17  O2  UNL     1      23.970   5.427  50.319  1.00  0.00    -0.388 OA
HETATM   18  C16 UNL     1      24.535   4.154  50.413  1.00  0.00     0.198 C 
HETATM   19  C17 UNL     1      23.434   3.156  50.760  1.00  0.00     0.298 C 
ENDBRANCH  13  14
ENDBRANCH  12  13
ENDBRANCH  11  12
ENDBRANCH  10  11
ENDBRANCH   9  10
ENDBRANCH   8   9
BRANCH   1  20
HETATM   20  N1  UNL     1      26.286  -0.319  53.175  1.00  0.00    -0.361 N 
HETATM   21  C3  UNL     1      26.009   0.697  52.149  1.00  0.00     0.154 C 
HETATM   22  C2  UNL     1      26.538   1.985  52.740  1.00  0.00     0.030 C 
HETATM   23  C1  UNL     1      27.738   1.739  53.310  1.00  0.00     0.093 C 
HETATM   24  F1  UNL     1      28.382   2.791  53.904  1.00  0.00    -0.211 F 
HETATM   25  C19 UNL     1      28.539   0.481  53.424  1.00  0.00     0.089 C 
HETATM   26  C18 UNL     1      27.682  -0.735  53.110  1.00  0.00     0.131 C 
ENDBRANCH   1  20
TORSDOF 7
ENDMDL
MODEL 2
REMARK VINA RESULT:      -6.9      2.132      3.332
REMARK  7 active torsions:
REMARK  status: ('A' for Active; 'I' for Inactive)
REMARK    1  A    between atoms: N1_5  and  C4_6 
REMARK    2  A    between atoms: C9_13  and  C10_14 
REMARK    3  A    between atoms: C10_14  and  O1_15 
REMARK    4  A    between atoms: O1_15  and  C11_16 
REMARK    5  A    between atoms: C11_16  and  C12_17 
REMARK    6  A    between atoms: C12_17  and  C13_18 
REMARK    7  A    between atoms: C13_18  and  N4_19 
ROOT
HETATM    1  C4  UNL     1      26.250   1.286  52.507  1.00  0.00     0.141 A 
HETATM    2  N2  UNL     1      27.023   2.120  51.793  1.00  0.00    -0.224 NA
HETATM    3  C5  UNL     1      26.471   2.913  50.826  1.00  0.00     0.236 A 
HETATM    4  N3  UNL     1      25.147   2.849  50.596  1.00  0.00    -0.240 NA
HETATM    5  C6  UNL     1      24.345   2.022  51.298  1.00  0.00     0.084 A 
HETATM    6  C7  UNL     1      24.889   1.170  52.327  1.00  0.00     0.052 A 
HETATM    7  C8  UNL     1      23.464   1.128  52.052  1.00  0.00     0.008 A 
HETATM    8  C9  UNL     1      22.197   0.710  52.202  1.00  0.00     0.014 C 
ENDROOT
BRANCH   8   9
HETATM    9  C10 UNL     1      21.112   1.254  51.352  1.00  0.00     0.196 C 
BRANCH   9  10
HETATM   10  O1  UNL     1      20.503   2.360  51.920  1.00  0.00    -0.387 OA
BRANCH  10  11
HETATM   11  C11 UNL     1      20.810   3.563  51.329  1.00  0.00     0.169 C 
BRANCH  11  12
HETATM   12  C12 UNL     1      21.591   4.424  52.251  1.00  0.00     0.056 C 
BRANCH  12  13
HETATM   13  C13 UNL     1      22.622   5.279  51.625  1.00  0.00     0.274 C 
BRANCH  13  14
HETATM   14  N4  UNL     1      22.231   5.888  50.406  1.00  0.00     0.092 N 
HETATM   15  C14 UNL     1      23.489   5.874  49.570  1.00  0.00     0.298 C 
HETATM   16  C15 UNL     1      24.608   6.495  50.342  1.00  0.00     0.198 C 
HETATM   17  O2  UNL     1      24.187   7.716  50.926  1.00  0.00    -0.388 OA
HETATM   18  C16 UNL     1      23.096   8.196  50.200  1.00  0.00     0.198 C 
HETATM   19  C17 UNL     1      21.893   7.299  50.477  1.00  0.00     0.298 C 
ENDBRANCH  13  14
ENDBRANCH  12  13
ENDBRANCH  11  12
ENDBRANCH  10  11
ENDBRANCH   9  10
ENDBRANCH   8   9
BRANCH   1  20
HETATM   20  N1  UNL     1      26.781   0.412  53.527  1.00  0.00    -0.361 N 
HETATM   21  C3  UNL     1      26.418  -0.999  53.333  1.00  0.00     0.154 C 
HETATM   22  C2  UNL     1      27.645  -1.622  52.703  1.00  0.00     0.030 C 
HETATM   23  C1  UNL     1      28.740  -1.167  53.348  1.00  0.00     0.093 C 
HETATM   24  F1  UNL     1      29.959  -1.620  52.919  1.00  0.00    -0.211 F 
HETATM   25  C19 UNL     1      28.890  -0.218  54.494  1.00  0.00     0.089 C 
HETATM   26  C18 UNL     1      27.604   0.561  54.722  1.00  0.00     0.131 C 
ENDBRANCH   1  20
TORSDOF 7
ENDMDL
MODEL 3
REMARK VINA RESULT:      -6.9      2.315      3.497
REMARK  7 active torsions:
REMARK  status: ('A' for Active; 'I' for Inactive)
REMARK    1  A    between atoms: N1_5  and  C4_6 
REMARK    2  A    between atoms: C9_13  and  C10_14 
REMARK    3  A    between atoms: C10_14  and  O1_15 
REMARK    4  A    between atoms: O1_15  and  C11_16 
REMARK    5  A    between atoms: C11_16  and  C12_17 
REMARK    6  A    between atoms: C12_17  and  C13_18 
REMARK    7  A    between atoms: C13_18  and  N4_19 
ROOT
HETATM    1  C4  UNL     1      26.685   1.704  52.535  1.00  0.00     0.141 A 
HETATM    2  N2  UNL     1      27.159   2.506  51.568  1.00  0.00    -0.224 NA
HETATM    3  C5  UNL     1      26.312   3.026  50.629  1.00  0.00     0.236 A 
HETATM    4  N3  UNL     1      25.001   2.726  50.683  1.00  0.00    -0.240 NA
HETATM    5  C6  UNL     1      24.497   1.924  51.643  1.00  0.00     0.084 A 
HETATM    6  C7  UNL     1      25.358   1.356  52.652  1.00  0.00     0.052 A 
HETATM    7  C8  UNL     1      23.938   1.053  52.680  1.00  0.00     0.008 A 
HETATM    8  C9  UNL     1      22.813   0.483  53.140  1.00  0.00     0.014 C 
ENDROOT
BRANCH   8   9
HETATM    9  C10 UNL     1      21.517   0.702  52.459  1.00  0.00     0.196 C 
BRANCH   9  10
HETATM   10  O1  UNL     1      21.513   0.213  51.163  1.00  0.00    -0.387 OA
BRANCH  10  11
HETATM   11  C11 UNL     1      20.744   0.924  50.273  1.00  0.00     0.169 C 
BRANCH  11  12
HETATM   12  C12 UNL     1      21.594   1.634  49.284  1.00  0.00     0.056 C 
BRANCH  12  13
HETATM   13  C13 UNL     1      21.647   3.105  49.412  1.00  0.00     0.274 C 
BRANCH  13  14
HETATM   14  N4  UNL     1      20.882   3.640  50.479  1.00  0.00     0.092 N 
HETATM   15  C14 UNL     1      20.061   4.729  49.831  1.00  0.00     0.298 C 
HETATM   16  C15 UNL     1      20.963   5.653  49.077  1.00  0.00     0.198 C 
HETATM   17  O2  UNL     1      22.076   6.016  49.876  1.00  0.00    -0.388 OA
HETATM   18  C16 UNL     1      21.727   5.843  51.217  1.00  0.00     0.198 C 
HETATM   19  C17 UNL     1      21.626   4.348  51.505  1.00  0.00     0.298 C 
ENDBRANCH  13  14
ENDBRANCH  12  13
ENDBRANCH  11  12
ENDBRANCH  10  11
ENDBRANCH   9  10
ENDBRANCH   8   9
BRANCH   1  20
HETATM   20  N1  UNL     1      27.536   1.110  53.541  1.00  0.00    -0.361 N 
HETATM   21  C3  UNL     1      26.966  -0.103  54.145  1.00  0.00     0.154 C 
HETATM   22  C2  UNL     1      27.663  -1.242  53.435  1.00  0.00     0.030 C 
HETATM   23  C1  UNL     1      28.977  -0.950  53.333  1.00  0.00     0.093 C 
HETATM   24  F1  UNL     1      29.782  -1.868  52.714  1.00  0.00    -0.211 F 
HETATM   25  C19 UNL     1      29.764   0.239  53.785  1.00  0.00     0.089 C 
HETATM   26  C18 UNL     1      28.841   1.399  54.125  1.00  0.00     0.131 C 
ENDBRANCH   1  20
TORSDOF 7
ENDMDL
MODEL 4
REMARK VINA RESULT:      -6.7      6.492      8.901
REMARK  7 active torsions:
REMARK  status: ('A' for Active; 'I' for Inactive)
REMARK    1  A    between atoms: N1_5  and  C4_6 
REMARK    2  A    between atoms: C9_13  and  C10_14 
REMARK    3  A    between atoms: C10_14  and  O1_15 
REMARK    4  A    between atoms: O1_15  and  C11_16 
REMARK    5  A    between atoms: C11_16  and  C12_17 
REMARK    6  A    between atoms: C12_17  and  C13_18 
REMARK    7  A    between atoms: C13_18  and  N4_19 
ROOT
HETATM    1  C4  UNL     1      32.367   5.721  47.706  1.00  0.00     0.141 A 
HETATM    2  N2  UNL     1      33.170   6.715  48.116  1.00  0.00    -0.224 NA
HETATM    3  C5  UNL     1      32.650   7.790  48.782  1.00  0.00     0.236 A 
HETATM    4  N3  UNL     1      31.327   7.843  49.020  1.00  0.00    -0.240 NA
HETATM    5  C6  UNL     1      30.495   6.859  48.620  1.00  0.00     0.084 A 
HETATM    6  C7  UNL     1      31.005   5.707  47.916  1.00  0.00     0.052 A 
HETATM    7  C8  UNL     1      29.582   5.797  48.191  1.00  0.00     0.008 A 
HETATM    8  C9  UNL     1      28.301   5.398  48.170  1.00  0.00     0.014 C 
ENDROOT
BRANCH   8   9
HETATM    9  C10 UNL     1      27.235   6.233  48.771  1.00  0.00     0.196 C 
BRANCH   9  10
HETATM   10  O1  UNL     1      26.251   5.473  49.379  1.00  0.00    -0.387 OA
BRANCH  10  11
HETATM   11  C11 UNL     1      26.509   4.124  49.441  1.00  0.00     0.169 C 
BRANCH  11  12
HETATM   12  C12 UNL     1      25.287   3.364  49.805  1.00  0.00     0.056 C 
BRANCH  12  13
HETATM   13  C13 UNL     1      25.308   2.692  51.121  1.00  0.00     0.274 C 
BRANCH  13  14
HETATM   14  N4  UNL     1      24.475   3.281  52.105  1.00  0.00     0.092 N 
HETATM   15  C14 UNL     1      24.198   2.156  53.073  1.00  0.00     0.298 C 
HETATM   16  C15 UNL     1      23.678   0.970  52.326  1.00  0.00     0.198 C 
HETATM   17  O2  UNL     1      22.658   1.365  51.424  1.00  0.00    -0.388 OA
HETATM   18  C16 UNL     1      22.118   2.571  51.875  1.00  0.00     0.198 C 
HETATM   19  C17 UNL     1      23.148   3.676  51.665  1.00  0.00     0.298 C 
ENDBRANCH  13  14
ENDBRANCH  12  13
ENDBRANCH  11  12
ENDBRANCH  10  11
ENDBRANCH   9  10
ENDBRANCH   8   9
BRANCH   1  20
HETATM   20  N1  UNL     1      32.858   4.571  46.981  1.00  0.00    -0.361 N 
HETATM   21  C3  UNL     1      34.306   4.366  47.127  1.00  0.00     0.154 C 
HETATM   22  C2  UNL     1      34.431   3.279  48.172  1.00  0.00     0.030 C 
HETATM   23  C1  UNL     1      33.517   2.321  47.911  1.00  0.00     0.093 C 
HETATM   24  F1  UNL     1      33.473   1.243  48.754  1.00  0.00    -0.211 F 
HETATM   25  C19 UNL     1      32.493   2.200  46.828  1.00  0.00     0.089 C 
HETATM   26  C18 UNL     1      32.285   3.536  46.130  1.00  0.00     0.131 C 
ENDBRANCH   1  20
TORSDOF 7
ENDMDL
MODEL 5
REMARK VINA RESULT:      -6.7      1.737      2.170
REMARK  7 active torsions:
REMARK  status: ('A' for Active; 'I' for Inactive)
REMARK    1  A    between atoms: N1_5  and  C4_6 
REMARK    2  A    between atoms: C9_13  and  C10_14 
REMARK    3  A    between atoms: C10_14  and  O1_15 
REMARK    4  A    between atoms: O1_15  and  C11_16 
REMARK    5  A    between atoms: C11_16  and  C12_17 
REMARK    6  A    between atoms: C12_17  and  C13_18 
REMARK    7  A    between atoms: C13_18  and  N4_19 
ROOT
HETATM    1  C4  UNL     1      25.773  -0.356  53.729  1.00  0.00     0.141 A 
HETATM    2  N2  UNL     1      25.565  -1.053  54.857  1.00  0.00    -0.224 NA
HETATM    3  C5  UNL     1      24.297  -1.219  55.340  1.00  0.00     0.236 A 
HETATM    4  N3  UNL     1      23.260  -0.676  54.674  1.00  0.00    -0.240 NA
HETATM    5  C6  UNL     1      23.439   0.029  53.538  1.00  0.00     0.084 A 
HETATM    6  C7  UNL     1      24.762   0.225  52.996  1.00  0.00     0.052 A 
HETATM    7  C8  UNL     1      23.621   0.796  52.304  1.00  0.00     0.008 A 
HETATM    8  C9  UNL     1      22.989   1.490  51.344  1.00  0.00     0.014 C 
ENDROOT
BRANCH   8   9
HETATM    9  C10 UNL     1      21.518   1.660  51.372  1.00  0.00     0.196 C 
BRANCH   9  10
HETATM   10  O1  UNL     1      21.121   2.894  50.886  1.00  0.00    -0.387 OA
BRANCH  10  11
HETATM   11  C11 UNL     1      21.940   3.945  51.223  1.00  0.00     0.169 C 
BRANCH  11  12
HETATM   12  C12 UNL     1      21.346   5.239  50.803  1.00  0.00     0.056 C 
BRANCH  12  13
HETATM   13  C13 UNL     1      22.228   6.138  50.030  1.00  0.00     0.274 C 
BRANCH  13  14
HETATM   14  N4  UNL     1      22.920   7.104  50.803  1.00  0.00     0.092 N 
HETATM   15  C14 UNL     1      23.206   8.219  49.825  1.00  0.00     0.298 C 
HETATM   16  C15 UNL     1      23.889   7.661  48.618  1.00  0.00     0.198 C 
HETATM   17  O2  UNL     1      24.946   6.799  49.004  1.00  0.00    -0.388 OA
HETATM   18  C16 UNL     1      25.340   7.141  50.299  1.00  0.00     0.198 C 
HETATM   19  C17 UNL     1      24.241   6.722  51.270  1.00  0.00     0.298 C 
ENDBRANCH  13  14
ENDBRANCH  12  13
ENDBRANCH  11  12
ENDBRANCH  10  11
ENDBRANCH   9  10
ENDBRANCH   8   9
BRANCH   1  20
HETATM   20  N1  UNL     1      27.093  -0.133  53.184  1.00  0.00    -0.361 N 
HETATM   21  C3  UNL     1      27.209   1.128  52.437  1.00  0.00     0.154 C 
HETATM   22  C2  UNL     1      27.869   2.083  53.407  1.00  0.00     0.030 C 
HETATM   23  C1  UNL     1      28.875   1.438  54.034  1.00  0.00     0.093 C 
HETATM   24  F1  UNL     1      29.598   2.142  54.959  1.00  0.00    -0.211 F 
HETATM   25  C19 UNL     1      29.379   0.035  53.910  1.00  0.00     0.089 C 
HETATM   26  C18 UNL     1      28.369  -0.839  53.183  1.00  0.00     0.131 C 
ENDBRANCH   1  20
TORSDOF 7
ENDMDL
MODEL 6
REMARK VINA RESULT:      -6.6      2.356      3.571
REMARK  7 active torsions:
REMARK  status: ('A' for Active; 'I' for Inactive)
REMARK    1  A    between atoms: N1_5  and  C4_6 
REMARK    2  A    between atoms: C9_13  and  C10_14 
REMARK    3  A    between atoms: C10_14  and  O1_15 
REMARK    4  A    between atoms: O1_15  and  C11_16 
REMARK    5  A    between atoms: C11_16  and  C12_17 
REMARK    6  A    between atoms: C12_17  and  C13_18 
REMARK    7  A    between atoms: C13_18  and  N4_19 
ROOT
HETATM    1  C4  UNL     1      25.032   1.876  52.193  1.00  0.00     0.141 A 
HETATM    2  N2  UNL     1      24.910   3.148  51.783  1.00  0.00    -0.224 NA
HETATM    3  C5  UNL     1      23.700   3.780  51.847  1.00  0.00     0.236 A 
HETATM    4  N3  UNL     1      22.632   3.114  52.325  1.00  0.00    -0.240 NA
HETATM    5  C6  UNL     1      22.724   1.836  52.746  1.00  0.00     0.084 A 
HETATM    6  C7  UNL     1      23.984   1.135  52.694  1.00  0.00     0.052 A 
HETATM    7  C8  UNL     1      22.811   0.448  53.204  1.00  0.00     0.008 A 
HETATM    8  C9  UNL     1      22.116  -0.582  53.714  1.00  0.00     0.014 C 
ENDROOT
BRANCH   8   9
HETATM    9  C10 UNL     1      20.667  -0.458  53.989  1.00  0.00     0.196 C 
BRANCH   9  10
HETATM   10  O1  UNL     1      19.896  -0.653  52.855  1.00  0.00    -0.387 OA
BRANCH  10  11
HETATM   11  C11 UNL     1      19.174   0.442  52.444  1.00  0.00     0.169 C 
BRANCH  11  12
HETATM   12  C12 UNL     1      18.522   0.190  51.135  1.00  0.00     0.056 C 
BRANCH  12  13
HETATM   13  C13 UNL     1      18.969   1.040  50.012  1.00  0.00     0.274 C 
BRANCH  13  14
HETATM   14  N4  UNL     1      20.243   1.637  50.186  1.00  0.00     0.092 N 
HETATM   15  C14 UNL     1      19.993   3.108  49.953  1.00  0.00     0.298 C 
HETATM   16  C15 UNL     1      19.299   3.296  48.643  1.00  0.00     0.198 C 
HETATM   17  O2  UNL     1      19.944   2.541  47.630  1.00  0.00    -0.388 OA
HETATM   18  C16 UNL     1      21.259   2.303  48.033  1.00  0.00     0.198 C 
HETATM   19  C17 UNL     1      21.244   1.307  49.187  1.00  0.00     0.298 C 
ENDBRANCH  13  14
ENDBRANCH  12  13
ENDBRANCH  11  12
ENDBRANCH  10  11
ENDBRANCH   9  10
ENDBRANCH   8   9
BRANCH   1  20
HETATM   20  N1  UNL     1      26.281   1.153  52.129  1.00  0.00    -0.361 N 
HETATM   21  C3  UNL     1      27.462   2.015  52.285  1.00  0.00     0.154 C 
HETATM   22  C2  UNL     1      27.875   1.833  53.729  1.00  0.00     0.030 C 
HETATM   23  C1  UNL     1      27.805   0.521  54.038  1.00  0.00     0.093 C 
HETATM   24  F1  UNL     1      28.144   0.153  55.312  1.00  0.00    -0.211 F 
HETATM   25  C19 UNL     1      27.411  -0.668  53.220  1.00  0.00     0.089 C 
HETATM   26  C18 UNL     1      26.690  -0.236  51.952  1.00  0.00     0.131 C 
ENDBRANCH   1  20
TORSDOF 7
ENDMDL
MODEL 7
REMARK VINA RESULT:      -6.6      5.015      8.023
REMARK  7 active torsions:
REMARK  status: ('A' for Active; 'I' for Inactive)
REMARK    1  A    between atoms: N1_5  and  C4_6 
REMARK    2  A    between atoms: C9_13  and  C10_14 
REMARK    3  A    between atoms: C10_14  and  O1_15 
REMARK    4  A    between atoms: O1_15  and  C11_16 
REMARK    5  A    between atoms: C11_16  and  C12_17 
REMARK    6  A    between atoms: C12_17  and  C13_18 
REMARK    7  A    between atoms: C13_18  and  N4_19 
ROOT
HETATM    1  C4  UNL     1      27.922   6.999  47.924  1.00  0.00     0.141 A 
HETATM    2  N2  UNL     1      27.387   8.175  47.561  1.00  0.00    -0.224 NA
HETATM    3  C5  UNL     1      26.052   8.409  47.740  1.00  0.00     0.236 A 
HETATM    4  N3  UNL     1      25.280   7.449  48.282  1.00  0.00    -0.240 NA
HETATM    5  C6  UNL     1      25.790   6.258  48.658  1.00  0.00     0.084 A 
HETATM    6  C7  UNL     1      27.194   5.974  48.486  1.00  0.00     0.052 A 
HETATM    7  C8  UNL     1      26.332   4.961  49.069  1.00  0.00     0.008 A 
HETATM    8  C9  UNL     1      26.027   3.768  49.603  1.00  0.00     0.014 C 
ENDROOT
BRANCH   8   9
HETATM    9  C10 UNL     1      24.636   3.444  49.996  1.00  0.00     0.196 C 
BRANCH   9  10
HETATM   10  O1  UNL     1      24.400   3.683  51.340  1.00  0.00    -0.387 OA
BRANCH  10  11
HETATM   11  C11 UNL     1      23.448   2.877  51.917  1.00  0.00     0.169 C 
BRANCH  11  12
HETATM   12  C12 UNL     1      24.047   2.007  52.959  1.00  0.00     0.056 C 
BRANCH  12  13
HETATM   13  C13 UNL     1      24.876   0.885  52.470  1.00  0.00     0.274 C 
BRANCH  13  14
HETATM   14  N4  UNL     1      26.272   1.133  52.466  1.00  0.00     0.092 N 
HETATM   15  C14 UNL     1      26.884  -0.225  52.212  1.00  0.00     0.298 C 
HETATM   16  C15 UNL     1      26.345  -1.208  53.201  1.00  0.00     0.198 C 
HETATM   17  O2  UNL     1      26.394  -0.668  54.511  1.00  0.00    -0.388 OA
HETATM   18  C16 UNL     1      27.365   0.335  54.535  1.00  0.00     0.198 C 
HETATM   19  C17 UNL     1      26.854   1.529  53.736  1.00  0.00     0.298 C 
ENDBRANCH  13  14
ENDBRANCH  12  13
ENDBRANCH  11  12
ENDBRANCH  10  11
ENDBRANCH   9  10
ENDBRANCH   8   9
BRANCH   1  20
HETATM   20  N1  UNL     1      29.322   6.690  47.740  1.00  0.00    -0.361 N 
HETATM   21  C3  UNL     1      30.072   7.763  47.071  1.00  0.00     0.154 C 
HETATM   22  C2  UNL     1      30.776   8.490  48.195  1.00  0.00     0.030 C 
HETATM   23  C1  UNL     1      31.288   7.576  49.048  1.00  0.00     0.093 C 
HETATM   24  F1  UNL     1      31.969   8.044  50.140  1.00  0.00    -0.211 F 
HETATM   25  C19 UNL     1      31.256   6.081  49.031  1.00  0.00     0.089 C 
HETATM   26  C18 UNL     1      30.207   5.575  48.053  1.00  0.00     0.131 C 
ENDBRANCH   1  20
TORSDOF 7
ENDMDL
MODEL 8
REMARK VINA RESULT:      -6.6      2.299      3.238
REMARK  7 active torsions:
REMARK  status: ('A' for Active; 'I' for Inactive)
REMARK    1  A    between atoms: N1_5  and  C4_6 
REMARK    2  A    between atoms: C9_13  and  C10_14 
REMARK    3  A    between atoms: C10_14  and  O1_15 
REMARK    4  A    between atoms: O1_15  and  C11_16 
REMARK    5  A    between atoms: C11_16  and  C12_17 
REMARK    6  A    between atoms: C12_17  and  C13_18 
REMARK    7  A    between atoms: C13_18  and  N4_19 
ROOT
HETATM    1  C4  UNL     1      23.923  -0.203  53.753  1.00  0.00     0.141 A 
HETATM    2  N2  UNL     1      23.067  -1.153  54.161  1.00  0.00    -0.224 NA
HETATM    3  C5  UNL     1      21.722  -0.992  53.979  1.00  0.00     0.236 A 
HETATM    4  N3  UNL     1      21.265   0.128  53.388  1.00  0.00    -0.240 NA
HETATM    5  C6  UNL     1      22.102   1.099  52.967  1.00  0.00     0.084 A 
HETATM    6  C7  UNL     1      23.528   0.965  53.140  1.00  0.00     0.052 A 
HETATM    7  C8  UNL     1      23.000   2.160  52.506  1.00  0.00     0.008 A 
HETATM    8  C9  UNL     1      23.058   3.366  51.918  1.00  0.00     0.014 C 
ENDROOT
BRANCH   8   9
HETATM    9  C10 UNL     1      21.824   4.066  51.497  1.00  0.00     0.196 C 
BRANCH   9  10
HETATM   10  O1  UNL     1      22.000   4.788  50.328  1.00  0.00    -0.387 OA
BRANCH  10  11
HETATM   11  C11 UNL     1      22.679   4.128  49.332  1.00  0.00     0.169 C 
BRANCH  11  12
HETATM   12  C12 UNL     1      23.666   5.023  48.678  1.00  0.00     0.056 C 
BRANCH  12  13
HETATM   13  C13 UNL     1      24.129   6.175  49.480  1.00  0.00     0.274 C 
BRANCH  13  14
HETATM   14  N4  UNL     1      25.434   6.041  50.018  1.00  0.00     0.092 N 
HETATM   15  C14 UNL     1      25.929   7.463  50.136  1.00  0.00     0.298 C 
HETATM   16  C15 UNL     1      25.777   8.155  48.819  1.00  0.00     0.198 C 
HETATM   17  O2  UNL     1      26.276   7.339  47.773  1.00  0.00    -0.388 OA
HETATM   18  C16 UNL     1      27.187   6.434  48.319  1.00  0.00     0.198 C 
HETATM   19  C17 UNL     1      26.420   5.415  49.156  1.00  0.00     0.298 C 
ENDBRANCH  13  14
ENDBRANCH  12  13
ENDBRANCH  11  12
ENDBRANCH  10  11
ENDBRANCH   9  10
ENDBRANCH   8   9
BRANCH   1  20
HETATM   20  N1  UNL     1      25.353  -0.312  53.938  1.00  0.00    -0.361 N 
HETATM   21  C3  UNL     1      26.021  -1.077  52.875  1.00  0.00     0.154 C 
HETATM   22  C2  UNL     1      26.607  -0.023  51.962  1.00  0.00     0.030 C 
HETATM   23  C1  UNL     1      27.172   0.941  52.720  1.00  0.00     0.093 C 
HETATM   24  F1  UNL     1      27.761   1.992  52.070  1.00  0.00    -0.211 F 
HETATM   25  C19 UNL     1      27.285   1.093  54.204  1.00  0.00     0.089 C 
HETATM   26  C18 UNL     1      26.329   0.150  54.917  1.00  0.00     0.131 C 
ENDBRANCH   1  20
TORSDOF 7
ENDMDL
MODEL 9
REMARK VINA RESULT:      -6.5      7.043      9.241
REMARK  7 active torsions:
REMARK  status: ('A' for Active; 'I' for Inactive)
REMARK    1  A    between atoms: N1_5  and  C4_6 
REMARK    2  A    between atoms: C9_13  and  C10_14 
REMARK    3  A    between atoms: C10_14  and  O1_15 
REMARK    4  A    between atoms: O1_15  and  C11_16 
REMARK    5  A    between atoms: C11_16  and  C12_17 
REMARK    6  A    between atoms: C12_17  and  C13_18 
REMARK    7  A    between atoms: C13_18  and  N4_19 
ROOT
HETATM    1  C4  UNL     1      32.485   5.586  48.023  1.00  0.00     0.141 A 
HETATM    2  N2  UNL     1      33.265   6.625  48.357  1.00  0.00    -0.224 NA
HETATM    3  C5  UNL     1      32.711   7.770  48.859  1.00  0.00     0.236 A 
HETATM    4  N3  UNL     1      31.376   7.845  49.012  1.00  0.00    -0.240 NA
HETATM    5  C6  UNL     1      30.567   6.816  48.686  1.00  0.00     0.084 A 
HETATM    6  C7  UNL     1      31.113   5.591  48.155  1.00  0.00     0.052 A 
HETATM    7  C8  UNL     1      29.677   5.706  48.335  1.00  0.00     0.008 A 
HETATM    8  C9  UNL     1      28.398   5.302  48.289  1.00  0.00     0.014 C 
ENDROOT
BRANCH   8   9
HETATM    9  C10 UNL     1      27.302   6.198  48.723  1.00  0.00     0.196 C 
BRANCH   9  10
HETATM   10  O1  UNL     1      26.351   5.537  49.482  1.00  0.00    -0.387 OA
BRANCH  10  11
HETATM   11  C11 UNL     1      26.039   4.270  49.052  1.00  0.00     0.169 C 
BRANCH  11  12
HETATM   12  C12 UNL     1      24.895   3.715  49.817  1.00  0.00     0.056 C 
BRANCH  12  13
HETATM   13  C13 UNL     1      25.172   3.338  51.219  1.00  0.00     0.274 C 
BRANCH  13  14
HETATM   14  N4  UNL     1      24.035   2.935  51.964  1.00  0.00     0.092 N 
HETATM   15  C14 UNL     1      24.522   2.914  53.393  1.00  0.00     0.298 C 
HETATM   16  C15 UNL     1      25.759   2.080  53.487  1.00  0.00     0.198 C 
HETATM   17  O2  UNL     1      25.577   0.850  52.807  1.00  0.00    -0.388 OA
HETATM   18  C16 UNL     1      24.208   0.590  52.730  1.00  0.00     0.198 C 
HETATM   19  C17 UNL     1      23.579   1.573  51.747  1.00  0.00     0.298 C 
ENDBRANCH  13  14
ENDBRANCH  12  13
ENDBRANCH  11  12
ENDBRANCH  10  11
ENDBRANCH   9  10
ENDBRANCH   8   9
BRANCH   1  20
HETATM   20  N1  UNL     1      33.014   4.360  47.471  1.00  0.00    -0.361 N 
HETATM   21  C3  UNL     1      32.268   3.878  46.300  1.00  0.00     0.154 C 
HETATM   22  C2  UNL     1      33.099   4.318  45.115  1.00  0.00     0.030 C 
HETATM   23  C1  UNL     1      34.399   4.072  45.383  1.00  0.00     0.093 C 
HETATM   24  F1  UNL     1      35.316   4.405  44.422  1.00  0.00    -0.211 F 
HETATM   25  C19 UNL     1      35.066   3.478  46.583  1.00  0.00     0.089 C 
HETATM   26  C18 UNL     1      34.119   3.457  47.772  1.00  0.00     0.131 C 
ENDBRANCH   1  20
TORSDOF 7
ENDMDL
