MODEL 1
REMARK VINA RESULT:      -8.2      0.000      0.000
REMARK  5 active torsions:
REMARK  status: ('A' for Active; 'I' for Inactive)
REMARK    1  A    between atoms: C3_3  and  C4_4 
REMARK       I    between atoms: C4_4  and  N1_6 
REMARK    2  A    between atoms: N1_6  and  C5_7 
REMARK    3  A    between atoms: C9_12  and  C10_13 
REMARK    4  A    between atoms: C12_16  and  N4_17 
REMARK    5  A    between atoms: N4_17  and  C13_18 
ROOT
HETATM    1  C1  UNL     1      14.671  -1.768  51.924  1.00  0.00     0.112 C 
HETATM    2  C2  UNL     1      16.062  -1.324  52.066  1.00  0.00    -0.101 C 
HETATM    3  C3  UNL     1      17.199  -0.944  52.196  1.00  0.00    -0.006 C 
ENDROOT
BRANCH   3   4
HETATM    4  C4  UNL     1      18.557  -0.464  52.353  1.00  0.00     0.300 C 
HETATM    5  O1  UNL     1      19.219  -0.096  51.343  1.00  0.00    -0.258 OA
HETATM    6  N1  UNL     1      19.213  -0.378  53.593  1.00  0.00    -0.316 N 
HETATM    7  H4  UNL     1      18.708  -0.669  54.444  1.00  0.00     0.170 HD
BRANCH   6   8
HETATM    8  C5  UNL     1      20.530   0.126  53.444  1.00  0.00     0.039 A 
HETATM    9  C6  UNL     1      21.591  -0.601  53.756  1.00  0.00     0.060 A 
HETATM   10  C7  UNL     1      22.926  -0.045  53.588  1.00  0.00     0.056 A 
HETATM   11  C8  UNL     1      23.870  -0.893  53.948  1.00  0.00     0.146 A 
HETATM   12  N5  UNL     1      23.190   1.285  53.089  1.00  0.00    -0.328 N 
HETATM   13  N2  UNL     1      25.228  -0.494  53.843  1.00  0.00    -0.263 NA
HETATM   14  C9  UNL     1      25.484   0.700  53.392  1.00  0.00     0.067 A 
HETATM   15  C12 UNL     1      24.539   1.789  52.932  1.00  0.00     0.239 A 
HETATM   16  C19 UNL     1      21.982   1.941  52.800  1.00  0.00     0.096 A 
HETATM   17  C20 UNL     1      20.758   1.468  52.941  1.00  0.00     0.047 A 
BRANCH  14  18
HETATM   18  C10 UNL     1      26.886   1.203  53.248  1.00  0.00     0.182 C 
HETATM   19  C11 UNL     1      27.754   0.479  54.194  1.00  0.00     0.065 C 
HETATM   20  N3  UNL     1      28.440  -0.100  54.929  1.00  0.00    -0.197 NA
ENDBRANCH  14  18
BRANCH  15  21
HETATM   21  N4  UNL     1      24.771   2.102  51.552  1.00  0.00    -0.363 N 
HETATM   22  H10 UNL     1      24.479   1.285  50.934  1.00  0.00     0.162 HD
BRANCH  21  23
HETATM   23  C13 UNL     1      25.267   3.175  50.752  1.00  0.00     0.031 A 
HETATM   24  C14 UNL     1      26.395   3.056  49.931  1.00  0.00     0.029 A 
HETATM   25  C15 UNL     1      26.808   4.161  49.229  1.00  0.00     0.004 A 
HETATM   26  C16 UNL     1      26.169   5.379  49.293  1.00  0.00     0.019 A 
HETATM   27  C17 UNL     1      25.055   5.546  50.087  1.00  0.00     0.013 A 
HETATM   28 BR1  UNL     1      24.132   7.207  50.214  1.00  0.00    -0.051 Br
HETATM   29  C18 UNL     1      24.661   4.428  50.779  1.00  0.00     0.048 A 
ENDBRANCH  21  23
ENDBRANCH  15  21
ENDBRANCH   6   8
ENDBRANCH   3   4
TORSDOF 5
ENDMDL
MODEL 2
REMARK VINA RESULT:      -8.0      3.721      8.607
REMARK  5 active torsions:
REMARK  status: ('A' for Active; 'I' for Inactive)
REMARK    1  A    between atoms: C3_3  and  C4_4 
REMARK       I    between atoms: C4_4  and  N1_6 
REMARK    2  A    between atoms: N1_6  and  C5_7 
REMARK    3  A    between atoms: C9_12  and  C10_13 
REMARK    4  A    between atoms: C12_16  and  N4_17 
REMARK    5  A    between atoms: N4_17  and  C13_18 
ROOT
HETATM    1  C1  UNL     1      29.252   7.711  47.717  1.00  0.00     0.112 C 
HETATM    2  C2  UNL     1      28.092   6.958  48.203  1.00  0.00    -0.101 C 
HETATM    3  C3  UNL     1      27.124   6.354  48.597  1.00  0.00    -0.006 C 
ENDROOT
BRANCH   3   4
HETATM    4  C4  UNL     1      25.953   5.650  49.078  1.00  0.00     0.300 C 
HETATM    5  O1  UNL     1      24.834   5.830  48.523  1.00  0.00    -0.258 OA
HETATM    6  N1  UNL     1      25.975   4.751  50.158  1.00  0.00    -0.316 N 
HETATM    7  H4  UNL     1      26.870   4.575  50.640  1.00  0.00     0.170 HD
BRANCH   6   8
HETATM    8  C5  UNL     1      24.687   4.212  50.406  1.00  0.00     0.039 A 
HETATM    9  C6  UNL     1      24.162   3.280  49.627  1.00  0.00     0.060 A 
HETATM   10  C7  UNL     1      22.836   2.755  49.917  1.00  0.00     0.056 A 
HETATM   11  C8  UNL     1      22.459   1.841  49.045  1.00  0.00     0.146 A 
HETATM   12  N5  UNL     1      22.022   3.187  51.030  1.00  0.00    -0.328 N 
HETATM   13  N2  UNL     1      21.184   1.233  49.195  1.00  0.00    -0.263 NA
HETATM   14  C9  UNL     1      20.439   1.609  50.194  1.00  0.00     0.067 A 
HETATM   15  C12 UNL     1      20.709   2.626  51.281  1.00  0.00     0.239 A 
HETATM   16  C19 UNL     1      22.697   4.174  51.768  1.00  0.00     0.096 A 
HETATM   17  C20 UNL     1      23.896   4.671  51.533  1.00  0.00     0.047 A 
BRANCH  14  18
HETATM   18  C10 UNL     1      19.082   1.022  50.427  1.00  0.00     0.182 C 
HETATM   19  C11 UNL     1      18.060   2.024  50.075  1.00  0.00     0.065 C 
HETATM   20  N3  UNL     1      17.255   2.807  49.782  1.00  0.00    -0.197 NA
ENDBRANCH  14  18
BRANCH  15  21
HETATM   21  N4  UNL     1      20.703   1.996  52.568  1.00  0.00    -0.363 N 
HETATM   22  H10 UNL     1      19.988   2.462  53.205  1.00  0.00     0.162 HD
BRANCH  21  23
HETATM   23  C13 UNL     1      21.357   0.929  53.256  1.00  0.00     0.031 A 
HETATM   24  C14 UNL     1      20.705   0.106  54.183  1.00  0.00     0.029 A 
HETATM   25  C15 UNL     1      21.437  -0.869  54.814  1.00  0.00     0.004 A 
HETATM   26  C16 UNL     1      22.778  -1.077  54.582  1.00  0.00     0.019 A 
HETATM   27  C17 UNL     1      23.463  -0.292  53.679  1.00  0.00     0.013 A 
HETATM   28 BR1  UNL     1      25.317  -0.534  53.318  1.00  0.00    -0.051 Br
HETATM   29  C18 UNL     1      22.711   0.676  53.061  1.00  0.00     0.048 A 
ENDBRANCH  21  23
ENDBRANCH  15  21
ENDBRANCH   6   8
ENDBRANCH   3   4
TORSDOF 5
ENDMDL
MODEL 3
REMARK VINA RESULT:      -8.0      3.524      8.236
REMARK  5 active torsions:
REMARK  status: ('A' for Active; 'I' for Inactive)
REMARK    1  A    between atoms: C3_3  and  C4_4 
REMARK       I    between atoms: C4_4  and  N1_6 
REMARK    2  A    between atoms: N1_6  and  C5_7 
REMARK    3  A    between atoms: C9_12  and  C10_13 
REMARK    4  A    between atoms: C12_16  and  N4_17 
REMARK    5  A    between atoms: N4_17  and  C13_18 
ROOT
HETATM    1  C1  UNL     1      29.307   6.905  47.512  1.00  0.00     0.112 C 
HETATM    2  C2  UNL     1      28.306   6.019  48.116  1.00  0.00    -0.101 C 
HETATM    3  C3  UNL     1      27.478   5.284  48.593  1.00  0.00    -0.006 C 
ENDROOT
BRANCH   3   4
HETATM    4  C4  UNL     1      26.467   4.407  49.149  1.00  0.00     0.300 C 
HETATM    5  O1  UNL     1      26.709   3.177  49.297  1.00  0.00    -0.258 OA
HETATM    6  N1  UNL     1      25.192   4.844  49.546  1.00  0.00    -0.316 N 
HETATM    7  H4  UNL     1      24.953   5.842  49.442  1.00  0.00     0.170 HD
BRANCH   6   8
HETATM    8  C5  UNL     1      24.415   3.771  50.052  1.00  0.00     0.039 A 
HETATM    9  C6  UNL     1      24.690   3.200  51.214  1.00  0.00     0.060 A 
HETATM   10  C7  UNL     1      23.867   2.101  51.695  1.00  0.00     0.056 A 
HETATM   11  C8  UNL     1      24.278   1.642  52.862  1.00  0.00     0.146 A 
HETATM   12  N5  UNL     1      22.732   1.567  50.978  1.00  0.00    -0.328 N 
HETATM   13  N2  UNL     1      23.574   0.566  53.463  1.00  0.00    -0.263 NA
HETATM   14  C9  UNL     1      22.547   0.075  52.831  1.00  0.00     0.067 A 
HETATM   15  C12 UNL     1      21.938   0.476  51.505  1.00  0.00     0.239 A 
HETATM   16  C19 UNL     1      22.555   2.261  49.769  1.00  0.00     0.096 A 
HETATM   17  C20 UNL     1      23.282   3.259  49.303  1.00  0.00     0.047 A 
BRANCH  14  18
HETATM   18  C10 UNL     1      21.748  -1.059  53.391  1.00  0.00     0.182 C 
HETATM   19  C11 UNL     1      22.319  -1.452  54.692  1.00  0.00     0.065 C 
HETATM   20  N3  UNL     1      22.759  -1.751  55.723  1.00  0.00    -0.197 NA
ENDBRANCH  14  18
BRANCH  15  21
HETATM   21  N4  UNL     1      20.587   0.918  51.688  1.00  0.00    -0.363 N 
HETATM   22  H10 UNL     1      20.541   1.661  52.450  1.00  0.00     0.162 HD
BRANCH  21  23
HETATM   23  C13 UNL     1      19.284   0.672  51.158  1.00  0.00     0.031 A 
HETATM   24  C14 UNL     1      18.793   1.311  50.013  1.00  0.00     0.029 A 
HETATM   25  C15 UNL     1      17.513   1.027  49.609  1.00  0.00     0.004 A 
HETATM   26  C16 UNL     1      16.688   0.147  50.273  1.00  0.00     0.019 A 
HETATM   27  C17 UNL     1      17.126  -0.506  51.405  1.00  0.00     0.013 A 
HETATM   28 BR1  UNL     1      16.030  -1.735  52.363  1.00  0.00    -0.051 Br
HETATM   29  C18 UNL     1      18.409  -0.207  51.790  1.00  0.00     0.048 A 
ENDBRANCH  21  23
ENDBRANCH  15  21
ENDBRANCH   6   8
ENDBRANCH   3   4
TORSDOF 5
ENDMDL
MODEL 4
REMARK VINA RESULT:      -8.0      4.995      8.390
REMARK  5 active torsions:
REMARK  status: ('A' for Active; 'I' for Inactive)
REMARK    1  A    between atoms: C3_3  and  C4_4 
REMARK       I    between atoms: C4_4  and  N1_6 
REMARK    2  A    between atoms: N1_6  and  C5_7 
REMARK    3  A    between atoms: C9_12  and  C10_13 
REMARK    4  A    between atoms: C12_16  and  N4_17 
REMARK    5  A    between atoms: N4_17  and  C13_18 
ROOT
HETATM    1  C1  UNL     1      23.314  -0.581  53.715  1.00  0.00     0.112 C 
HETATM    2  C2  UNL     1      23.932   0.516  52.962  1.00  0.00    -0.101 C 
HETATM    3  C3  UNL     1      24.449   1.404  52.331  1.00  0.00    -0.006 C 
ENDROOT
BRANCH   3   4
HETATM    4  C4  UNL     1      25.091   2.457  51.570  1.00  0.00     0.300 C 
HETATM    5  O1  UNL     1      26.262   2.825  51.863  1.00  0.00    -0.258 OA
HETATM    6  N1  UNL     1      24.480   3.121  50.493  1.00  0.00    -0.316 N 
HETATM    7  H4  UNL     1      23.522   2.851  50.221  1.00  0.00     0.170 HD
BRANCH   6   8
HETATM    8  C5  UNL     1      25.341   4.102  49.939  1.00  0.00     0.039 A 
HETATM    9  C6  UNL     1      25.048   5.392  49.989  1.00  0.00     0.060 A 
HETATM   10  C7  UNL     1      25.960   6.366  49.406  1.00  0.00     0.056 A 
HETATM   11  C8  UNL     1      25.519   7.602  49.534  1.00  0.00     0.146 A 
HETATM   12  N5  UNL     1      27.204   6.020  48.757  1.00  0.00    -0.328 N 
HETATM   13  N2  UNL     1      26.301   8.667  49.014  1.00  0.00    -0.263 NA
HETATM   14  C9  UNL     1      27.426   8.374  48.429  1.00  0.00     0.067 A 
HETATM   15  C12 UNL     1      28.082   7.029  48.200  1.00  0.00     0.239 A 
HETATM   16  C19 UNL     1      27.387   4.627  48.775  1.00  0.00     0.096 A 
HETATM   17  C20 UNL     1      26.583   3.719  49.292  1.00  0.00     0.047 A 
BRANCH  14  18
HETATM   18  C10 UNL     1      28.312   9.432  47.852  1.00  0.00     0.182 C 
HETATM   19  C11 UNL     1      28.107  10.687  48.598  1.00  0.00     0.065 C 
HETATM   20  N3  UNL     1      27.957  11.671  49.194  1.00  0.00    -0.197 NA
ENDBRANCH  14  18
BRANCH  15  21
HETATM   21  N4  UNL     1      29.350   6.973  48.866  1.00  0.00    -0.363 N 
HETATM   22  H10 UNL     1      29.298   7.470  49.806  1.00  0.00     0.162 HD
BRANCH  21  23
HETATM   23  C13 UNL     1      30.662   6.448  48.657  1.00  0.00     0.031 A 
HETATM   24  C14 UNL     1      31.819   7.071  49.140  1.00  0.00     0.029 A 
HETATM   25  C15 UNL     1      33.033   6.499  48.853  1.00  0.00     0.004 A 
HETATM   26  C16 UNL     1      33.170   5.346  48.114  1.00  0.00     0.019 A 
HETATM   27  C17 UNL     1      32.061   4.696  47.617  1.00  0.00     0.013 A 
HETATM   28 BR1  UNL     1      32.190   3.097  46.590  1.00  0.00    -0.051 Br
HETATM   29  C18 UNL     1      30.858   5.286  47.916  1.00  0.00     0.048 A 
ENDBRANCH  21  23
ENDBRANCH  15  21
ENDBRANCH   6   8
ENDBRANCH   3   4
TORSDOF 5
ENDMDL
MODEL 5
REMARK VINA RESULT:      -7.9      3.636      8.203
REMARK  5 active torsions:
REMARK  status: ('A' for Active; 'I' for Inactive)
REMARK    1  A    between atoms: C3_3  and  C4_4 
REMARK       I    between atoms: C4_4  and  N1_6 
REMARK    2  A    between atoms: N1_6  and  C5_7 
REMARK    3  A    between atoms: C9_12  and  C10_13 
REMARK    4  A    between atoms: C12_16  and  N4_17 
REMARK    5  A    between atoms: N4_17  and  C13_18 
ROOT
HETATM    1  C1  UNL     1      29.830  -1.147  53.691  1.00  0.00     0.112 C 
HETATM    2  C2  UNL     1      28.640  -0.370  53.326  1.00  0.00    -0.101 C 
HETATM    3  C3  UNL     1      27.651   0.251  53.028  1.00  0.00    -0.006 C 
ENDROOT
BRANCH   3   4
HETATM    4  C4  UNL     1      26.454   0.978  52.655  1.00  0.00     0.300 C 
HETATM    5  O1  UNL     1      25.322   0.432  52.766  1.00  0.00    -0.258 OA
HETATM    6  N1  UNL     1      26.466   2.294  52.162  1.00  0.00    -0.316 N 
HETATM    7  H4  UNL     1      27.371   2.777  52.056  1.00  0.00     0.170 HD
BRANCH   6   8
HETATM    8  C5  UNL     1      25.153   2.750  51.882  1.00  0.00     0.039 A 
HETATM    9  C6  UNL     1      24.633   2.668  50.668  1.00  0.00     0.060 A 
HETATM   10  C7  UNL     1      23.280   3.150  50.425  1.00  0.00     0.056 A 
HETATM   11  C8  UNL     1      22.917   3.002  49.166  1.00  0.00     0.146 A 
HETATM   12  N5  UNL     1      22.433   3.728  51.442  1.00  0.00    -0.328 N 
HETATM   13  N2  UNL     1      21.621   3.426  48.771  1.00  0.00    -0.263 NA
HETATM   14  C9  UNL     1      20.843   3.946  49.676  1.00  0.00     0.067 A 
HETATM   15  C12 UNL     1      21.089   4.184  51.150  1.00  0.00     0.239 A 
HETATM   16  C19 UNL     1      23.107   3.753  52.675  1.00  0.00     0.096 A 
HETATM   17  C20 UNL     1      24.330   3.327  52.930  1.00  0.00     0.047 A 
BRANCH  14  18
HETATM   18  C10 UNL     1      19.463   4.420  49.349  1.00  0.00     0.182 C 
HETATM   19  C11 UNL     1      19.455   5.894  49.322  1.00  0.00     0.065 C 
HETATM   20  N3  UNL     1      19.453   7.054  49.287  1.00  0.00    -0.197 NA
ENDBRANCH  14  18
BRANCH  15  21
HETATM   21  N4  UNL     1      20.154   3.439  51.940  1.00  0.00    -0.363 N 
HETATM   22  H10 UNL     1      19.584   4.094  52.556  1.00  0.00     0.162 HD
BRANCH  21  23
HETATM   23  C13 UNL     1      19.748   2.086  52.149  1.00  0.00     0.031 A 
HETATM   24  C14 UNL     1      18.586   1.543  51.588  1.00  0.00     0.029 A 
HETATM   25  C15 UNL     1      18.271   0.239  51.882  1.00  0.00     0.004 A 
HETATM   26  C16 UNL     1      19.038  -0.558  52.700  1.00  0.00     0.019 A 
HETATM   27  C17 UNL     1      20.190  -0.068  53.277  1.00  0.00     0.013 A 
HETATM   28 BR1  UNL     1      21.290  -1.125  54.417  1.00  0.00    -0.051 Br
HETATM   29  C18 UNL     1      20.486   1.236  52.969  1.00  0.00     0.048 A 
ENDBRANCH  21  23
ENDBRANCH  15  21
ENDBRANCH   6   8
ENDBRANCH   3   4
TORSDOF 5
ENDMDL
MODEL 6
REMARK VINA RESULT:      -7.6      3.953      7.073
REMARK  5 active torsions:
REMARK  status: ('A' for Active; 'I' for Inactive)
REMARK    1  A    between atoms: C3_3  and  C4_4 
REMARK       I    between atoms: C4_4  and  N1_6 
REMARK    2  A    between atoms: N1_6  and  C5_7 
REMARK    3  A    between atoms: C9_12  and  C10_13 
REMARK    4  A    between atoms: C12_16  and  N4_17 
REMARK    5  A    between atoms: N4_17  and  C13_18 
ROOT
HETATM    1  C1  UNL     1      21.911  -1.647  54.680  1.00  0.00     0.112 C 
HETATM    2  C2  UNL     1      22.541  -0.620  53.843  1.00  0.00    -0.101 C 
HETATM    3  C3  UNL     1      23.044   0.238  53.161  1.00  0.00    -0.006 C 
ENDROOT
BRANCH   3   4
HETATM    4  C4  UNL     1      23.626   1.276  52.335  1.00  0.00     0.300 C 
HETATM    5  O1  UNL     1      23.357   1.330  51.103  1.00  0.00    -0.258 OA
HETATM    6  N1  UNL     1      24.499   2.262  52.826  1.00  0.00    -0.316 N 
HETATM    7  H4  UNL     1      24.746   2.254  53.827  1.00  0.00     0.170 HD
BRANCH   6   8
HETATM    8  C5  UNL     1      24.910   3.145  51.795  1.00  0.00     0.039 A 
HETATM    9  C6  UNL     1      24.273   4.280  51.557  1.00  0.00     0.060 A 
HETATM   10  C7  UNL     1      24.729   5.157  50.488  1.00  0.00     0.056 A 
HETATM   11  C8  UNL     1      23.984   6.240  50.379  1.00  0.00     0.146 A 
HETATM   12  N5  UNL     1      25.863   4.874  49.639  1.00  0.00    -0.328 N 
HETATM   13  N2  UNL     1      24.303   7.195  49.378  1.00  0.00    -0.263 NA
HETATM   14  C9  UNL     1      25.324   6.957  48.606  1.00  0.00     0.067 A 
HETATM   15  C12 UNL     1      26.282   5.785  48.593  1.00  0.00     0.239 A 
HETATM   16  C19 UNL     1      26.441   3.645  49.999  1.00  0.00     0.096 A 
HETATM   17  C20 UNL     1      26.054   2.827  50.959  1.00  0.00     0.047 A 
BRANCH  14  18
HETATM   18  C10 UNL     1      25.732   7.908  47.526  1.00  0.00     0.182 C 
HETATM   19  C11 UNL     1      25.706   9.281  48.061  1.00  0.00     0.065 C 
HETATM   20  N3  UNL     1      25.700  10.361  48.486  1.00  0.00    -0.197 NA
ENDBRANCH  14  18
BRANCH  15  21
HETATM   21  N4  UNL     1      27.618   6.228  48.858  1.00  0.00    -0.363 N 
HETATM   22  H10 UNL     1      27.727   6.480  49.887  1.00  0.00     0.162 HD
BRANCH  21  23
HETATM   23  C13 UNL     1      28.851   6.430  48.167  1.00  0.00     0.031 A 
HETATM   24  C14 UNL     1      29.094   7.541  47.349  1.00  0.00     0.029 A 
HETATM   25  C15 UNL     1      30.302   7.620  46.703  1.00  0.00     0.004 A 
HETATM   26  C16 UNL     1      31.285   6.664  46.817  1.00  0.00     0.019 A 
HETATM   27  C17 UNL     1      31.093   5.552  47.609  1.00  0.00     0.013 A 
HETATM   28 BR1  UNL     1      32.417   4.197  47.806  1.00  0.00    -0.051 Br
HETATM   29  C18 UNL     1      29.878   5.494  48.246  1.00  0.00     0.048 A 
ENDBRANCH  21  23
ENDBRANCH  15  21
ENDBRANCH   6   8
ENDBRANCH   3   4
TORSDOF 5
ENDMDL
MODEL 7
REMARK VINA RESULT:      -7.6      3.774      6.756
REMARK  5 active torsions:
REMARK  status: ('A' for Active; 'I' for Inactive)
REMARK    1  A    between atoms: C3_3  and  C4_4 
REMARK       I    between atoms: C4_4  and  N1_6 
REMARK    2  A    between atoms: N1_6  and  C5_7 
REMARK    3  A    between atoms: C9_12  and  C10_13 
REMARK    4  A    between atoms: C12_16  and  N4_17 
REMARK    5  A    between atoms: N4_17  and  C13_18 
ROOT
HETATM    1  C1  UNL     1      21.359   8.177  44.786  1.00  0.00     0.112 C 
HETATM    2  C2  UNL     1      21.710   7.245  45.862  1.00  0.00    -0.101 C 
HETATM    3  C3  UNL     1      21.998   6.462  46.733  1.00  0.00    -0.006 C 
ENDROOT
BRANCH   3   4
HETATM    4  C4  UNL     1      22.327   5.505  47.771  1.00  0.00     0.300 C 
HETATM    5  O1  UNL     1      22.376   5.872  48.977  1.00  0.00    -0.258 OA
HETATM    6  N1  UNL     1      22.606   4.151  47.519  1.00  0.00    -0.316 N 
HETATM    7  H4  UNL     1      22.577   3.809  46.546  1.00  0.00     0.170 HD
BRANCH   6   8
HETATM    8  C5  UNL     1      22.893   3.453  48.720  1.00  0.00     0.039 A 
HETATM    9  C6  UNL     1      22.124   2.467  49.152  1.00  0.00     0.060 A 
HETATM   10  C7  UNL     1      22.456   1.778  50.391  1.00  0.00     0.056 A 
HETATM   11  C8  UNL     1      21.588   0.829  50.682  1.00  0.00     0.146 A 
HETATM   12  N5  UNL     1      23.601   2.098  51.212  1.00  0.00    -0.328 N 
HETATM   13  N2  UNL     1      21.777   0.065  51.865  1.00  0.00    -0.263 NA
HETATM   14  C9  UNL     1      22.805   0.339  52.614  1.00  0.00     0.067 A 
HETATM   15  C12 UNL     1      23.893   1.376  52.433  1.00  0.00     0.239 A 
HETATM   16  C19 UNL     1      24.325   3.157  50.639  1.00  0.00     0.096 A 
HETATM   17  C20 UNL     1      24.053   3.803  49.521  1.00  0.00     0.047 A 
BRANCH  14  18
HETATM   18  C10 UNL     1      23.081  -0.415  53.877  1.00  0.00     0.182 C 
HETATM   19  C11 UNL     1      21.862  -1.139  54.279  1.00  0.00     0.065 C 
HETATM   20  N3  UNL     1      20.906  -1.721  54.587  1.00  0.00    -0.197 NA
ENDBRANCH  14  18
BRANCH  15  21
HETATM   21  N4  UNL     1      25.173   0.742  52.314  1.00  0.00    -0.363 N 
HETATM   22  H10 UNL     1      25.112  -0.094  51.659  1.00  0.00     0.162 HD
BRANCH  21  23
HETATM   23  C13 UNL     1      26.507   0.893  52.802  1.00  0.00     0.031 A 
HETATM   24  C14 UNL     1      27.055   2.133  53.154  1.00  0.00     0.029 A 
HETATM   25  C15 UNL     1      28.359   2.169  53.579  1.00  0.00     0.004 A 
HETATM   26  C16 UNL     1      29.154   1.049  53.676  1.00  0.00     0.019 A 
HETATM   27  C17 UNL     1      28.660  -0.193  53.340  1.00  0.00     0.013 A 
HETATM   28 BR1  UNL     1      29.714  -1.776  53.454  1.00  0.00    -0.051 Br
HETATM   29  C18 UNL     1      27.354  -0.205  52.918  1.00  0.00     0.048 A 
ENDBRANCH  21  23
ENDBRANCH  15  21
ENDBRANCH   6   8
ENDBRANCH   3   4
TORSDOF 5
ENDMDL
MODEL 8
REMARK VINA RESULT:      -7.5      3.279      7.660
REMARK  5 active torsions:
REMARK  status: ('A' for Active; 'I' for Inactive)
REMARK    1  A    between atoms: C3_3  and  C4_4 
REMARK       I    between atoms: C4_4  and  N1_6 
REMARK    2  A    between atoms: N1_6  and  C5_7 
REMARK    3  A    between atoms: C9_12  and  C10_13 
REMARK    4  A    between atoms: C12_16  and  N4_17 
REMARK    5  A    between atoms: N4_17  and  C13_18 
ROOT
HETATM    1  C1  UNL     1      24.682  10.887  47.882  1.00  0.00     0.112 C 
HETATM    2  C2  UNL     1      24.674   9.499  48.357  1.00  0.00    -0.101 C 
HETATM    3  C3  UNL     1      24.664   8.365  48.767  1.00  0.00    -0.006 C 
ENDROOT
BRANCH   3   4
HETATM    4  C4  UNL     1      24.663   7.010  49.280  1.00  0.00     0.300 C 
HETATM    5  O1  UNL     1      24.703   6.804  50.524  1.00  0.00    -0.258 OA
HETATM    6  N1  UNL     1      24.618   5.869  48.460  1.00  0.00    -0.316 N 
HETATM    7  H4  UNL     1      24.585   5.992  47.437  1.00  0.00     0.170 HD
BRANCH   6   8
HETATM    8  C5  UNL     1      24.628   4.680  49.234  1.00  0.00     0.039 A 
HETATM    9  C6  UNL     1      25.712   4.279  49.879  1.00  0.00     0.060 A 
HETATM   10  C7  UNL     1      25.678   3.052  50.661  1.00  0.00     0.056 A 
HETATM   11  C8  UNL     1      26.837   2.793  51.234  1.00  0.00     0.146 A 
HETATM   12  N5  UNL     1      24.511   2.210  50.793  1.00  0.00    -0.328 N 
HETATM   13  N2  UNL     1      26.963   1.625  52.032  1.00  0.00    -0.263 NA
HETATM   14  C9  UNL     1      25.920   0.857  52.164  1.00  0.00     0.067 A 
HETATM   15  C12 UNL     1      24.526   1.001  51.591  1.00  0.00     0.239 A 
HETATM   16  C19 UNL     1      23.440   2.751  50.061  1.00  0.00     0.096 A 
HETATM   17  C20 UNL     1      23.437   3.857  49.343  1.00  0.00     0.047 A 
BRANCH  14  18
HETATM   18  C10 UNL     1      25.962  -0.392  52.986  1.00  0.00     0.182 C 
HETATM   19  C11 UNL     1      26.598  -0.092  54.281  1.00  0.00     0.065 C 
HETATM   20  N3  UNL     1      27.084   0.147  55.308  1.00  0.00    -0.197 NA
ENDBRANCH  14  18
BRANCH  15  21
HETATM   21  N4  UNL     1      23.563   1.118  52.645  1.00  0.00    -0.363 N 
HETATM   22  H10 UNL     1      23.756   1.987  53.229  1.00  0.00     0.162 HD
BRANCH  21  23
HETATM   23  C13 UNL     1      22.418   0.428  53.149  1.00  0.00     0.031 A 
HETATM   24  C14 UNL     1      22.444  -0.336  54.323  1.00  0.00     0.029 A 
HETATM   25  C15 UNL     1      21.295  -0.986  54.700  1.00  0.00     0.004 A 
HETATM   26  C16 UNL     1      20.121  -0.925  53.983  1.00  0.00     0.019 A 
HETATM   27  C17 UNL     1      20.047  -0.187  52.821  1.00  0.00     0.013 A 
HETATM   28 BR1  UNL     1      18.451  -0.066  51.788  1.00  0.00    -0.051 Br
HETATM   29  C18 UNL     1      21.207   0.455  52.464  1.00  0.00     0.048 A 
ENDBRANCH  21  23
ENDBRANCH  15  21
ENDBRANCH   6   8
ENDBRANCH   3   4
TORSDOF 5
ENDMDL
MODEL 9
REMARK VINA RESULT:      -7.5      3.927      6.855
REMARK  5 active torsions:
REMARK  status: ('A' for Active; 'I' for Inactive)
REMARK    1  A    between atoms: C3_3  and  C4_4 
REMARK       I    between atoms: C4_4  and  N1_6 
REMARK    2  A    between atoms: N1_6  and  C5_7 
REMARK    3  A    between atoms: C9_12  and  C10_13 
REMARK    4  A    between atoms: C12_16  and  N4_17 
REMARK    5  A    between atoms: N4_17  and  C13_18 
ROOT
HETATM    1  C1  UNL     1      20.808  10.849  48.690  1.00  0.00     0.112 C 
HETATM    2  C2  UNL     1      21.204   9.546  49.234  1.00  0.00    -0.101 C 
HETATM    3  C3  UNL     1      21.529   8.467  49.662  1.00  0.00    -0.006 C 
ENDROOT
BRANCH   3   4
HETATM    4  C4  UNL     1      21.901   7.159  50.163  1.00  0.00     0.300 C 
HETATM    5  O1  UNL     1      21.456   6.755  51.272  1.00  0.00    -0.258 OA
HETATM    6  N1  UNL     1      22.753   6.277  49.476  1.00  0.00    -0.316 N 
HETATM    7  H4  UNL     1      23.140   6.568  48.565  1.00  0.00     0.170 HD
BRANCH   6   8
HETATM    8  C5  UNL     1      22.941   5.073  50.201  1.00  0.00     0.039 A 
HETATM    9  C6  UNL     1      22.138   4.033  50.040  1.00  0.00     0.060 A 
HETATM   10  C7  UNL     1      22.366   2.816  50.805  1.00  0.00     0.056 A 
HETATM   11  C8  UNL     1      21.477   1.880  50.532  1.00  0.00     0.146 A 
HETATM   12  N5  UNL     1      23.439   2.650  51.758  1.00  0.00    -0.328 N 
HETATM   13  N2  UNL     1      21.567   0.632  51.201  1.00  0.00    -0.263 NA
HETATM   14  C9  UNL     1      22.530   0.464  52.061  1.00  0.00     0.067 A 
HETATM   15  C12 UNL     1      23.629   1.413  52.489  1.00  0.00     0.239 A 
HETATM   16  C19 UNL     1      24.208   3.824  51.829  1.00  0.00     0.096 A 
HETATM   17  C20 UNL     1      24.029   4.942  51.152  1.00  0.00     0.047 A 
BRANCH  14  18
HETATM   18  C10 UNL     1      22.700  -0.819  52.812  1.00  0.00     0.182 C 
HETATM   19  C11 UNL     1      22.113  -0.669  54.156  1.00  0.00     0.065 C 
HETATM   20  N3  UNL     1      21.637  -0.556  55.208  1.00  0.00    -0.197 NA
ENDBRANCH  14  18
BRANCH  15  21
HETATM   21  N4  UNL     1      24.914   0.867  52.169  1.00  0.00    -0.363 N 
HETATM   22  H10 UNL     1      24.855   0.271  51.289  1.00  0.00     0.162 HD
BRANCH  21  23
HETATM   23  C13 UNL     1      26.253   0.881  52.667  1.00  0.00     0.031 A 
HETATM   24  C14 UNL     1      26.916   2.057  53.038  1.00  0.00     0.029 A 
HETATM   25  C15 UNL     1      28.215   1.960  53.472  1.00  0.00     0.004 A 
HETATM   26  C16 UNL     1      28.897   0.768  53.559  1.00  0.00     0.019 A 
HETATM   27  C17 UNL     1      28.287  -0.416  53.203  1.00  0.00     0.013 A 
HETATM   28 BR1  UNL     1      29.181  -2.095  53.303  1.00  0.00    -0.051 Br
HETATM   29  C18 UNL     1      26.989  -0.296  52.774  1.00  0.00     0.048 A 
ENDBRANCH  21  23
ENDBRANCH  15  21
ENDBRANCH   6   8
ENDBRANCH   3   4
TORSDOF 5
ENDMDL
