MODEL 1
REMARK VINA RESULT:      -9.1      0.000      0.000
REMARK  4 active torsions:
REMARK  status: ('A' for Active; 'I' for Inactive)
REMARK    1  A    between atoms: C2_2  and  N1_3 
REMARK    2  A    between atoms: N1_3  and  C3_4 
REMARK    3  A    between atoms: C14_19  and  N6_20 
REMARK       I    between atoms: N6_20  and  C15_21 
REMARK    4  A    between atoms: C15_21  and  C16_23 
ROOT
HETATM    1  C3  UNL     1      23.714   3.752  52.319  1.00  0.00     0.126 C 
HETATM    2  C4  UNL     1      24.772   2.961  52.585  1.00  0.00     0.048 C 
HETATM    3  C5  UNL     1      25.422   1.704  52.989  1.00  0.00     0.114 C 
HETATM    4  C6  UNL     1      26.395   1.305  51.885  1.00  0.00     0.031 C 
HETATM    5  C7  UNL     1      26.893  -0.108  52.096  1.00  0.00     0.032 C 
HETATM    6  C8  UNL     1      27.165  -0.424  53.526  1.00  0.00     0.272 C 
HETATM    7  N2  UNL     1      26.056  -0.915  54.274  1.00  0.00     0.102 N 
HETATM    8  C9  UNL     1      24.763  -0.730  53.703  1.00  0.00     0.518 C 
HETATM    9  N3  UNL     1      24.519   0.600  53.224  1.00  0.00    -0.326 N 
HETATM   10  C10 UNL     1      23.135   0.398  53.081  1.00  0.00     0.151 C 
HETATM   11  N4  UNL     1      22.234   0.928  52.259  1.00  0.00    -0.210 NA
HETATM   12  C11 UNL     1      21.653   2.272  52.284  1.00  0.00     0.134 C 
HETATM   13  N5  UNL     1      22.407   3.294  52.002  1.00  0.00    -0.216 NA
HETATM   14  C12 UNL     1      20.203   2.521  52.624  1.00  0.00     0.110 C 
HETATM   15  C13 UNL     1      19.317   2.095  51.542  1.00  0.00     0.010 C 
HETATM   16  C14 UNL     1      19.085   0.791  51.626  1.00  0.00     0.031 C 
HETATM   17  C19 UNL     1      19.467  -0.284  52.506  1.00  0.00     0.026 C 
HETATM   18  C20 UNL     1      20.136  -0.609  53.599  1.00  0.00    -0.015 C 
HETATM   19  C21 UNL     1      20.966  -0.267  54.763  1.00  0.00     0.089 C 
HETATM   20  S1  UNL     1      22.717  -0.831  54.399  1.00  0.00    -0.171 SA
HETATM   21  H13 UNL     1      26.153  -0.553  55.249  1.00  0.00     0.318 HD
ENDROOT
BRANCH   1  22
HETATM   22  N1  UNL     1      23.895   5.144  52.352  1.00  0.00    -0.343 N 
HETATM   23  H4  UNL     1      24.134   5.790  53.126  1.00  0.00     0.164 HD
BRANCH  22  24
HETATM   24  C2  UNL     1      23.692   5.691  51.032  1.00  0.00     0.154 A 
HETATM   25  C1  UNL     1      24.511   5.022  49.949  1.00  0.00     0.071 C 
HETATM   26  C22 UNL     1      23.810   7.176  50.983  1.00  0.00     0.165 A 
HETATM   27  N7  UNL     1      22.558   7.230  50.610  1.00  0.00    -0.189 NA
HETATM   28  N8  UNL     1      22.309   5.841  50.615  1.00  0.00    -0.281 N 
HETATM   29  H30 UNL     1      21.289   5.867  50.314  1.00  0.00     0.185 HD
ENDBRANCH  22  24
ENDBRANCH   1  22
BRANCH  16  30
HETATM   30  N6  UNL     1      18.242   0.579  50.535  1.00  0.00    -0.327 N 
HETATM   31  C15 UNL     1      16.876   0.442  50.899  1.00  0.00     0.226 C 
HETATM   32  O1  UNL     1      16.567   0.518  52.108  1.00  0.00    -0.273 OA
HETATM   33  H19 UNL     1      18.461   0.509  49.516  1.00  0.00     0.169 HD
BRANCH  31  34
HETATM   34  C16 UNL     1      15.817   0.211  49.856  1.00  0.00     0.078 A 
HETATM   35  C17 UNL     1      16.100  -0.823  48.840  1.00  0.00     0.015 A 
HETATM   36  C18 UNL     1      15.191  -1.170  49.962  1.00  0.00     0.015 A 
ENDBRANCH  31  34
ENDBRANCH  16  30
TORSDOF 4
ENDMDL
MODEL 2
REMARK VINA RESULT:      -8.4      6.511     10.482
REMARK  4 active torsions:
REMARK  status: ('A' for Active; 'I' for Inactive)
REMARK    1  A    between atoms: C2_2  and  N1_3 
REMARK    2  A    between atoms: N1_3  and  C3_4 
REMARK    3  A    between atoms: C14_19  and  N6_20 
REMARK       I    between atoms: N6_20  and  C15_21 
REMARK    4  A    between atoms: C15_21  and  C16_23 
ROOT
HETATM    1  C3  UNL     1      29.718   7.915  47.773  1.00  0.00     0.126 C 
HETATM    2  C4  UNL     1      29.960   9.239  47.707  1.00  0.00     0.048 C 
HETATM    3  C5  UNL     1      29.589  10.662  47.771  1.00  0.00     0.114 C 
HETATM    4  C6  UNL     1      30.505  11.338  48.784  1.00  0.00     0.031 C 
HETATM    5  C7  UNL     1      30.009  12.730  49.109  1.00  0.00     0.032 C 
HETATM    6  C8  UNL     1      29.492  13.459  47.917  1.00  0.00     0.272 C 
HETATM    7  N2  UNL     1      28.115  13.253  47.614  1.00  0.00     0.102 N 
HETATM    8  C9  UNL     1      27.477  12.142  48.240  1.00  0.00     0.518 C 
HETATM    9  N3  UNL     1      28.218  10.917  48.153  1.00  0.00    -0.326 N 
HETATM   10  C10 UNL     1      27.136  10.121  48.569  1.00  0.00     0.151 C 
HETATM   11  N4  UNL     1      27.076   8.963  49.219  1.00  0.00    -0.210 NA
HETATM   12  C11 UNL     1      27.384   7.619  48.724  1.00  0.00     0.134 C 
HETATM   13  N5  UNL     1      28.617   7.315  48.440  1.00  0.00    -0.216 NA
HETATM   14  C12 UNL     1      26.321   6.565  48.529  1.00  0.00     0.110 C 
HETATM   15  C13 UNL     1      25.838   6.046  49.807  1.00  0.00     0.010 C 
HETATM   16  C14 UNL     1      24.910   6.852  50.309  1.00  0.00     0.031 C 
HETATM   17  C19 UNL     1      24.261   8.075  49.910  1.00  0.00     0.026 C 
HETATM   18  C20 UNL     1      24.161   8.994  48.965  1.00  0.00    -0.015 C 
HETATM   19  C21 UNL     1      24.524   9.556  47.656  1.00  0.00     0.089 C 
HETATM   20  S1  UNL     1      25.644  11.029  47.959  1.00  0.00    -0.171 SA
HETATM   21  H13 UNL     1      28.019  13.276  46.574  1.00  0.00     0.318 HD
ENDROOT
BRANCH   1  22
HETATM   22  N1  UNL     1      30.613   7.039  47.138  1.00  0.00    -0.343 N 
HETATM   23  H4  UNL     1      30.640   6.660  46.174  1.00  0.00     0.164 HD
BRANCH  22  24
HETATM   24  C2  UNL     1      31.647   6.646  48.065  1.00  0.00     0.154 A 
HETATM   25  C1  UNL     1      32.947   7.404  47.903  1.00  0.00     0.071 C 
HETATM   26  C22 UNL     1      31.864   5.173  48.119  1.00  0.00     0.165 A 
HETATM   27  N7  UNL     1      31.499   5.199  49.374  1.00  0.00    -0.189 NA
HETATM   28  N8  UNL     1      31.255   6.586  49.462  1.00  0.00    -0.281 N 
HETATM   29  H30 UNL     1      30.955   6.625  50.481  1.00  0.00     0.185 HD
ENDBRANCH  22  24
ENDBRANCH   1  22
BRANCH  16  30
HETATM   30  N6  UNL     1      24.582   6.204  51.501  1.00  0.00    -0.327 N 
HETATM   31  C15 UNL     1      23.565   5.226  51.346  1.00  0.00     0.226 C 
HETATM   32  O1  UNL     1      23.075   5.043  50.211  1.00  0.00    -0.273 OA
HETATM   33  H19 UNL     1      24.966   6.329  52.464  1.00  0.00     0.169 HD
BRANCH  31  34
HETATM   34  C16 UNL     1      23.080   4.422  52.522  1.00  0.00     0.078 A 
HETATM   35  C17 UNL     1      22.682   3.026  52.254  1.00  0.00     0.015 A 
HETATM   36  C18 UNL     1      24.014   3.272  52.863  1.00  0.00     0.015 A 
ENDBRANCH  31  34
ENDBRANCH  16  30
TORSDOF 4
ENDMDL
MODEL 3
REMARK VINA RESULT:      -8.2      5.120      8.960
REMARK  4 active torsions:
REMARK  status: ('A' for Active; 'I' for Inactive)
REMARK    1  A    between atoms: C2_2  and  N1_3 
REMARK    2  A    between atoms: N1_3  and  C3_4 
REMARK    3  A    between atoms: C14_19  and  N6_20 
REMARK       I    between atoms: N6_20  and  C15_21 
REMARK    4  A    between atoms: C15_21  and  C16_23 
ROOT
HETATM    1  C3  UNL     1      28.717   6.621  47.831  1.00  0.00     0.126 C 
HETATM    2  C4  UNL     1      28.229   7.859  47.620  1.00  0.00     0.048 C 
HETATM    3  C5  UNL     1      27.171   8.881  47.587  1.00  0.00     0.114 C 
HETATM    4  C6  UNL     1      27.631  10.057  48.443  1.00  0.00     0.031 C 
HETATM    5  C7  UNL     1      26.490  11.021  48.683  1.00  0.00     0.032 C 
HETATM    6  C8  UNL     1      25.630  11.221  47.483  1.00  0.00     0.272 C 
HETATM    7  N2  UNL     1      24.556  10.297  47.331  1.00  0.00     0.102 N 
HETATM    8  C9  UNL     1      24.614   9.107  48.114  1.00  0.00     0.518 C 
HETATM    9  N3  UNL     1      25.883   8.440  48.071  1.00  0.00    -0.326 N 
HETATM   10  C10 UNL     1      25.390   7.261  48.659  1.00  0.00     0.151 C 
HETATM   11  N4  UNL     1      25.966   6.332  49.417  1.00  0.00    -0.210 NA
HETATM   12  C11 UNL     1      26.915   5.289  49.021  1.00  0.00     0.134 C 
HETATM   13  N5  UNL     1      28.115   5.631  48.652  1.00  0.00    -0.216 NA
HETATM   14  C12 UNL     1      26.555   3.823  49.025  1.00  0.00     0.110 C 
HETATM   15  C13 UNL     1      26.456   3.298  50.386  1.00  0.00     0.010 C 
HETATM   16  C14 UNL     1      25.261   3.566  50.896  1.00  0.00     0.031 C 
HETATM   17  C19 UNL     1      24.056   4.217  50.448  1.00  0.00     0.026 C 
HETATM   18  C20 UNL     1      23.459   4.824  49.437  1.00  0.00    -0.015 C 
HETATM   19  C21 UNL     1      23.432   5.319  48.053  1.00  0.00     0.089 C 
HETATM   20  S1  UNL     1      23.625   7.183  48.112  1.00  0.00    -0.171 SA
HETATM   21  H13 UNL     1      24.428  10.134  46.307  1.00  0.00     0.318 HD
ENDROOT
BRANCH   1  22
HETATM   22  N1  UNL     1      29.917   6.259  47.198  1.00  0.00    -0.343 N 
HETATM   23  H4  UNL     1      30.109   5.847  46.267  1.00  0.00     0.164 HD
BRANCH  22  24
HETATM   24  C2  UNL     1      31.032   6.544  48.070  1.00  0.00     0.154 A 
HETATM   25  C1  UNL     1      31.804   7.793  47.703  1.00  0.00     0.071 C 
HETATM   26  C22 UNL     1      31.930   5.375  48.282  1.00  0.00     0.165 A 
HETATM   27  N7  UNL     1      31.623   5.412  49.553  1.00  0.00    -0.189 NA
HETATM   28  N8  UNL     1      30.744   6.514  49.493  1.00  0.00    -0.281 N 
HETATM   29  H30 UNL     1      30.483   6.557  50.523  1.00  0.00     0.185 HD
ENDBRANCH  22  24
ENDBRANCH   1  22
BRANCH  16  30
HETATM   30  N6  UNL     1      25.359   3.001  52.168  1.00  0.00    -0.327 N 
HETATM   31  C15 UNL     1      24.655   1.774  52.293  1.00  0.00     0.226 C 
HETATM   32  O1  UNL     1      24.038   1.333  51.300  1.00  0.00    -0.273 OA
HETATM   33  H19 UNL     1      25.860   3.339  53.020  1.00  0.00     0.169 HD
BRANCH  31  34
HETATM   34  C16 UNL     1      24.647   1.016  53.592  1.00  0.00     0.078 A 
HETATM   35  C17 UNL     1      24.127  -0.365  53.553  1.00  0.00     0.015 A 
HETATM   36  C18 UNL     1      25.599  -0.169  53.578  1.00  0.00     0.015 A 
ENDBRANCH  31  34
ENDBRANCH  16  30
TORSDOF 4
ENDMDL
MODEL 4
REMARK VINA RESULT:      -7.9      2.730      6.923
REMARK  4 active torsions:
REMARK  status: ('A' for Active; 'I' for Inactive)
REMARK    1  A    between atoms: C2_2  and  N1_3 
REMARK    2  A    between atoms: N1_3  and  C3_4 
REMARK    3  A    between atoms: C14_19  and  N6_20 
REMARK       I    between atoms: N6_20  and  C15_21 
REMARK    4  A    between atoms: C15_21  and  C16_23 
ROOT
HETATM    1  C3  UNL     1      20.995   1.383  50.008  1.00  0.00     0.126 C 
HETATM    2  C4  UNL     1      20.862   0.664  51.139  1.00  0.00     0.048 C 
HETATM    3  C5  UNL     1      21.344   0.052  52.388  1.00  0.00     0.114 C 
HETATM    4  C6  UNL     1      20.450   0.540  53.523  1.00  0.00     0.031 C 
HETATM    5  C7  UNL     1      21.046   0.179  54.866  1.00  0.00     0.032 C 
HETATM    6  C8  UNL     1      21.660  -1.178  54.887  1.00  0.00     0.272 C 
HETATM    7  N2  UNL     1      23.025  -1.246  54.486  1.00  0.00     0.102 N 
HETATM    8  C9  UNL     1      23.550  -0.115  53.794  1.00  0.00     0.518 C 
HETATM    9  N3  UNL     1      22.717   0.355  52.725  1.00  0.00    -0.326 N 
HETATM   10  C10 UNL     1      23.717   1.180  52.180  1.00  0.00     0.151 C 
HETATM   11  N4  UNL     1      23.661   2.315  51.489  1.00  0.00    -0.210 NA
HETATM   12  C11 UNL     1      23.263   2.517  50.094  1.00  0.00     0.134 C 
HETATM   13  N5  UNL     1      22.021   2.333  49.756  1.00  0.00    -0.216 NA
HETATM   14  C12 UNL     1      24.244   2.935  49.025  1.00  0.00     0.110 C 
HETATM   15  C13 UNL     1      24.639   4.334  49.176  1.00  0.00     0.010 C 
HETATM   16  C14 UNL     1      25.611   4.443  50.073  1.00  0.00     0.031 C 
HETATM   17  C19 UNL     1      26.369   3.544  50.906  1.00  0.00     0.026 C 
HETATM   18  C20 UNL     1      26.576   2.281  51.237  1.00  0.00    -0.015 C 
HETATM   19  C21 UNL     1      26.304   0.842  51.101  1.00  0.00     0.089 C 
HETATM   20  S1  UNL     1      25.297   0.311  52.591  1.00  0.00    -0.171 SA
HETATM   21  H13 UNL     1      23.159  -2.155  53.991  1.00  0.00     0.318 HD
ENDROOT
BRANCH   1  22
HETATM   22  N1  UNL     1      20.055   1.195  48.982  1.00  0.00    -0.343 N 
HETATM   23  H4  UNL     1      20.018   0.522  48.195  1.00  0.00     0.164 HD
BRANCH  22  24
HETATM   24  C2  UNL     1      18.983   2.151  49.124  1.00  0.00     0.154 A 
HETATM   25  C1  UNL     1      17.690   1.561  49.646  1.00  0.00     0.071 C 
HETATM   26  C22 UNL     1      18.766   2.982  47.907  1.00  0.00     0.165 A 
HETATM   27  N7  UNL     1      19.077   4.038  48.612  1.00  0.00    -0.189 NA
HETATM   28  N8  UNL     1      19.316   3.374  49.834  1.00  0.00    -0.281 N 
HETATM   29  H30 UNL     1      19.573   4.222  50.421  1.00  0.00     0.185 HD
ENDBRANCH  22  24
ENDBRANCH   1  22
BRANCH  16  30
HETATM   30  N6  UNL     1      25.844   5.819  50.078  1.00  0.00    -0.327 N 
HETATM   31  C15 UNL     1      24.815   6.560  50.717  1.00  0.00     0.226 C 
HETATM   32  O1  UNL     1      23.838   5.943  51.193  1.00  0.00    -0.273 OA
HETATM   33  H19 UNL     1      26.643   6.369  49.691  1.00  0.00     0.169 HD
BRANCH  31  34
HETATM   34  C16 UNL     1      24.893   8.059  50.821  1.00  0.00     0.078 A 
HETATM   35  C17 UNL     1      25.962   8.724  50.049  1.00  0.00     0.015 A 
HETATM   36  C18 UNL     1      24.580   8.749  49.503  1.00  0.00     0.015 A 
ENDBRANCH  31  34
ENDBRANCH  16  30
TORSDOF 4
ENDMDL
MODEL 5
REMARK VINA RESULT:      -7.8      3.130      7.725
REMARK  4 active torsions:
REMARK  status: ('A' for Active; 'I' for Inactive)
REMARK    1  A    between atoms: C2_2  and  N1_3 
REMARK    2  A    between atoms: N1_3  and  C3_4 
REMARK    3  A    between atoms: C14_19  and  N6_20 
REMARK       I    between atoms: N6_20  and  C15_21 
REMARK    4  A    between atoms: C15_21  and  C16_23 
ROOT
HETATM    1  C3  UNL     1      19.795   1.665  49.449  1.00  0.00     0.126 C 
HETATM    2  C4  UNL     1      19.907   2.643  48.530  1.00  0.00     0.048 C 
HETATM    3  C5  UNL     1      20.445   3.901  47.988  1.00  0.00     0.114 C 
HETATM    4  C6  UNL     1      21.010   3.609  46.603  1.00  0.00     0.031 C 
HETATM    5  C7  UNL     1      21.824   4.780  46.099  1.00  0.00     0.032 C 
HETATM    6  C8  UNL     1      21.215   6.100  46.430  1.00  0.00     0.272 C 
HETATM    7  N2  UNL     1      21.576   6.648  47.694  1.00  0.00     0.102 N 
HETATM    8  C9  UNL     1      22.177   5.759  48.634  1.00  0.00     0.518 C 
HETATM    9  N3  UNL     1      21.483   4.513  48.786  1.00  0.00    -0.326 N 
HETATM   10  C10 UNL     1      22.187   4.154  49.949  1.00  0.00     0.151 C 
HETATM   11  N4  UNL     1      22.520   2.973  50.464  1.00  0.00    -0.210 NA
HETATM   12  C11 UNL     1      21.663   1.994  51.135  1.00  0.00     0.134 C 
HETATM   13  N5  UNL     1      20.764   1.359  50.443  1.00  0.00    -0.216 NA
HETATM   14  C12 UNL     1      21.783   1.689  52.609  1.00  0.00     0.110 C 
HETATM   15  C13 UNL     1      22.990   0.919  52.902  1.00  0.00     0.010 C 
HETATM   16  C14 UNL     1      24.036   1.730  53.011  1.00  0.00     0.031 C 
HETATM   17  C19 UNL     1      24.271   3.149  52.932  1.00  0.00     0.026 C 
HETATM   18  C20 UNL     1      23.714   4.336  52.762  1.00  0.00    -0.015 C 
HETATM   19  C21 UNL     1      22.547   5.203  52.546  1.00  0.00     0.089 C 
HETATM   20  S1  UNL     1      22.582   5.769  50.758  1.00  0.00    -0.171 SA
HETATM   21  H13 UNL     1      20.744   7.163  48.059  1.00  0.00     0.318 HD
ENDROOT
BRANCH   1  22
HETATM   22  N1  UNL     1      18.637   0.871  49.445  1.00  0.00    -0.343 N 
HETATM   23  H4  UNL     1      18.222   0.261  48.717  1.00  0.00     0.164 HD
BRANCH  22  24
HETATM   24  C2  UNL     1      17.966   0.983  50.718  1.00  0.00     0.154 A 
HETATM   25  C1  UNL     1      18.160  -0.210  51.629  1.00  0.00     0.071 C 
HETATM   26  C22 UNL     1      16.531   1.366  50.598  1.00  0.00     0.165 A 
HETATM   27  N7  UNL     1      16.804   2.463  51.255  1.00  0.00    -0.189 NA
HETATM   28  N8  UNL     1      18.183   2.225  51.439  1.00  0.00    -0.281 N 
HETATM   29  H30 UNL     1      18.421   3.112  51.973  1.00  0.00     0.185 HD
ENDBRANCH  22  24
ENDBRANCH   1  22
BRANCH  16  30
HETATM   30  N6  UNL     1      25.068   0.830  53.284  1.00  0.00    -0.327 N 
HETATM   31  C15 UNL     1      26.030   0.749  52.243  1.00  0.00     0.226 C 
HETATM   32  O1  UNL     1      25.873   1.455  51.223  1.00  0.00    -0.273 OA
HETATM   33  H19 UNL     1      25.232   0.224  54.118  1.00  0.00     0.169 HD
BRANCH  31  34
HETATM   34  C16 UNL     1      27.218  -0.167  52.358  1.00  0.00     0.078 A 
HETATM   35  C17 UNL     1      27.493  -0.735  53.693  1.00  0.00     0.015 A 
HETATM   36  C18 UNL     1      26.818  -1.596  52.688  1.00  0.00     0.015 A 
ENDBRANCH  31  34
ENDBRANCH  16  30
TORSDOF 4
ENDMDL
MODEL 6
REMARK VINA RESULT:      -7.7      4.147      8.918
REMARK  4 active torsions:
REMARK  status: ('A' for Active; 'I' for Inactive)
REMARK    1  A    between atoms: C2_2  and  N1_3 
REMARK    2  A    between atoms: N1_3  and  C3_4 
REMARK    3  A    between atoms: C14_19  and  N6_20 
REMARK       I    between atoms: N6_20  and  C15_21 
REMARK    4  A    between atoms: C15_21  and  C16_23 
ROOT
HETATM    1  C3  UNL     1      24.256   3.305  51.975  1.00  0.00     0.126 C 
HETATM    2  C4  UNL     1      23.154   2.638  51.581  1.00  0.00     0.048 C 
HETATM    3  C5  UNL     1      21.859   2.500  50.895  1.00  0.00     0.114 C 
HETATM    4  C6  UNL     1      21.963   1.321  49.934  1.00  0.00     0.031 C 
HETATM    5  C7  UNL     1      20.775   1.288  48.998  1.00  0.00     0.032 C 
HETATM    6  C8  UNL     1      19.491   1.634  49.671  1.00  0.00     0.272 C 
HETATM    7  N2  UNL     1      19.169   3.021  49.713  1.00  0.00     0.102 N 
HETATM    8  C9  UNL     1      20.225   3.937  49.434  1.00  0.00     0.518 C 
HETATM    9  N3  UNL     1      21.439   3.664  50.148  1.00  0.00    -0.326 N 
HETATM   10  C10 UNL     1      22.015   4.909  49.837  1.00  0.00     0.151 C 
HETATM   11  N4  UNL     1      23.278   5.297  49.686  1.00  0.00    -0.210 NA
HETATM   12  C11 UNL     1      24.300   5.506  50.714  1.00  0.00     0.134 C 
HETATM   13  N5  UNL     1      24.768   4.479  51.360  1.00  0.00    -0.216 NA
HETATM   14  C12 UNL     1      24.837   6.875  51.054  1.00  0.00     0.110 C 
HETATM   15  C13 UNL     1      25.710   7.387  49.999  1.00  0.00     0.010 C 
HETATM   16  C14 UNL     1      24.987   7.940  49.033  1.00  0.00     0.031 C 
HETATM   17  C19 UNL     1      23.589   8.171  48.776  1.00  0.00     0.026 C 
HETATM   18  C20 UNL     1      22.360   8.040  49.247  1.00  0.00    -0.015 C 
HETATM   19  C21 UNL     1      21.405   7.629  50.287  1.00  0.00     0.089 C 
HETATM   20  S1  UNL     1      20.570   6.056  49.701  1.00  0.00    -0.171 SA
HETATM   21  H13 UNL     1      18.671   3.198  50.613  1.00  0.00     0.318 HD
ENDROOT
BRANCH   1  22
HETATM   22  N1  UNL     1      24.973   2.819  53.081  1.00  0.00    -0.343 N 
HETATM   23  H4  UNL     1      24.874   2.994  54.098  1.00  0.00     0.164 HD
BRANCH  22  24
HETATM   24  C2  UNL     1      26.013   1.926  52.631  1.00  0.00     0.154 A 
HETATM   25  C1  UNL     1      25.572   0.486  52.476  1.00  0.00     0.071 C 
HETATM   26  C22 UNL     1      27.273   2.041  53.418  1.00  0.00     0.165 A 
HETATM   27  N7  UNL     1      27.880   2.430  52.327  1.00  0.00    -0.189 NA
HETATM   28  N8  UNL     1      26.763   2.365  51.467  1.00  0.00    -0.281 N 
HETATM   29  H30 UNL     1      27.241   2.680  50.571  1.00  0.00     0.185 HD
ENDBRANCH  22  24
ENDBRANCH   1  22
BRANCH  16  30
HETATM   30  N6  UNL     1      25.975   8.358  48.140  1.00  0.00    -0.327 N 
HETATM   31  C15 UNL     1      26.494   9.645  48.440  1.00  0.00     0.226 C 
HETATM   32  O1  UNL     1      26.040  10.260  49.428  1.00  0.00    -0.273 OA
HETATM   33  H19 UNL     1      26.378   7.876  47.305  1.00  0.00     0.169 HD
BRANCH  31  34
HETATM   34  C16 UNL     1      27.570  10.262  47.587  1.00  0.00     0.078 A 
HETATM   35  C17 UNL     1      28.424  11.282  48.230  1.00  0.00     0.015 A 
HETATM   36  C18 UNL     1      28.967   9.908  48.070  1.00  0.00     0.015 A 
ENDBRANCH  31  34
ENDBRANCH  16  30
TORSDOF 4
ENDMDL
MODEL 7
REMARK VINA RESULT:      -7.6     24.829     27.508
REMARK  4 active torsions:
REMARK  status: ('A' for Active; 'I' for Inactive)
REMARK    1  A    between atoms: C2_2  and  N1_3 
REMARK    2  A    between atoms: N1_3  and  C3_4 
REMARK    3  A    between atoms: C14_19  and  N6_20 
REMARK       I    between atoms: N6_20  and  C15_21 
REMARK    4  A    between atoms: C15_21  and  C16_23 
ROOT
HETATM    1  C3  UNL     1      41.061   1.431  69.614  1.00  0.00     0.126 C 
HETATM    2  C4  UNL     1      40.142   2.130  70.308  1.00  0.00     0.048 C 
HETATM    3  C5  UNL     1      39.627   3.319  71.007  1.00  0.00     0.114 C 
HETATM    4  C6  UNL     1      38.288   3.687  70.378  1.00  0.00     0.031 C 
HETATM    5  C7  UNL     1      37.832   5.050  70.851  1.00  0.00     0.032 C 
HETATM    6  C8  UNL     1      38.106   5.289  72.296  1.00  0.00     0.272 C 
HETATM    7  N2  UNL     1      39.388   5.831  72.601  1.00  0.00     0.102 N 
HETATM    8  C9  UNL     1      40.376   5.765  71.576  1.00  0.00     0.518 C 
HETATM    9  N3  UNL     1      40.490   4.477  70.956  1.00  0.00    -0.326 N 
HETATM   10  C10 UNL     1      41.704   4.787  70.316  1.00  0.00     0.151 C 
HETATM   11  N4  UNL     1      42.253   4.357  69.184  1.00  0.00    -0.210 NA
HETATM   12  C11 UNL     1      42.872   3.060  68.902  1.00  0.00     0.134 C 
HETATM   13  N5  UNL     1      42.123   1.997  68.859  1.00  0.00    -0.216 NA
HETATM   14  C12 UNL     1      44.353   2.906  68.655  1.00  0.00     0.110 C 
HETATM   15  C13 UNL     1      44.738   3.439  67.349  1.00  0.00     0.010 C 
HETATM   16  C14 UNL     1      44.914   4.752  67.423  1.00  0.00     0.031 C 
HETATM   17  C19 UNL     1      44.837   5.761  68.449  1.00  0.00     0.026 C 
HETATM   18  C20 UNL     1      44.616   5.992  69.732  1.00  0.00    -0.015 C 
HETATM   19  C21 UNL     1      44.310   5.544  71.098  1.00  0.00     0.089 C 
HETATM   20  S1  UNL     1      42.524   5.991  71.456  1.00  0.00    -0.171 SA
HETATM   21  H13 UNL     1      39.687   5.425  73.516  1.00  0.00     0.318 HD
ENDROOT
BRANCH   1  22
HETATM   22  N1  UNL     1      40.981   0.029  69.623  1.00  0.00    -0.343 N 
HETATM   23  H4  UNL     1      40.946  -0.655  70.400  1.00  0.00     0.164 HD
BRANCH  22  24
HETATM   24  C2  UNL     1      40.949  -0.464  68.266  1.00  0.00     0.154 A 
HETATM   25  C1  UNL     1      39.733  -0.030  67.476  1.00  0.00     0.071 C 
HETATM   26  C22 UNL     1      41.185  -1.931  68.165  1.00  0.00     0.165 A 
HETATM   27  N7  UNL     1      42.266  -1.676  67.475  1.00  0.00    -0.189 NA
HETATM   28  N8  UNL     1      42.164  -0.269  67.494  1.00  0.00    -0.281 N 
HETATM   29  H30 UNL     1      43.040  -0.044  66.935  1.00  0.00     0.185 HD
ENDBRANCH  22  24
ENDBRANCH   1  22
BRANCH  16  30
HETATM   30  N6  UNL     1      45.267   5.068  66.111  1.00  0.00    -0.327 N 
HETATM   31  C15 UNL     1      44.578   6.200  65.601  1.00  0.00     0.226 C 
HETATM   32  O1  UNL     1      43.753   6.783  66.338  1.00  0.00    -0.273 OA
HETATM   33  H19 UNL     1      45.946   4.607  65.465  1.00  0.00     0.169 HD
BRANCH  31  34
HETATM   34  C16 UNL     1      44.829   6.693  64.202  1.00  0.00     0.078 A 
HETATM   35  C17 UNL     1      45.583   7.956  64.068  1.00  0.00     0.015 A 
HETATM   36  C18 UNL     1      46.305   6.677  63.838  1.00  0.00     0.015 A 
ENDBRANCH  31  34
ENDBRANCH  16  30
TORSDOF 4
ENDMDL
MODEL 8
REMARK VINA RESULT:      -7.6      2.482      5.570
REMARK  4 active torsions:
REMARK  status: ('A' for Active; 'I' for Inactive)
REMARK    1  A    between atoms: C2_2  and  N1_3 
REMARK    2  A    between atoms: N1_3  and  C3_4 
REMARK    3  A    between atoms: C14_19  and  N6_20 
REMARK       I    between atoms: N6_20  and  C15_21 
REMARK    4  A    between atoms: C15_21  and  C16_23 
ROOT
HETATM    1  C3  UNL     1      24.840   2.916  50.928  1.00  0.00     0.126 C 
HETATM    2  C4  UNL     1      24.856   4.217  50.579  1.00  0.00     0.048 C 
HETATM    3  C5  UNL     1      24.272   5.455  50.037  1.00  0.00     0.114 C 
HETATM    4  C6  UNL     1      24.421   6.544  51.093  1.00  0.00     0.031 C 
HETATM    5  C7  UNL     1      23.603   7.762  50.725  1.00  0.00     0.032 C 
HETATM    6  C8  UNL     1      23.648   8.078  49.269  1.00  0.00     0.272 C 
HETATM    7  N2  UNL     1      22.671   7.423  48.464  1.00  0.00     0.102 N 
HETATM    8  C9  UNL     1      22.001   6.307  49.045  1.00  0.00     0.518 C 
HETATM    9  N3  UNL     1      22.877   5.360  49.672  1.00  0.00    -0.326 N 
HETATM   10  C10 UNL     1      21.883   4.371  49.782  1.00  0.00     0.151 C 
HETATM   11  N4  UNL     1      21.697   3.384  50.655  1.00  0.00    -0.210 NA
HETATM   12  C11 UNL     1      22.433   2.124  50.781  1.00  0.00     0.134 C 
HETATM   13  N5  UNL     1      23.670   2.151  51.182  1.00  0.00    -0.216 NA
HETATM   14  C12 UNL     1      21.809   0.787  50.463  1.00  0.00     0.110 C 
HETATM   15  C13 UNL     1      20.840   0.390  51.484  1.00  0.00     0.010 C 
HETATM   16  C14 UNL     1      19.666   0.964  51.249  1.00  0.00     0.031 C 
HETATM   17  C19 UNL     1      19.115   1.848  50.254  1.00  0.00     0.026 C 
HETATM   18  C20 UNL     1      19.355   2.509  49.135  1.00  0.00    -0.015 C 
HETATM   19  C21 UNL     1      20.231   2.905  48.023  1.00  0.00     0.089 C 
HETATM   20  S1  UNL     1      20.778   4.672  48.330  1.00  0.00    -0.171 SA
HETATM   21  H13 UNL     1      23.112   7.228  47.538  1.00  0.00     0.318 HD
ENDROOT
BRANCH   1  22
HETATM   22  N1  UNL     1      26.064   2.243  51.056  1.00  0.00    -0.343 N 
HETATM   23  H4  UNL     1      26.876   2.159  50.417  1.00  0.00     0.164 HD
BRANCH  22  24
HETATM   24  C2  UNL     1      26.120   1.574  52.334  1.00  0.00     0.154 A 
HETATM   25  C1  UNL     1      25.666   2.425  53.501  1.00  0.00     0.071 C 
HETATM   26  C22 UNL     1      27.429   0.915  52.600  1.00  0.00     0.165 A 
HETATM   27  N7  UNL     1      26.807  -0.234  52.633  1.00  0.00    -0.189 NA
HETATM   28  N8  UNL     1      25.508   0.258  52.386  1.00  0.00    -0.281 N 
HETATM   29  H30 UNL     1      24.986  -0.668  52.408  1.00  0.00     0.185 HD
ENDBRANCH  22  24
ENDBRANCH   1  22
BRANCH  16  30
HETATM   30  N6  UNL     1      18.894   0.476  52.304  1.00  0.00    -0.327 N 
HETATM   31  C15 UNL     1      17.823  -0.353  51.879  1.00  0.00     0.226 C 
HETATM   32  O1  UNL     1      17.674  -0.561  50.656  1.00  0.00    -0.273 OA
HETATM   33  H19 UNL     1      18.985   0.628  53.334  1.00  0.00     0.169 HD
BRANCH  31  34
HETATM   34  C16 UNL     1      16.883  -0.973  52.877  1.00  0.00     0.078 A 
HETATM   35  C17 UNL     1      16.155  -2.183  52.442  1.00  0.00     0.015 A 
HETATM   36  C18 UNL     1      17.339  -2.353  53.324  1.00  0.00     0.015 A 
ENDBRANCH  31  34
ENDBRANCH  16  30
TORSDOF 4
ENDMDL
MODEL 9
REMARK VINA RESULT:      -7.6     12.544     15.287
REMARK  4 active torsions:
REMARK  status: ('A' for Active; 'I' for Inactive)
REMARK    1  A    between atoms: C2_2  and  N1_3 
REMARK    2  A    between atoms: N1_3  and  C3_4 
REMARK    3  A    between atoms: C14_19  and  N6_20 
REMARK       I    between atoms: N6_20  and  C15_21 
REMARK    4  A    between atoms: C15_21  and  C16_23 
ROOT
HETATM    1  C3  UNL     1      32.596   5.992  47.683  1.00  0.00     0.126 C 
HETATM    2  C4  UNL     1      31.873   7.085  47.995  1.00  0.00     0.048 C 
HETATM    3  C5  UNL     1      31.227   8.376  47.710  1.00  0.00     0.114 C 
HETATM    4  C6  UNL     1      29.754   8.255  48.087  1.00  0.00     0.031 C 
HETATM    5  C7  UNL     1      28.970   9.440  47.568  1.00  0.00     0.032 C 
HETATM    6  C8  UNL     1      29.705  10.730  47.700  1.00  0.00     0.272 C 
HETATM    7  N2  UNL     1      30.558  11.070  46.611  1.00  0.00     0.102 N 
HETATM    8  C9  UNL     1      30.888  10.024  45.700  1.00  0.00     0.518 C 
HETATM    9  N3  UNL     1      31.312   8.809  46.334  1.00  0.00    -0.326 N 
HETATM   10  C10 UNL     1      31.806   8.248  45.142  1.00  0.00     0.151 C 
HETATM   11  N4  UNL     1      31.926   6.989  44.729  1.00  0.00    -0.210 NA
HETATM   12  C11 UNL     1      32.887   5.973  45.162  1.00  0.00     0.134 C 
HETATM   13  N5  UNL     1      32.803   5.494  46.369  1.00  0.00    -0.216 NA
HETATM   14  C12 UNL     1      33.978   5.453  44.258  1.00  0.00     0.110 C 
HETATM   15  C13 UNL     1      33.441   4.583  43.213  1.00  0.00     0.010 C 
HETATM   16  C14 UNL     1      32.985   5.310  42.200  1.00  0.00     0.031 C 
HETATM   17  C19 UNL     1      32.902   6.711  41.873  1.00  0.00     0.026 C 
HETATM   18  C20 UNL     1      33.192   7.939  42.268  1.00  0.00    -0.015 C 
HETATM   19  C21 UNL     1      33.776   8.891  43.224  1.00  0.00     0.089 C 
HETATM   20  S1  UNL     1      32.363   9.706  44.150  1.00  0.00    -0.171 SA
HETATM   21  H13 UNL     1      31.383  11.573  47.008  1.00  0.00     0.318 HD
ENDROOT
BRANCH   1  22
HETATM   22  N1  UNL     1      33.204   5.273  48.724  1.00  0.00    -0.343 N 
HETATM   23  H4  UNL     1      32.821   4.863  49.595  1.00  0.00     0.164 HD
BRANCH  22  24
HETATM   24  C2  UNL     1      34.614   5.124  48.453  1.00  0.00     0.154 A 
HETATM   25  C1  UNL     1      34.989   3.800  47.822  1.00  0.00     0.071 C 
HETATM   26  C22 UNL     1      35.479   5.450  49.621  1.00  0.00     0.165 A 
HETATM   27  N7  UNL     1      35.998   6.426  48.923  1.00  0.00    -0.189 NA
HETATM   28  N8  UNL     1      35.242   6.228  47.748  1.00  0.00    -0.281 N 
HETATM   29  H30 UNL     1      35.653   7.018  47.167  1.00  0.00     0.185 HD
ENDBRANCH  22  24
ENDBRANCH   1  22
BRANCH  16  30
HETATM   30  N6  UNL     1      32.523   4.326  41.326  1.00  0.00    -0.327 N 
HETATM   31  C15 UNL     1      33.509   3.889  40.402  1.00  0.00     0.226 C 
HETATM   32  O1  UNL     1      34.647   4.404  40.450  1.00  0.00    -0.273 OA
HETATM   33  H19 UNL     1      31.584   3.874  41.253  1.00  0.00     0.169 HD
BRANCH  31  34
HETATM   34  C16 UNL     1      33.196   2.829  39.381  1.00  0.00     0.078 A 
HETATM   35  C17 UNL     1      33.816   1.505  39.586  1.00  0.00     0.015 A 
HETATM   36  C18 UNL     1      32.390   1.681  39.966  1.00  0.00     0.015 A 
ENDBRANCH  31  34
ENDBRANCH  16  30
TORSDOF 4
ENDMDL
