MODEL 1
REMARK VINA RESULT:      -8.0      0.000      0.000
REMARK  5 active torsions:
REMARK  status: ('A' for Active; 'I' for Inactive)
REMARK    1  A    between atoms: O1_2  and  C2_3 
REMARK    2  A    between atoms: C4_5  and  N1_6 
REMARK       I    between atoms: N1_6  and  C5_7 
REMARK    3  A    between atoms: C5_7  and  C6_9 
REMARK    4  A    between atoms: C7_10  and  C8_11 
REMARK    5  A    between atoms: C8_11  and  N2_12 
ROOT
HETATM    1  C2  UNL     1      23.824   4.542  49.244  1.00  0.00     0.095 A 
HETATM    2  C3  UNL     1      24.559   5.592  48.929  1.00  0.00     0.068 A 
HETATM    3  C4  UNL     1      26.013   5.557  48.928  1.00  0.00     0.034 A 
HETATM    4  C11 UNL     1      26.543   4.394  49.273  1.00  0.00     0.014 A 
HETATM    5  C12 UNL     1      25.898   3.160  49.651  1.00  0.00     0.065 A 
HETATM    6  C13 UNL     1      26.319   2.840  51.112  1.00  0.00     0.021 C 
HETATM    7  C14 UNL     1      25.013   2.593  51.841  1.00  0.00     0.011 C 
HETATM    8  C15 UNL     1      24.696   1.459  52.393  1.00  0.00     0.095 A 
HETATM    9  C16 UNL     1      24.533   0.133  52.938  1.00  0.00    -0.009 A 
HETATM   10 BR1  UNL     1      26.295  -0.178  52.327  1.00  0.00    -0.122 Br
HETATM   11  C17 UNL     1      23.550  -0.482  53.568  1.00  0.00     0.018 C 
HETATM   12  C18 UNL     1      22.321   0.358  53.772  1.00  0.00     0.298 C 
HETATM   13  N3  UNL     1      21.288  -0.119  52.840  1.00  0.00     0.086 N 
HETATM   14  C19 UNL     1      21.682   0.273  51.474  1.00  0.00     0.271 C 
HETATM   15  C20 UNL     1      21.524   1.693  51.151  1.00  0.00     0.052 C 
HETATM   16  C21 UNL     1      22.203   2.145  49.888  1.00  0.00     0.151 C 
HETATM   17  N4  UNL     1      23.608   2.251  49.879  1.00  0.00    -0.290 NA
HETATM   18  C22 UNL     1      24.377   3.247  49.612  1.00  0.00     0.070 A 
HETATM   19  H25 UNL     1      21.432  -1.174  52.833  1.00  0.00     0.316 HD
ENDROOT
BRANCH   3  20
HETATM   20  N1  UNL     1      26.903   6.622  48.598  1.00  0.00    -0.324 N 
HETATM   21  C5  UNL     1      26.882   7.786  49.390  1.00  0.00     0.245 C 
HETATM   22  O2  UNL     1      26.154   7.991  50.379  1.00  0.00    -0.268 OA
HETATM   23  H5  UNL     1      27.545   6.509  47.784  1.00  0.00     0.169 HD
BRANCH  21  24
HETATM   24  C6  UNL     1      27.750   8.915  49.116  1.00  0.00     0.072 C 
HETATM   25  C7  UNL     1      29.021   9.059  49.334  1.00  0.00    -0.002 C 
BRANCH  25  26
HETATM   26  C8  UNL     1      30.245   9.901  49.258  1.00  0.00     0.143 C 
BRANCH  26  27
HETATM   27  N2  UNL     1      31.382   9.206  48.838  1.00  0.00    -0.418 N 
HETATM   28  C9  UNL     1      32.000   9.478  47.614  1.00  0.00     0.142 C 
HETATM   29  C10 UNL     1      31.837   8.094  49.552  1.00  0.00     0.142 C 
ENDBRANCH  26  27
ENDBRANCH  25  26
ENDBRANCH  21  24
ENDBRANCH   3  20
BRANCH   1  30
HETATM   30  O1  UNL     1      22.526   4.936  49.143  1.00  0.00    -0.354 OA
HETATM   31  C1  UNL     1      21.887   5.865  49.975  1.00  0.00     0.210 C 
ENDBRANCH   1  30
TORSDOF 5
ENDMDL
MODEL 2
REMARK VINA RESULT:      -7.8      5.473      9.749
REMARK  5 active torsions:
REMARK  status: ('A' for Active; 'I' for Inactive)
REMARK    1  A    between atoms: O1_2  and  C2_3 
REMARK    2  A    between atoms: C4_5  and  N1_6 
REMARK       I    between atoms: N1_6  and  C5_7 
REMARK    3  A    between atoms: C5_7  and  C6_9 
REMARK    4  A    between atoms: C7_10  and  C8_11 
REMARK    5  A    between atoms: C8_11  and  N2_12 
ROOT
HETATM    1  C2  UNL     1      21.433   0.896  53.218  1.00  0.00     0.095 A 
HETATM    2  C3  UNL     1      20.326   1.610  53.135  1.00  0.00     0.068 A 
HETATM    3  C4  UNL     1      20.151   2.670  52.155  1.00  0.00     0.034 A 
HETATM    4  C11 UNL     1      21.188   2.869  51.357  1.00  0.00     0.014 A 
HETATM    5  C12 UNL     1      22.464   2.196  51.314  1.00  0.00     0.065 A 
HETATM    6  C13 UNL     1      23.561   3.251  51.626  1.00  0.00     0.021 C 
HETATM    7  C14 UNL     1      24.385   2.630  52.735  1.00  0.00     0.011 C 
HETATM    8  C15 UNL     1      25.647   2.334  52.620  1.00  0.00     0.095 A 
HETATM    9  C16 UNL     1      27.030   2.083  52.297  1.00  0.00    -0.009 A 
HETATM   10 BR1  UNL     1      26.646   2.921  50.647  1.00  0.00    -0.122 Br
HETATM   11  C17 UNL     1      28.032   1.518  52.944  1.00  0.00     0.018 C 
HETATM   12  C18 UNL     1      27.682   1.014  54.315  1.00  0.00     0.298 C 
HETATM   13  N3  UNL     1      27.612  -0.453  54.254  1.00  0.00     0.086 N 
HETATM   14  C19 UNL     1      26.407  -0.828  53.493  1.00  0.00     0.271 C 
HETATM   15  C20 UNL     1      25.133  -0.652  54.195  1.00  0.00     0.052 C 
HETATM   16  C21 UNL     1      23.905  -0.736  53.332  1.00  0.00     0.151 C 
HETATM   17  N4  UNL     1      23.624   0.331  52.456  1.00  0.00    -0.290 NA
HETATM   18  C22 UNL     1      22.583   1.080  52.345  1.00  0.00     0.070 A 
HETATM   19  H25 UNL     1      28.402  -0.708  53.586  1.00  0.00     0.316 HD
ENDROOT
BRANCH   3  20
HETATM   20  N1  UNL     1      19.002   3.494  51.969  1.00  0.00    -0.324 N 
HETATM   21  C5  UNL     1      17.806   2.893  51.531  1.00  0.00     0.245 C 
HETATM   22  O2  UNL     1      17.636   1.685  51.286  1.00  0.00    -0.268 OA
HETATM   23  H5  UNL     1      19.077   4.516  52.164  1.00  0.00     0.169 HD
BRANCH  21  24
HETATM   24  C6  UNL     1      16.598   3.664  51.311  1.00  0.00     0.072 C 
HETATM   25  C7  UNL     1      15.411   3.510  51.811  1.00  0.00    -0.002 C 
BRANCH  25  26
HETATM   26  C8  UNL     1      13.995   3.957  51.909  1.00  0.00     0.143 C 
BRANCH  26  27
HETATM   27  N2  UNL     1      13.330   3.480  53.041  1.00  0.00    -0.418 N 
HETATM   28  C9  UNL     1      13.162   2.111  53.272  1.00  0.00     0.142 C 
HETATM   29  C10 UNL     1      12.660   4.361  53.894  1.00  0.00     0.142 C 
ENDBRANCH  26  27
ENDBRANCH  25  26
ENDBRANCH  21  24
ENDBRANCH   3  20
BRANCH   1  30
HETATM   30  O1  UNL     1      21.246   0.012  54.235  1.00  0.00    -0.354 OA
HETATM   31  C1  UNL     1      20.504  -1.174  54.161  1.00  0.00     0.210 C 
ENDBRANCH   1  30
TORSDOF 5
ENDMDL
MODEL 3
REMARK VINA RESULT:      -7.5      5.304     11.141
REMARK  5 active torsions:
REMARK  status: ('A' for Active; 'I' for Inactive)
REMARK    1  A    between atoms: O1_2  and  C2_3 
REMARK    2  A    between atoms: C4_5  and  N1_6 
REMARK       I    between atoms: N1_6  and  C5_7 
REMARK    3  A    between atoms: C5_7  and  C6_9 
REMARK    4  A    between atoms: C7_10  and  C8_11 
REMARK    5  A    between atoms: C8_11  and  N2_12 
ROOT
HETATM    1  C2  UNL     1      20.632   1.109  51.364  1.00  0.00     0.095 A 
HETATM    2  C3  UNL     1      19.439   0.574  51.188  1.00  0.00     0.068 A 
HETATM    3  C4  UNL     1      18.795  -0.251  52.198  1.00  0.00     0.034 A 
HETATM    4  C11 UNL     1      19.499  -0.430  53.304  1.00  0.00     0.014 A 
HETATM    5  C12 UNL     1      20.807   0.067  53.658  1.00  0.00     0.065 A 
HETATM    6  C13 UNL     1      21.735  -1.162  53.861  1.00  0.00     0.021 C 
HETATM    7  C14 UNL     1      22.947  -0.873  52.998  1.00  0.00     0.011 C 
HETATM    8  C15 UNL     1      24.152  -0.728  53.466  1.00  0.00     0.095 A 
HETATM    9  C16 UNL     1      25.402  -0.604  54.176  1.00  0.00    -0.009 A 
HETATM   10 BR1  UNL     1      24.406  -1.060  55.717  1.00  0.00    -0.122 Br
HETATM   11  C17 UNL     1      26.635  -0.306  53.811  1.00  0.00     0.018 C 
HETATM   12  C18 UNL     1      26.798  -0.028  52.344  1.00  0.00     0.298 C 
HETATM   13  N3  UNL     1      26.982   1.421  52.176  1.00  0.00     0.086 N 
HETATM   14  C19 UNL     1      25.696   2.086  52.454  1.00  0.00     0.271 C 
HETATM   15  C20 UNL     1      24.674   1.950  51.414  1.00  0.00     0.052 C 
HETATM   16  C21 UNL     1      23.284   2.353  51.820  1.00  0.00     0.151 C 
HETATM   17  N4  UNL     1      22.569   1.516  52.699  1.00  0.00    -0.290 NA
HETATM   18  C22 UNL     1      21.424   0.943  52.575  1.00  0.00     0.070 A 
HETATM   19  H25 UNL     1      27.575   1.692  53.018  1.00  0.00     0.316 HD
ENDROOT
BRANCH   3  20
HETATM   20  N1  UNL     1      17.512  -0.869  52.120  1.00  0.00    -0.324 N 
HETATM   21  C5  UNL     1      16.374  -0.046  52.016  1.00  0.00     0.245 C 
HETATM   22  O2  UNL     1      16.365   1.198  51.979  1.00  0.00    -0.268 OA
HETATM   23  H5  UNL     1      17.451  -1.910  52.139  1.00  0.00     0.169 HD
BRANCH  21  24
HETATM   24  C6  UNL     1      15.034  -0.597  51.940  1.00  0.00     0.072 C 
HETATM   25  C7  UNL     1      14.086  -0.603  52.825  1.00  0.00    -0.002 C 
BRANCH  25  26
HETATM   26  C8  UNL     1      12.702  -0.982  53.216  1.00  0.00     0.143 C 
BRANCH  26  27
HETATM   27  N2  UNL     1      12.207  -0.264  54.307  1.00  0.00    -0.418 N 
HETATM   28  C9  UNL     1      12.340   1.125  54.394  1.00  0.00     0.142 C 
HETATM   29  C10 UNL     1      11.714  -0.932  55.432  1.00  0.00     0.142 C 
ENDBRANCH  26  27
ENDBRANCH  25  26
ENDBRANCH  21  24
ENDBRANCH   3  20
BRANCH   1  30
HETATM   30  O1  UNL     1      20.916   1.802  50.229  1.00  0.00    -0.354 OA
HETATM   31  C1  UNL     1      21.125   1.243  48.962  1.00  0.00     0.210 C 
ENDBRANCH   1  30
TORSDOF 5
ENDMDL
MODEL 4
REMARK VINA RESULT:      -7.5      5.393     11.561
REMARK  5 active torsions:
REMARK  status: ('A' for Active; 'I' for Inactive)
REMARK    1  A    between atoms: O1_2  and  C2_3 
REMARK    2  A    between atoms: C4_5  and  N1_6 
REMARK       I    between atoms: N1_6  and  C5_7 
REMARK    3  A    between atoms: C5_7  and  C6_9 
REMARK    4  A    between atoms: C7_10  and  C8_11 
REMARK    5  A    between atoms: C8_11  and  N2_12 
ROOT
HETATM    1  C2  UNL     1      20.237   1.020  51.594  1.00  0.00     0.095 A 
HETATM    2  C3  UNL     1      19.078   0.416  51.412  1.00  0.00     0.068 A 
HETATM    3  C4  UNL     1      18.522  -0.518  52.378  1.00  0.00     0.034 A 
HETATM    4  C11 UNL     1      19.270  -0.720  53.452  1.00  0.00     0.014 A 
HETATM    5  C12 UNL     1      20.550  -0.157  53.806  1.00  0.00     0.065 A 
HETATM    6  C13 UNL     1      21.566  -1.328  53.902  1.00  0.00     0.021 C 
HETATM    7  C14 UNL     1      22.729  -0.898  53.030  1.00  0.00     0.011 C 
HETATM    8  C15 UNL     1      23.934  -0.700  53.478  1.00  0.00     0.095 A 
HETATM    9  C16 UNL     1      25.194  -0.536  54.163  1.00  0.00    -0.009 A 
HETATM   10 BR1  UNL     1      24.277  -1.162  55.693  1.00  0.00    -0.122 Br
HETATM   11  C17 UNL     1      26.391  -0.128  53.788  1.00  0.00     0.018 C 
HETATM   12  C18 UNL     1      26.492   0.258  52.340  1.00  0.00     0.298 C 
HETATM   13  N3  UNL     1      26.572   1.724  52.267  1.00  0.00     0.086 N 
HETATM   14  C19 UNL     1      25.252   2.277  52.622  1.00  0.00     0.271 C 
HETATM   15  C20 UNL     1      24.211   2.138  51.601  1.00  0.00     0.052 C 
HETATM   16  C21 UNL     1      22.809   2.415  52.068  1.00  0.00     0.151 C 
HETATM   17  N4  UNL     1      22.180   1.474  52.905  1.00  0.00    -0.290 NA
HETATM   18  C22 UNL     1      21.073   0.831  52.770  1.00  0.00     0.070 A 
HETATM   19  H25 UNL     1      27.169   1.979  53.111  1.00  0.00     0.316 HD
ENDROOT
BRANCH   3  20
HETATM   20  N1  UNL     1      17.283  -1.218  52.290  1.00  0.00    -0.324 N 
HETATM   21  C5  UNL     1      16.087  -0.494  52.460  1.00  0.00     0.245 C 
HETATM   22  O2  UNL     1      15.991   0.728  52.681  1.00  0.00    -0.268 OA
HETATM   23  H5  UNL     1      17.295  -2.244  52.100  1.00  0.00     0.169 HD
BRANCH  21  24
HETATM   24  C6  UNL     1      14.788  -1.134  52.393  1.00  0.00     0.072 C 
HETATM   25  C7  UNL     1      14.477  -2.392  52.443  1.00  0.00    -0.002 C 
BRANCH  25  26
HETATM   26  C8  UNL     1      13.437  -3.456  52.421  1.00  0.00     0.143 C 
BRANCH  26  27
HETATM   27  N2  UNL     1      13.371  -4.204  53.599  1.00  0.00    -0.418 N 
HETATM   28  C9  UNL     1      12.334  -4.033  54.521  1.00  0.00     0.142 C 
HETATM   29  C10 UNL     1      14.434  -5.028  53.978  1.00  0.00     0.142 C 
ENDBRANCH  26  27
ENDBRANCH  25  26
ENDBRANCH  21  24
ENDBRANCH   3  20
BRANCH   1  30
HETATM   30  O1  UNL     1      20.438   1.806  50.502  1.00  0.00    -0.354 OA
HETATM   31  C1  UNL     1      20.700   1.348  49.204  1.00  0.00     0.210 C 
ENDBRANCH   1  30
TORSDOF 5
ENDMDL
MODEL 5
REMARK VINA RESULT:      -7.4      5.000     10.018
REMARK  5 active torsions:
REMARK  status: ('A' for Active; 'I' for Inactive)
REMARK    1  A    between atoms: O1_2  and  C2_3 
REMARK    2  A    between atoms: C4_5  and  N1_6 
REMARK       I    between atoms: N1_6  and  C5_7 
REMARK    3  A    between atoms: C5_7  and  C6_9 
REMARK    4  A    between atoms: C7_10  and  C8_11 
REMARK    5  A    between atoms: C8_11  and  N2_12 
ROOT
HETATM    1  C2  UNL     1      21.258   3.212  51.072  1.00  0.00     0.095 A 
HETATM    2  C3  UNL     1      20.029   3.190  50.591  1.00  0.00     0.068 A 
HETATM    3  C4  UNL     1      18.957   2.434  51.219  1.00  0.00     0.034 A 
HETATM    4  C11 UNL     1      19.309   1.765  52.306  1.00  0.00     0.014 A 
HETATM    5  C12 UNL     1      20.592   1.671  52.958  1.00  0.00     0.065 A 
HETATM    6  C13 UNL     1      21.034   0.182  52.910  1.00  0.00     0.021 C 
HETATM    7  C14 UNL     1      22.437   0.218  52.337  1.00  0.00     0.011 C 
HETATM    8  C15 UNL     1      23.492  -0.186  52.981  1.00  0.00     0.095 A 
HETATM    9  C16 UNL     1      24.530  -0.680  53.853  1.00  0.00    -0.009 A 
HETATM   10 BR1  UNL     1      23.125  -1.101  55.047  1.00  0.00    -0.122 Br
HETATM   11  C17 UNL     1      25.844  -0.760  53.757  1.00  0.00     0.018 C 
HETATM   12  C18 UNL     1      26.407  -0.223  52.472  1.00  0.00     0.298 C 
HETATM   13  N3  UNL     1      27.054   1.064  52.766  1.00  0.00     0.086 N 
HETATM   14  C19 UNL     1      26.003   2.056  53.056  1.00  0.00     0.271 C 
HETATM   15  C20 UNL     1      25.246   2.536  51.897  1.00  0.00     0.052 C 
HETATM   16  C21 UNL     1      23.990   3.297  52.218  1.00  0.00     0.151 C 
HETATM   17  N4  UNL     1      22.878   2.586  52.710  1.00  0.00    -0.290 NA
HETATM   18  C22 UNL     1      21.671   2.500  52.272  1.00  0.00     0.070 A 
HETATM   19  H25 UNL     1      27.497   0.904  53.720  1.00  0.00     0.316 HD
ENDROOT
BRANCH   3  20
HETATM   20  N1  UNL     1      17.598   2.345  50.794  1.00  0.00    -0.324 N 
HETATM   21  C5  UNL     1      16.655   3.218  51.370  1.00  0.00     0.245 C 
HETATM   22  O2  UNL     1      16.886   4.087  52.231  1.00  0.00    -0.268 OA
HETATM   23  H5  UNL     1      17.341   1.640  50.070  1.00  0.00     0.169 HD
BRANCH  21  24
HETATM   24  C6  UNL     1      15.254   3.185  50.998  1.00  0.00     0.072 C 
HETATM   25  C7  UNL     1      14.195   3.152  51.746  1.00  0.00    -0.002 C 
BRANCH  25  26
HETATM   26  C8  UNL     1      12.713   3.112  51.867  1.00  0.00     0.143 C 
BRANCH  26  27
HETATM   27  N2  UNL     1      12.246   3.356  53.160  1.00  0.00    -0.418 N 
HETATM   28  C9  UNL     1      12.681   4.456  53.905  1.00  0.00     0.142 C 
HETATM   29  C10 UNL     1      11.455   2.409  53.819  1.00  0.00     0.142 C 
ENDBRANCH  26  27
ENDBRANCH  25  26
ENDBRANCH  21  24
ENDBRANCH   3  20
BRANCH   1  30
HETATM   30  O1  UNL     1      21.984   4.006  50.239  1.00  0.00    -0.354 OA
HETATM   31  C1  UNL     1      22.355   3.687  48.926  1.00  0.00     0.210 C 
ENDBRANCH   1  30
TORSDOF 5
ENDMDL
MODEL 6
REMARK VINA RESULT:      -7.4      2.651      3.798
REMARK  5 active torsions:
REMARK  status: ('A' for Active; 'I' for Inactive)
REMARK    1  A    between atoms: O1_2  and  C2_3 
REMARK    2  A    between atoms: C4_5  and  N1_6 
REMARK       I    between atoms: N1_6  and  C5_7 
REMARK    3  A    between atoms: C5_7  and  C6_9 
REMARK    4  A    between atoms: C7_10  and  C8_11 
REMARK    5  A    between atoms: C8_11  and  N2_12 
ROOT
HETATM    1  C2  UNL     1      25.627   2.860  51.162  1.00  0.00     0.095 A 
HETATM    2  C3  UNL     1      26.670   3.215  50.434  1.00  0.00     0.068 A 
HETATM    3  C4  UNL     1      26.580   4.201  49.370  1.00  0.00     0.034 A 
HETATM    4  C11 UNL     1      25.372   4.711  49.182  1.00  0.00     0.014 A 
HETATM    5  C12 UNL     1      24.135   4.435  49.871  1.00  0.00     0.065 A 
HETATM    6  C13 UNL     1      23.140   3.851  48.830  1.00  0.00     0.021 C 
HETATM    7  C14 UNL     1      22.629   2.574  49.465  1.00  0.00     0.011 C 
HETATM    8  C15 UNL     1      21.383   2.368  49.776  1.00  0.00     0.095 A 
HETATM    9  C16 UNL     1      19.965   2.334  50.044  1.00  0.00    -0.009 A 
HETATM   10 BR1  UNL     1      19.912   4.023  49.196  1.00  0.00    -0.122 Br
HETATM   11  C17 UNL     1      19.165   1.460  50.623  1.00  0.00     0.018 C 
HETATM   12  C18 UNL     1      19.855   0.223  51.126  1.00  0.00     0.298 C 
HETATM   13  N3  UNL     1      19.924   0.309  52.593  1.00  0.00     0.086 N 
HETATM   14  C19 UNL     1      20.903   1.352  52.950  1.00  0.00     0.271 C 
HETATM   15  C20 UNL     1      22.311   0.992  52.760  1.00  0.00     0.052 C 
HETATM   16  C21 UNL     1      23.282   2.137  52.825  1.00  0.00     0.151 C 
HETATM   17  N4  UNL     1      23.322   3.049  51.753  1.00  0.00    -0.290 NA
HETATM   18  C22 UNL     1      24.292   3.413  50.990  1.00  0.00     0.070 A 
HETATM   19  H25 UNL     1      18.995   0.758  52.855  1.00  0.00     0.316 HD
ENDROOT
BRANCH   3  20
HETATM   20  N1  UNL     1      27.635   4.665  48.530  1.00  0.00    -0.324 N 
HETATM   21  C5  UNL     1      27.874   6.051  48.453  1.00  0.00     0.245 C 
HETATM   22  O2  UNL     1      27.249   6.941  49.059  1.00  0.00    -0.268 OA
HETATM   23  H5  UNL     1      28.201   3.969  47.999  1.00  0.00     0.169 HD
BRANCH  21  24
HETATM   24  C6  UNL     1      28.922   6.602  47.616  1.00  0.00     0.072 C 
HETATM   25  C7  UNL     1      30.208   6.594  47.781  1.00  0.00    -0.002 C 
BRANCH  25  26
HETATM   26  C8  UNL     1      31.564   6.966  47.294  1.00  0.00     0.143 C 
BRANCH  26  27
HETATM   27  N2  UNL     1      32.594   6.215  47.866  1.00  0.00    -0.418 N 
HETATM   28  C9  UNL     1      32.444   4.854  48.146  1.00  0.00     0.142 C 
HETATM   29  C10 UNL     1      33.753   6.841  48.335  1.00  0.00     0.142 C 
ENDBRANCH  26  27
ENDBRANCH  25  26
ENDBRANCH  21  24
ENDBRANCH   3  20
BRANCH   1  30
HETATM   30  O1  UNL     1      26.075   1.927  52.046  1.00  0.00    -0.354 OA
HETATM   31  C1  UNL     1      27.316   1.947  52.695  1.00  0.00     0.210 C 
ENDBRANCH   1  30
TORSDOF 5
ENDMDL
MODEL 7
REMARK VINA RESULT:      -7.4      4.901     10.271
REMARK  5 active torsions:
REMARK  status: ('A' for Active; 'I' for Inactive)
REMARK    1  A    between atoms: O1_2  and  C2_3 
REMARK    2  A    between atoms: C4_5  and  N1_6 
REMARK       I    between atoms: N1_6  and  C5_7 
REMARK    3  A    between atoms: C5_7  and  C6_9 
REMARK    4  A    between atoms: C7_10  and  C8_11 
REMARK    5  A    between atoms: C8_11  and  N2_12 
ROOT
HETATM    1  C2  UNL     1      22.519   1.465  51.165  1.00  0.00     0.095 A 
HETATM    2  C3  UNL     1      21.344   0.986  50.803  1.00  0.00     0.068 A 
HETATM    3  C4  UNL     1      20.472   0.277  51.725  1.00  0.00     0.034 A 
HETATM    4  C11 UNL     1      20.949   0.142  52.953  1.00  0.00     0.014 A 
HETATM    5  C12 UNL     1      22.200   0.590  53.512  1.00  0.00     0.065 A 
HETATM    6  C13 UNL     1      22.990  -0.670  53.963  1.00  0.00     0.021 C 
HETATM    7  C14 UNL     1      24.356  -0.514  53.325  1.00  0.00     0.011 C 
HETATM    8  C15 UNL     1      25.462  -0.402  54.000  1.00  0.00     0.095 A 
HETATM    9  C16 UNL     1      26.567  -0.295  54.921  1.00  0.00    -0.009 A 
HETATM   10 BR1  UNL     1      25.278  -0.577  56.274  1.00  0.00    -0.122 Br
HETATM   11  C17 UNL     1      27.863  -0.094  54.775  1.00  0.00     0.018 C 
HETATM   12  C18 UNL     1      28.310   0.064  53.349  1.00  0.00     0.298 C 
HETATM   13  N3  UNL     1      28.621   1.484  53.127  1.00  0.00     0.086 N 
HETATM   14  C19 UNL     1      27.354   2.239  53.117  1.00  0.00     0.271 C 
HETATM   15  C20 UNL     1      26.532   2.082  51.915  1.00  0.00     0.052 C 
HETATM   16  C21 UNL     1      25.122   2.591  52.028  1.00  0.00     0.151 C 
HETATM   17  N4  UNL     1      24.203   1.864  52.810  1.00  0.00    -0.290 NA
HETATM   18  C22 UNL     1      23.063   1.348  52.510  1.00  0.00     0.070 A 
HETATM   19  H25 UNL     1      29.067   1.784  54.047  1.00  0.00     0.316 HD
ENDROOT
BRANCH   3  20
HETATM   20  N1  UNL     1      19.185  -0.273  51.448  1.00  0.00    -0.324 N 
HETATM   21  C5  UNL     1      18.077   0.595  51.407  1.00  0.00     0.245 C 
HETATM   22  O2  UNL     1      18.099   1.826  51.588  1.00  0.00    -0.268 OA
HETATM   23  H5  UNL     1      19.100  -1.299  51.281  1.00  0.00     0.169 HD
BRANCH  21  24
HETATM   24  C6  UNL     1      16.736   0.112  51.140  1.00  0.00     0.072 C 
HETATM   25  C7  UNL     1      16.146  -0.971  51.542  1.00  0.00    -0.002 C 
BRANCH  25  26
HETATM   26  C8  UNL     1      14.939  -1.840  51.560  1.00  0.00     0.143 C 
BRANCH  26  27
HETATM   27  N2  UNL     1      15.084  -2.990  52.339  1.00  0.00    -0.418 N 
HETATM   28  C9  UNL     1      16.279  -3.283  53.004  1.00  0.00     0.142 C 
HETATM   29  C10 UNL     1      14.093  -3.976  52.341  1.00  0.00     0.142 C 
ENDBRANCH  26  27
ENDBRANCH  25  26
ENDBRANCH  21  24
ENDBRANCH   3  20
BRANCH   1  30
HETATM   30  O1  UNL     1      23.052   2.055  50.061  1.00  0.00    -0.354 OA
HETATM   31  C1  UNL     1      22.500   3.142  49.370  1.00  0.00     0.210 C 
ENDBRANCH   1  30
TORSDOF 5
ENDMDL
MODEL 8
REMARK VINA RESULT:      -7.2      4.982     11.521
REMARK  5 active torsions:
REMARK  status: ('A' for Active; 'I' for Inactive)
REMARK    1  A    between atoms: O1_2  and  C2_3 
REMARK    2  A    between atoms: C4_5  and  N1_6 
REMARK       I    between atoms: N1_6  and  C5_7 
REMARK    3  A    between atoms: C5_7  and  C6_9 
REMARK    4  A    between atoms: C7_10  and  C8_11 
REMARK    5  A    between atoms: C8_11  and  N2_12 
ROOT
HETATM    1  C2  UNL     1      18.988   2.290  51.443  1.00  0.00     0.095 A 
HETATM    2  C3  UNL     1      18.013   1.423  51.239  1.00  0.00     0.068 A 
HETATM    3  C4  UNL     1      18.057   0.064  51.753  1.00  0.00     0.034 A 
HETATM    4  C11 UNL     1      19.150  -0.240  52.435  1.00  0.00     0.014 A 
HETATM    5  C12 UNL     1      20.303   0.571  52.743  1.00  0.00     0.065 A 
HETATM    6  C13 UNL     1      21.537  -0.098  52.078  1.00  0.00     0.021 C 
HETATM    7  C14 UNL     1      22.198   1.016  51.291  1.00  0.00     0.011 C 
HETATM    8  C15 UNL     1      23.400   1.453  51.525  1.00  0.00     0.095 A 
HETATM    9  C16 UNL     1      24.740   1.793  51.938  1.00  0.00    -0.009 A 
HETATM   10 BR1  UNL     1      24.574   0.355  53.154  1.00  0.00    -0.122 Br
HETATM   11  C17 UNL     1      25.607   2.714  51.563  1.00  0.00     0.018 C 
HETATM   12  C18 UNL     1      25.115   3.622  50.471  1.00  0.00     0.298 C 
HETATM   13  N3  UNL     1      24.816   4.930  51.072  1.00  0.00     0.086 N 
HETATM   14  C19 UNL     1      23.604   4.793  51.900  1.00  0.00     0.271 C 
HETATM   15  C20 UNL     1      22.342   4.680  51.165  1.00  0.00     0.052 C 
HETATM   16  C21 UNL     1      21.160   4.235  51.979  1.00  0.00     0.151 C 
HETATM   17  N4  UNL     1      21.094   2.890  52.393  1.00  0.00    -0.290 NA
HETATM   18  C22 UNL     1      20.193   1.991  52.201  1.00  0.00     0.070 A 
HETATM   19  H25 UNL     1      25.586   5.048  51.798  1.00  0.00     0.316 HD
ENDROOT
BRANCH   3  20
HETATM   20  N1  UNL     1      17.064  -0.950  51.602  1.00  0.00    -0.324 N 
HETATM   21  C5  UNL     1      15.894  -0.866  52.381  1.00  0.00     0.245 C 
HETATM   22  O2  UNL     1      15.621   0.024  53.207  1.00  0.00    -0.268 OA
HETATM   23  H5  UNL     1      17.230  -1.721  50.921  1.00  0.00     0.169 HD
BRANCH  21  24
HETATM   24  C6  UNL     1      14.842  -1.860  52.292  1.00  0.00     0.072 C 
HETATM   25  C7  UNL     1      14.908  -3.152  52.396  1.00  0.00    -0.002 C 
BRANCH  25  26
HETATM   26  C8  UNL     1      14.225  -4.473  52.386  1.00  0.00     0.143 C 
BRANCH  26  27
HETATM   27  N2  UNL     1      14.701  -5.362  53.353  1.00  0.00    -0.418 N 
HETATM   28  C9  UNL     1      15.952  -5.195  53.953  1.00  0.00     0.142 C 
HETATM   29  C10 UNL     1      14.012  -6.546  53.629  1.00  0.00     0.142 C 
ENDBRANCH  26  27
ENDBRANCH  25  26
ENDBRANCH  21  24
ENDBRANCH   3  20
BRANCH   1  30
HETATM   30  O1  UNL     1      18.614   3.443  50.824  1.00  0.00    -0.354 OA
HETATM   31  C1  UNL     1      17.437   4.161  51.077  1.00  0.00     0.210 C 
ENDBRANCH   1  30
TORSDOF 5
ENDMDL
MODEL 9
REMARK VINA RESULT:      -7.2      5.064     11.177
REMARK  5 active torsions:
REMARK  status: ('A' for Active; 'I' for Inactive)
REMARK    1  A    between atoms: O1_2  and  C2_3 
REMARK    2  A    between atoms: C4_5  and  N1_6 
REMARK       I    between atoms: N1_6  and  C5_7 
REMARK    3  A    between atoms: C5_7  and  C6_9 
REMARK    4  A    between atoms: C7_10  and  C8_11 
REMARK    5  A    between atoms: C8_11  and  N2_12 
ROOT
HETATM    1  C2  UNL     1      20.949   0.442  52.682  1.00  0.00     0.095 A 
HETATM    2  C3  UNL     1      19.727   0.042  52.979  1.00  0.00     0.068 A 
HETATM    3  C4  UNL     1      18.675  -0.068  51.981  1.00  0.00     0.034 A 
HETATM    4  C11 UNL     1      19.035   0.270  50.752  1.00  0.00     0.014 A 
HETATM    5  C12 UNL     1      20.309   0.731  50.256  1.00  0.00     0.065 A 
HETATM    6  C13 UNL     1      20.101   2.165  49.695  1.00  0.00     0.021 C 
HETATM    7  C14 UNL     1      21.177   2.997  50.363  1.00  0.00     0.011 C 
HETATM    8  C15 UNL     1      22.128   3.604  49.717  1.00  0.00     0.095 A 
HETATM    9  C16 UNL     1      23.095   4.199  48.826  1.00  0.00    -0.009 A 
HETATM   10 BR1  UNL     1      22.046   3.466  47.434  1.00  0.00    -0.122 Br
HETATM   11  C17 UNL     1      24.185   4.920  49.008  1.00  0.00     0.018 C 
HETATM   12  C18 UNL     1      24.517   5.191  50.448  1.00  0.00     0.298 C 
HETATM   13  N3  UNL     1      25.670   4.354  50.812  1.00  0.00     0.086 N 
HETATM   14  C19 UNL     1      25.220   2.951  50.879  1.00  0.00     0.271 C 
HETATM   15  C20 UNL     1      24.411   2.600  52.049  1.00  0.00     0.052 C 
HETATM   16  C21 UNL     1      23.702   1.277  51.967  1.00  0.00     0.151 C 
HETATM   17  N4  UNL     1      22.594   1.158  51.106  1.00  0.00    -0.290 NA
HETATM   18  C22 UNL     1      21.379   0.805  51.339  1.00  0.00     0.070 A 
HETATM   19  H25 UNL     1      26.269   4.368  49.932  1.00  0.00     0.316 HD
ENDROOT
BRANCH   3  20
HETATM   20  N1  UNL     1      17.330  -0.495  52.186  1.00  0.00    -0.324 N 
HETATM   21  C5  UNL     1      16.305   0.470  52.148  1.00  0.00     0.245 C 
HETATM   22  O2  UNL     1      16.448   1.689  51.945  1.00  0.00    -0.268 OA
HETATM   23  H5  UNL     1      17.142  -1.507  52.355  1.00  0.00     0.169 HD
BRANCH  21  24
HETATM   24  C6  UNL     1      14.914   0.117  52.355  1.00  0.00     0.072 C 
HETATM   25  C7  UNL     1      14.086   0.502  53.276  1.00  0.00    -0.002 C 
BRANCH  25  26
HETATM   26  C8  UNL     1      12.726   0.452  53.878  1.00  0.00     0.143 C 
BRANCH  26  27
HETATM   27  N2  UNL     1      12.291   1.677  54.389  1.00  0.00    -0.418 N 
HETATM   28  C9  UNL     1      12.589   2.887  53.755  1.00  0.00     0.142 C 
HETATM   29  C10 UNL     1      11.688   1.746  55.648  1.00  0.00     0.142 C 
ENDBRANCH  26  27
ENDBRANCH  25  26
ENDBRANCH  21  24
ENDBRANCH   3  20
BRANCH   1  30
HETATM   30  O1  UNL     1      21.654   0.428  53.846  1.00  0.00    -0.354 OA
HETATM   31  C1  UNL     1      21.745  -0.654  54.731  1.00  0.00     0.210 C 
ENDBRANCH   1  30
TORSDOF 5
ENDMDL
