MODEL 1
REMARK VINA RESULT:      -7.2      0.000      0.000
REMARK  4 active torsions:
REMARK  status: ('A' for Active; 'I' for Inactive)
REMARK    1  A    between atoms: C2_2  and  C3_3 
REMARK    2  A    between atoms: C4_4  and  C5_5 
REMARK       I    between atoms: C5_5  and  N1_7 
REMARK    3  A    between atoms: C9_11  and  N2_12 
REMARK    4  A    between atoms: N2_12  and  C10_13 
ROOT
HETATM    1  C5  UNL     1      23.659   4.140  49.428  1.00  0.00     0.244 C 
HETATM    2  O1  UNL     1      23.619   5.241  50.000  1.00  0.00    -0.268 OA
HETATM    3  N1  UNL     1      22.602   3.872  48.480  1.00  0.00    -0.330 N 
HETATM    4  C6  UNL     1      22.355   2.706  47.605  1.00  0.00     0.132 C 
HETATM    5  C7  UNL     1      21.447   1.722  48.237  1.00  0.00     0.051 C 
HETATM    6  C8  UNL     1      21.886   1.127  49.512  1.00  0.00     0.025 C 
HETATM    7  C9  UNL     1      21.304   1.392  50.699  1.00  0.00     0.120 C 
HETATM    8  N3  UNL     1      20.297   2.335  50.593  1.00  0.00    -0.249 N 
HETATM    9  C16 UNL     1      19.103   2.215  50.933  1.00  0.00     0.202 A 
HETATM   10  N4  UNL     1      19.421   3.471  50.387  1.00  0.00    -0.156 NA
HETATM   11  C17 UNL     1      18.802   4.531  50.661  1.00  0.00     0.109 C 
HETATM   12  C18 UNL     1      19.661   5.362  49.762  1.00  0.00     0.126 C 
HETATM   13  N5  UNL     1      20.467   4.527  49.279  1.00  0.00    -0.281 NA
HETATM   14  C19 UNL     1      21.495   4.867  48.356  1.00  0.00     0.275 C 
ENDROOT
BRANCH   7  15
HETATM   15  N2  UNL     1      21.778   0.777  51.865  1.00  0.00    -0.342 N 
HETATM   16  H11 UNL     1      21.683   0.087  52.637  1.00  0.00     0.167 HD
BRANCH  15  17
HETATM   17  C10 UNL     1      23.045   1.308  52.290  1.00  0.00     0.034 A 
HETATM   18  C11 UNL     1      23.066   2.623  52.751  1.00  0.00     0.029 A 
HETATM   19  C12 UNL     1      24.213   3.237  53.190  1.00  0.00     0.004 A 
HETATM   20  C13 UNL     1      25.413   2.515  53.176  1.00  0.00     0.019 A 
HETATM   21  C14 UNL     1      25.328   1.230  52.714  1.00  0.00     0.013 A 
HETATM   22 BR1  UNL     1      26.967   0.222  52.686  1.00  0.00    -0.051 Br
HETATM   23  C15 UNL     1      24.219   0.547  52.258  1.00  0.00     0.048 A 
ENDBRANCH  15  17
ENDBRANCH   7  15
BRANCH   1  24
HETATM   24  C4  UNL     1      24.639   3.091  49.598  1.00  0.00     0.074 C 
HETATM   25  C3  UNL     1      25.944   3.128  49.575  1.00  0.00     0.005 C 
BRANCH  25  26
HETATM   26  C2  UNL     1      26.731   4.302  49.357  1.00  0.00    -0.010 C 
HETATM   27  C1  UNL     1      27.622   4.962  48.603  1.00  0.00     0.011 C 
ENDBRANCH  25  26
ENDBRANCH   1  24
TORSDOF 4
ENDMDL
MODEL 2
REMARK VINA RESULT:      -7.0      2.423      2.932
REMARK  4 active torsions:
REMARK  status: ('A' for Active; 'I' for Inactive)
REMARK    1  A    between atoms: C2_2  and  C3_3 
REMARK    2  A    between atoms: C4_4  and  C5_5 
REMARK       I    between atoms: C5_5  and  N1_7 
REMARK    3  A    between atoms: C9_11  and  N2_12 
REMARK    4  A    between atoms: N2_12  and  C10_13 
ROOT
HETATM    1  C5  UNL     1      23.862   4.327  49.077  1.00  0.00     0.244 C 
HETATM    2  O1  UNL     1      23.821   5.566  49.147  1.00  0.00    -0.268 OA
HETATM    3  N1  UNL     1      22.888   3.703  48.211  1.00  0.00    -0.330 N 
HETATM    4  C6  UNL     1      22.669   2.284  47.859  1.00  0.00     0.132 C 
HETATM    5  C7  UNL     1      21.657   1.648  48.733  1.00  0.00     0.051 C 
HETATM    6  C8  UNL     1      21.942   1.621  50.179  1.00  0.00     0.025 C 
HETATM    7  C9  UNL     1      21.263   2.348  51.088  1.00  0.00     0.120 C 
HETATM    8  N3  UNL     1      20.319   3.174  50.503  1.00  0.00    -0.249 N 
HETATM    9  C16 UNL     1      19.093   3.210  50.732  1.00  0.00     0.202 A 
HETATM   10  N4  UNL     1      19.524   4.133  49.762  1.00  0.00    -0.156 NA
HETATM   11  C17 UNL     1      18.934   5.216  49.516  1.00  0.00     0.109 C 
HETATM   12  C18 UNL     1      19.916   5.604  48.457  1.00  0.00     0.126 C 
HETATM   13  N5  UNL     1      20.722   4.640  48.442  1.00  0.00    -0.281 NA
HETATM   14  C19 UNL     1      21.849   4.568  47.576  1.00  0.00     0.275 C 
ENDROOT
BRANCH   7  15
HETATM   15  N2  UNL     1      21.592   2.258  52.446  1.00  0.00    -0.342 N 
HETATM   16  H11 UNL     1      21.981   2.665  53.321  1.00  0.00     0.167 HD
BRANCH  15  17
HETATM   17  C10 UNL     1      21.252   0.980  53.011  1.00  0.00     0.034 A 
HETATM   18  C11 UNL     1      22.253   0.296  53.699  1.00  0.00     0.029 A 
HETATM   19  C12 UNL     1      22.048  -0.927  54.286  1.00  0.00     0.004 A 
HETATM   20  C13 UNL     1      20.780  -1.516  54.193  1.00  0.00     0.019 A 
HETATM   21  C14 UNL     1      19.840  -0.798  53.507  1.00  0.00     0.013 A 
HETATM   22 BR1  UNL     1      18.092  -1.591  53.367  1.00  0.00    -0.051 Br
HETATM   23  C15 UNL     1      19.970   0.431  52.892  1.00  0.00     0.048 A 
ENDBRANCH  15  17
ENDBRANCH   7  15
BRANCH   1  24
HETATM   24  C4  UNL     1      24.768   3.432  49.760  1.00  0.00     0.074 C 
HETATM   25  C3  UNL     1      26.072   3.370  49.759  1.00  0.00     0.005 C 
BRANCH  25  26
HETATM   26  C2  UNL     1      26.938   4.239  49.022  1.00  0.00    -0.010 C 
HETATM   27  C1  UNL     1      27.260   5.483  48.642  1.00  0.00     0.011 C 
ENDBRANCH  25  26
ENDBRANCH   1  24
TORSDOF 4
ENDMDL
MODEL 3
REMARK VINA RESULT:      -7.0      2.333      4.834
REMARK  4 active torsions:
REMARK  status: ('A' for Active; 'I' for Inactive)
REMARK    1  A    between atoms: C2_2  and  C3_3 
REMARK    2  A    between atoms: C4_4  and  C5_5 
REMARK       I    between atoms: C5_5  and  N1_7 
REMARK    3  A    between atoms: C9_11  and  N2_12 
REMARK    4  A    between atoms: N2_12  and  C10_13 
ROOT
HETATM    1  C5  UNL     1      20.929   0.850  51.983  1.00  0.00     0.244 C 
HETATM    2  O1  UNL     1      21.371  -0.146  51.388  1.00  0.00    -0.268 OA
HETATM    3  N1  UNL     1      20.138   1.767  51.194  1.00  0.00    -0.330 N 
HETATM    4  C6  UNL     1      19.433   3.012  51.567  1.00  0.00     0.132 C 
HETATM    5  C7  UNL     1      20.269   4.211  51.333  1.00  0.00     0.051 C 
HETATM    6  C8  UNL     1      21.549   4.290  52.059  1.00  0.00     0.025 C 
HETATM    7  C9  UNL     1      22.753   4.184  51.463  1.00  0.00     0.120 C 
HETATM    8  N3  UNL     1      22.650   3.923  50.108  1.00  0.00    -0.249 N 
HETATM    9  C16 UNL     1      23.128   4.587  49.167  1.00  0.00     0.202 A 
HETATM   10  N4  UNL     1      22.410   3.448  48.761  1.00  0.00    -0.156 NA
HETATM   11  C17 UNL     1      22.626   2.831  47.686  1.00  0.00     0.109 C 
HETATM   12  C18 UNL     1      21.550   1.827  47.952  1.00  0.00     0.126 C 
HETATM   13  N5  UNL     1      21.082   2.190  49.059  1.00  0.00    -0.281 NA
HETATM   14  C19 UNL     1      20.020   1.517  49.726  1.00  0.00     0.275 C 
ENDROOT
BRANCH   7  15
HETATM   15  N2  UNL     1      23.924   4.278  52.227  1.00  0.00    -0.342 N 
HETATM   16  H11 UNL     1      24.567   4.804  52.853  1.00  0.00     0.167 HD
BRANCH  15  17
HETATM   17  C10 UNL     1      24.706   3.072  52.185  1.00  0.00     0.034 A 
HETATM   18  C11 UNL     1      25.736   3.007  51.247  1.00  0.00     0.029 A 
HETATM   19  C12 UNL     1      26.554   1.913  51.117  1.00  0.00     0.004 A 
HETATM   20  C13 UNL     1      26.348   0.813  51.961  1.00  0.00     0.019 A 
HETATM   21  C14 UNL     1      25.324   0.936  52.859  1.00  0.00     0.013 A 
HETATM   22 BR1  UNL     1      25.026  -0.566  54.025  1.00  0.00    -0.051 Br
HETATM   23  C15 UNL     1      24.463   1.998  53.049  1.00  0.00     0.048 A 
ENDBRANCH  15  17
ENDBRANCH   7  15
BRANCH   1  24
HETATM   24  C4  UNL     1      21.111   1.203  53.372  1.00  0.00     0.074 C 
HETATM   25  C3  UNL     1      21.160   0.460  54.444  1.00  0.00     0.005 C 
BRANCH  25  26
HETATM   26  C2  UNL     1      21.030  -0.965  54.466  1.00  0.00    -0.010 C 
HETATM   27  C1  UNL     1      21.605  -2.171  54.350  1.00  0.00     0.011 C 
ENDBRANCH  25  26
ENDBRANCH   1  24
TORSDOF 4
ENDMDL
MODEL 4
REMARK VINA RESULT:      -6.8      2.135      2.871
REMARK  4 active torsions:
REMARK  status: ('A' for Active; 'I' for Inactive)
REMARK    1  A    between atoms: C2_2  and  C3_3 
REMARK    2  A    between atoms: C4_4  and  C5_5 
REMARK       I    between atoms: C5_5  and  N1_7 
REMARK    3  A    between atoms: C9_11  and  N2_12 
REMARK    4  A    between atoms: N2_12  and  C10_13 
ROOT
HETATM    1  C5  UNL     1      23.639   6.587  50.314  1.00  0.00     0.244 C 
HETATM    2  O1  UNL     1      22.828   7.392  50.800  1.00  0.00    -0.268 OA
HETATM    3  N1  UNL     1      23.088   5.562  49.457  1.00  0.00    -0.330 N 
HETATM    4  C6  UNL     1      23.743   4.481  48.691  1.00  0.00     0.132 C 
HETATM    5  C7  UNL     1      23.784   3.211  49.452  1.00  0.00     0.051 C 
HETATM    6  C8  UNL     1      24.500   3.225  50.741  1.00  0.00     0.025 C 
HETATM    7  C9  UNL     1      23.887   3.120  51.937  1.00  0.00     0.120 C 
HETATM    8  N3  UNL     1      22.509   3.069  51.820  1.00  0.00    -0.249 N 
HETATM    9  C16 UNL     1      21.742   2.180  52.241  1.00  0.00     0.202 A 
HETATM   10  N4  UNL     1      21.090   3.236  51.579  1.00  0.00    -0.156 NA
HETATM   11  C17 UNL     1      19.901   3.576  51.807  1.00  0.00     0.109 C 
HETATM   12  C18 UNL     1      19.936   4.677  50.795  1.00  0.00     0.126 C 
HETATM   13  N5  UNL     1      21.101   4.606  50.331  1.00  0.00    -0.281 NA
HETATM   14  C19 UNL     1      21.603   5.476  49.323  1.00  0.00     0.275 C 
ENDROOT
BRANCH   7  15
HETATM   15  N2  UNL     1      24.643   3.133  53.116  1.00  0.00    -0.342 N 
HETATM   16  H11 UNL     1      24.955   3.591  53.996  1.00  0.00     0.167 HD
BRANCH  15  17
HETATM   17  C10 UNL     1      25.418   1.934  53.286  1.00  0.00     0.034 A 
HETATM   18  C11 UNL     1      24.734   0.720  53.270  1.00  0.00     0.029 A 
HETATM   19  C12 UNL     1      25.365  -0.490  53.414  1.00  0.00     0.004 A 
HETATM   20  C13 UNL     1      26.756  -0.510  53.585  1.00  0.00     0.019 A 
HETATM   21  C14 UNL     1      27.371   0.712  53.591  1.00  0.00     0.013 A 
HETATM   22 BR1  UNL     1      29.281   0.705  53.825  1.00  0.00    -0.051 Br
HETATM   23  C15 UNL     1      26.808   1.964  53.453  1.00  0.00     0.048 A 
ENDBRANCH  15  17
ENDBRANCH   7  15
BRANCH   1  24
HETATM   24  C4  UNL     1      25.071   6.551  50.506  1.00  0.00     0.074 C 
HETATM   25  C3  UNL     1      26.044   7.004  49.764  1.00  0.00     0.005 C 
BRANCH  25  26
HETATM   26  C2  UNL     1      25.881   7.678  48.512  1.00  0.00    -0.010 C 
HETATM   27  C1  UNL     1      26.265   7.839  47.238  1.00  0.00     0.011 C 
ENDBRANCH  25  26
ENDBRANCH   1  24
TORSDOF 4
ENDMDL
MODEL 5
REMARK VINA RESULT:      -6.8      2.186      3.686
REMARK  4 active torsions:
REMARK  status: ('A' for Active; 'I' for Inactive)
REMARK    1  A    between atoms: C2_2  and  C3_3 
REMARK    2  A    between atoms: C4_4  and  C5_5 
REMARK       I    between atoms: C5_5  and  N1_7 
REMARK    3  A    between atoms: C9_11  and  N2_12 
REMARK    4  A    between atoms: N2_12  and  C10_13 
ROOT
HETATM    1  C5  UNL     1      24.353   3.032  52.099  1.00  0.00     0.244 C 
HETATM    2  O1  UNL     1      23.772   3.331  53.154  1.00  0.00    -0.268 OA
HETATM    3  N1  UNL     1      24.484   4.086  51.120  1.00  0.00    -0.330 N 
HETATM    4  C6  UNL     1      25.137   4.104  49.793  1.00  0.00     0.132 C 
HETATM    5  C7  UNL     1      24.182   3.803  48.703  1.00  0.00     0.051 C 
HETATM    6  C8  UNL     1      23.499   2.498  48.751  1.00  0.00     0.025 C 
HETATM    7  C9  UNL     1      22.185   2.351  49.009  1.00  0.00     0.120 C 
HETATM    8  N3  UNL     1      21.566   3.556  49.293  1.00  0.00    -0.249 N 
HETATM    9  C16 UNL     1      20.584   4.063  48.713  1.00  0.00     0.202 A 
HETATM   10  N4  UNL     1      21.088   4.837  49.773  1.00  0.00    -0.156 NA
HETATM   11  C17 UNL     1      20.395   5.648  50.439  1.00  0.00     0.109 C 
HETATM   12  C18 UNL     1      21.546   6.045  51.308  1.00  0.00     0.126 C 
HETATM   13  N5  UNL     1      22.496   5.353  50.864  1.00  0.00    -0.281 NA
HETATM   14  C19 UNL     1      23.816   5.393  51.394  1.00  0.00     0.275 C 
ENDROOT
BRANCH   7  15
HETATM   15  N2  UNL     1      21.611   1.073  49.028  1.00  0.00    -0.342 N 
HETATM   16  H11 UNL     1      21.390   0.164  48.574  1.00  0.00     0.167 HD
BRANCH  15  17
HETATM   17  C10 UNL     1      20.979   0.773  50.284  1.00  0.00     0.034 A 
HETATM   18  C11 UNL     1      19.587   0.830  50.331  1.00  0.00     0.029 A 
HETATM   19  C12 UNL     1      18.871   0.558  51.470  1.00  0.00     0.004 A 
HETATM   20  C13 UNL     1      19.565   0.207  52.636  1.00  0.00     0.019 A 
HETATM   21  C14 UNL     1      20.927   0.167  52.527  1.00  0.00     0.013 A 
HETATM   22 BR1  UNL     1      21.897  -0.312  54.118  1.00  0.00    -0.051 Br
HETATM   23  C15 UNL     1      21.715   0.427  51.423  1.00  0.00     0.048 A 
ENDBRANCH  15  17
ENDBRANCH   7  15
BRANCH   1  24
HETATM   24  C4  UNL     1      24.914   1.752  51.732  1.00  0.00     0.074 C 
HETATM   25  C3  UNL     1      26.133   1.295  51.822  1.00  0.00     0.005 C 
BRANCH  25  26
HETATM   26  C2  UNL     1      27.250   2.024  52.340  1.00  0.00    -0.010 C 
HETATM   27  C1  UNL     1      28.085   2.270  53.360  1.00  0.00     0.011 C 
ENDBRANCH  25  26
ENDBRANCH   1  24
TORSDOF 4
ENDMDL
MODEL 6
REMARK VINA RESULT:      -6.7      2.732      5.986
REMARK  4 active torsions:
REMARK  status: ('A' for Active; 'I' for Inactive)
REMARK    1  A    between atoms: C2_2  and  C3_3 
REMARK    2  A    between atoms: C4_4  and  C5_5 
REMARK       I    between atoms: C5_5  and  N1_7 
REMARK    3  A    between atoms: C9_11  and  N2_12 
REMARK    4  A    between atoms: N2_12  and  C10_13 
ROOT
HETATM    1  C5  UNL     1      20.284   2.732  51.901  1.00  0.00     0.244 C 
HETATM    2  O1  UNL     1      19.984   2.494  53.082  1.00  0.00    -0.268 OA
HETATM    3  N1  UNL     1      20.751   1.608  51.121  1.00  0.00    -0.330 N 
HETATM    4  C6  UNL     1      21.152   1.511  49.702  1.00  0.00     0.132 C 
HETATM    5  C7  UNL     1      22.612   1.682  49.527  1.00  0.00     0.051 C 
HETATM    6  C8  UNL     1      23.197   2.957  49.980  1.00  0.00     0.025 C 
HETATM    7  C9  UNL     1      24.010   3.068  51.049  1.00  0.00     0.120 C 
HETATM    8  N3  UNL     1      24.174   1.864  51.713  1.00  0.00    -0.249 N 
HETATM    9  C16 UNL     1      25.244   1.271  51.959  1.00  0.00     0.202 A 
HETATM   10  N4  UNL     1      24.097   0.607  52.429  1.00  0.00    -0.156 NA
HETATM   11  C17 UNL     1      24.096  -0.175  53.414  1.00  0.00     0.109 C 
HETATM   12  C18 UNL     1      22.631  -0.452  53.296  1.00  0.00     0.126 C 
HETATM   13  N5  UNL     1      22.284   0.242  52.308  1.00  0.00    -0.281 NA
HETATM   14  C19 UNL     1      20.950   0.301  51.815  1.00  0.00     0.275 C 
ENDROOT
BRANCH   7  15
HETATM   15  N2  UNL     1      24.531   4.318  51.409  1.00  0.00    -0.342 N 
HETATM   16  H11 UNL     1      24.615   5.117  52.069  1.00  0.00     0.167 HD
BRANCH  15  17
HETATM   17  C10 UNL     1      25.420   4.849  50.412  1.00  0.00     0.034 A 
HETATM   18  C11 UNL     1      26.408   4.000  49.916  1.00  0.00     0.029 A 
HETATM   19  C12 UNL     1      27.310   4.391  48.958  1.00  0.00     0.004 A 
HETATM   20  C13 UNL     1      27.238   5.697  48.455  1.00  0.00     0.019 A 
HETATM   21  C14 UNL     1      26.248   6.482  48.980  1.00  0.00     0.013 A 
HETATM   22 BR1  UNL     1      26.134   8.279  48.302  1.00  0.00    -0.051 Br
HETATM   23  C15 UNL     1      25.309   6.162  49.939  1.00  0.00     0.048 A 
ENDBRANCH  15  17
ENDBRANCH   7  15
BRANCH   1  24
HETATM   24  C4  UNL     1      20.225   4.001  51.212  1.00  0.00     0.074 C 
HETATM   25  C3  UNL     1      19.212   4.655  50.712  1.00  0.00     0.005 C 
BRANCH  25  26
HETATM   26  C2  UNL     1      17.851   4.216  50.743  1.00  0.00    -0.010 C 
HETATM   27  C1  UNL     1      16.737   3.983  51.452  1.00  0.00     0.011 C 
ENDBRANCH  25  26
ENDBRANCH   1  24
TORSDOF 4
ENDMDL
MODEL 7
REMARK VINA RESULT:      -6.7      5.795      9.062
REMARK  4 active torsions:
REMARK  status: ('A' for Active; 'I' for Inactive)
REMARK    1  A    between atoms: C2_2  and  C3_3 
REMARK    2  A    between atoms: C4_4  and  C5_5 
REMARK       I    between atoms: C5_5  and  N1_7 
REMARK    3  A    between atoms: C9_11  and  N2_12 
REMARK    4  A    between atoms: N2_12  and  C10_13 
ROOT
HETATM    1  C5  UNL     1      27.731  10.149  48.820  1.00  0.00     0.244 C 
HETATM    2  O1  UNL     1      26.896  10.227  49.736  1.00  0.00    -0.268 OA
HETATM    3  N1  UNL     1      27.311   9.444  47.630  1.00  0.00    -0.330 N 
HETATM    4  C6  UNL     1      28.011   9.193  46.352  1.00  0.00     0.132 C 
HETATM    5  C7  UNL     1      28.711   7.888  46.353  1.00  0.00     0.051 C 
HETATM    6  C8  UNL     1      29.750   7.685  47.378  1.00  0.00     0.025 C 
HETATM    7  C9  UNL     1      29.620   6.834  48.416  1.00  0.00     0.120 C 
HETATM    8  N3  UNL     1      28.376   6.229  48.447  1.00  0.00    -0.249 N 
HETATM    9  C16 UNL     1      28.123   5.007  48.442  1.00  0.00     0.202 A 
HETATM   10  N4  UNL     1      26.984   5.829  48.488  1.00  0.00    -0.156 NA
HETATM   11  C17 UNL     1      25.886   5.476  48.991  1.00  0.00     0.109 C 
HETATM   12  C18 UNL     1      25.231   6.785  48.683  1.00  0.00     0.126 C 
HETATM   13  N5  UNL     1      26.142   7.439  48.117  1.00  0.00    -0.281 NA
HETATM   14  C19 UNL     1      25.979   8.770  47.641  1.00  0.00     0.275 C 
ENDROOT
BRANCH   7  15
HETATM   15  N2  UNL     1      30.660   6.694  49.343  1.00  0.00    -0.342 N 
HETATM   16  H11 UNL     1      31.055   6.812  50.298  1.00  0.00     0.167 HD
BRANCH  15  17
HETATM   17  C10 UNL     1      31.826   6.075  48.773  1.00  0.00     0.034 A 
HETATM   18  C11 UNL     1      33.011   6.809  48.781  1.00  0.00     0.029 A 
HETATM   19  C12 UNL     1      34.189   6.322  48.273  1.00  0.00     0.004 A 
HETATM   20  C13 UNL     1      34.205   5.034  47.721  1.00  0.00     0.019 A 
HETATM   21  C14 UNL     1      33.013   4.364  47.741  1.00  0.00     0.013 A 
HETATM   22 BR1  UNL     1      33.015   2.594  46.987  1.00  0.00    -0.051 Br
HETATM   23  C15 UNL     1      31.793   4.784  48.233  1.00  0.00     0.048 A 
ENDBRANCH  15  17
ENDBRANCH   7  15
BRANCH   1  24
HETATM   24  C4  UNL     1      29.076  10.679  48.802  1.00  0.00     0.074 C 
HETATM   25  C3  UNL     1      29.509  11.910  48.805  1.00  0.00     0.005 C 
BRANCH  25  26
HETATM   26  C2  UNL     1      28.681  13.076  48.827  1.00  0.00    -0.010 C 
HETATM   27  C1  UNL     1      27.538  13.678  48.465  1.00  0.00     0.011 C 
ENDBRANCH  25  26
ENDBRANCH   1  24
TORSDOF 4
ENDMDL
MODEL 8
REMARK VINA RESULT:      -6.6      2.667      4.959
REMARK  4 active torsions:
REMARK  status: ('A' for Active; 'I' for Inactive)
REMARK    1  A    between atoms: C2_2  and  C3_3 
REMARK    2  A    between atoms: C4_4  and  C5_5 
REMARK       I    between atoms: C5_5  and  N1_7 
REMARK    3  A    between atoms: C9_11  and  N2_12 
REMARK    4  A    between atoms: N2_12  and  C10_13 
ROOT
HETATM    1  C5  UNL     1      24.529   3.563  50.473  1.00  0.00     0.244 C 
HETATM    2  O1  UNL     1      25.085   2.490  50.188  1.00  0.00    -0.268 OA
HETATM    3  N1  UNL     1      24.235   3.779  51.871  1.00  0.00    -0.330 N 
HETATM    4  C6  UNL     1      23.627   4.932  52.569  1.00  0.00     0.132 C 
HETATM    5  C7  UNL     1      22.164   4.771  52.732  1.00  0.00     0.051 C 
HETATM    6  C8  UNL     1      21.363   4.631  51.503  1.00  0.00     0.025 C 
HETATM    7  C9  UNL     1      20.752   3.487  51.136  1.00  0.00     0.120 C 
HETATM    8  N3  UNL     1      21.019   2.444  52.005  1.00  0.00    -0.249 N 
HETATM    9  C16 UNL     1      20.197   1.749  52.635  1.00  0.00     0.202 A 
HETATM   10  N4  UNL     1      21.540   1.398  52.861  1.00  0.00    -0.156 NA
HETATM   11  C17 UNL     1      21.915   0.245  53.197  1.00  0.00     0.109 C 
HETATM   12  C18 UNL     1      23.358   0.639  53.241  1.00  0.00     0.126 C 
HETATM   13  N5  UNL     1      23.335   1.855  52.926  1.00  0.00    -0.281 NA
HETATM   14  C19 UNL     1      24.501   2.666  52.830  1.00  0.00     0.275 C 
ENDROOT
BRANCH   7  15
HETATM   15  N2  UNL     1      20.001   3.441  49.953  1.00  0.00    -0.342 N 
HETATM   16  H11 UNL     1      19.093   3.444  49.447  1.00  0.00     0.167 HD
BRANCH  15  17
HETATM   17  C10 UNL     1      20.828   3.337  48.781  1.00  0.00     0.034 A 
HETATM   18  C11 UNL     1      21.586   2.177  48.632  1.00  0.00     0.029 A 
HETATM   19  C12 UNL     1      22.406   1.960  47.553  1.00  0.00     0.004 A 
HETATM   20  C13 UNL     1      22.488   2.944  46.559  1.00  0.00     0.019 A 
HETATM   21  C14 UNL     1      21.722   4.059  46.761  1.00  0.00     0.013 A 
HETATM   22 BR1  UNL     1      21.822   5.422  45.407  1.00  0.00    -0.051 Br
HETATM   23  C15 UNL     1      20.877   4.348  47.814  1.00  0.00     0.048 A 
ENDBRANCH  15  17
ENDBRANCH   7  15
BRANCH   1  24
HETATM   24  C4  UNL     1      24.141   4.624  49.572  1.00  0.00     0.074 C 
HETATM   25  C3  UNL     1      24.861   5.466  48.881  1.00  0.00     0.005 C 
BRANCH  25  26
HETATM   26  C2  UNL     1      26.291   5.516  48.875  1.00  0.00    -0.010 C 
HETATM   27  C1  UNL     1      27.459   4.885  48.692  1.00  0.00     0.011 C 
ENDBRANCH  25  26
ENDBRANCH   1  24
TORSDOF 4
ENDMDL
MODEL 9
REMARK VINA RESULT:      -6.6      7.284     11.445
REMARK  4 active torsions:
REMARK  status: ('A' for Active; 'I' for Inactive)
REMARK    1  A    between atoms: C2_2  and  C3_3 
REMARK    2  A    between atoms: C4_4  and  C5_5 
REMARK       I    between atoms: C5_5  and  N1_7 
REMARK    3  A    between atoms: C9_11  and  N2_12 
REMARK    4  A    between atoms: N2_12  and  C10_13 
ROOT
HETATM    1  C5  UNL     1      29.474   7.596  46.795  1.00  0.00     0.244 C 
HETATM    2  O1  UNL     1      29.127   7.727  45.610  1.00  0.00    -0.268 OA
HETATM    3  N1  UNL     1      29.275   8.743  47.650  1.00  0.00    -0.330 N 
HETATM    4  C6  UNL     1      29.530   8.935  49.094  1.00  0.00     0.132 C 
HETATM    5  C7  UNL     1      30.865   9.523  49.346  1.00  0.00     0.051 C 
HETATM    6  C8  UNL     1      32.035   8.761  48.872  1.00  0.00     0.025 C 
HETATM    7  C9  UNL     1      32.817   9.155  47.848  1.00  0.00     0.120 C 
HETATM    8  N3  UNL     1      32.358  10.315  47.250  1.00  0.00    -0.249 N 
HETATM    9  C16 UNL     1      32.978  11.387  47.093  1.00  0.00     0.202 A 
HETATM   10  N4  UNL     1      31.666  11.402  46.587  1.00  0.00    -0.156 NA
HETATM   11  C17 UNL     1      31.289  12.139  45.640  1.00  0.00     0.109 C 
HETATM   12  C18 UNL     1      29.888  11.619  45.684  1.00  0.00     0.126 C 
HETATM   13  N5  UNL     1      29.920  10.780  46.618  1.00  0.00    -0.281 NA
HETATM   14  C19 UNL     1      28.793  10.013  47.029  1.00  0.00     0.275 C 
ENDROOT
BRANCH   7  15
HETATM   15  N2  UNL     1      33.916   8.375  47.464  1.00  0.00    -0.342 N 
HETATM   16  H11 UNL     1      34.939   8.187  47.438  1.00  0.00     0.167 HD
BRANCH  15  17
HETATM   17  C10 UNL     1      33.529   7.209  46.716  1.00  0.00     0.034 A 
HETATM   18  C11 UNL     1      33.001   7.411  45.442  1.00  0.00     0.029 A 
HETATM   19  C12 UNL     1      32.602   6.378  44.631  1.00  0.00     0.004 A 
HETATM   20  C13 UNL     1      32.731   5.063  45.101  1.00  0.00     0.019 A 
HETATM   21  C14 UNL     1      33.255   4.930  46.356  1.00  0.00     0.013 A 
HETATM   22 BR1  UNL     1      33.438   3.132  47.018  1.00  0.00    -0.051 Br
HETATM   23  C15 UNL     1      33.677   5.914  47.227  1.00  0.00     0.048 A 
ENDBRANCH  15  17
ENDBRANCH   7  15
BRANCH   1  24
HETATM   24  C4  UNL     1      30.056   6.431  47.421  1.00  0.00     0.074 C 
HETATM   25  C3  UNL     1      29.511   5.477  48.125  1.00  0.00     0.005 C 
BRANCH  25  26
HETATM   26  C2  UNL     1      28.120   5.382  48.448  1.00  0.00    -0.010 C 
HETATM   27  C1  UNL     1      27.096   4.645  48.902  1.00  0.00     0.011 C 
ENDBRANCH  25  26
ENDBRANCH   1  24
TORSDOF 4
ENDMDL
