MODEL 1
REMARK VINA RESULT:      -8.0      0.000      0.000
REMARK  4 active torsions:
REMARK  status: ('A' for Active; 'I' for Inactive)
REMARK    1  A    between atoms: N1_1  and  C1_2 
REMARK    2  A    between atoms: C1_2  and  C2_3 
REMARK    3  A    between atoms: C3_5  and  N3_6 
REMARK    4  A    between atoms: C8_12  and  N4_13 
ROOT
HETATM    1  C2  UNL     1      26.229   1.744  52.562  1.00  0.00     0.081 C 
HETATM    2  N2  UNL     1      25.011   1.419  52.875  1.00  0.00    -0.260 NA
HETATM    3  C3  UNL     1      24.464   0.587  53.910  1.00  0.00     0.234 C 
HETATM    4  C9  UNL     1      25.249  -0.638  54.132  1.00  0.00     0.219 C 
HETATM    5  O1  UNL     1      26.432  -0.314  54.821  1.00  0.00    -0.353 OA
HETATM    6  C10 UNL     1      27.464  -0.103  53.937  1.00  0.00     0.186 A 
HETATM    7 CL2  UNL     1      27.472  -1.381  52.683  1.00  0.00    -0.078 Cl
HETATM    8  C11 UNL     1      28.785  -0.095  54.572  1.00  0.00     0.033 A 
HETATM    9  C12 UNL     1      29.381   1.087  54.335  1.00  0.00     0.001 A 
HETATM   10  C13 UNL     1      28.511   1.976  53.530  1.00  0.00     0.014 A 
HETATM   11  C14 UNL     1      27.397   1.251  53.324  1.00  0.00     0.025 A 
ENDROOT
BRANCH   3  12
HETATM   12  N3  UNL     1      23.076   0.361  53.564  1.00  0.00    -0.331 N 
HETATM   13  C4  UNL     1      22.578  -0.781  54.295  1.00  0.00     0.090 A 
HETATM   14  C5  UNL     1      21.312  -1.193  54.171  1.00  0.00     0.018 A 
HETATM   15  C6  UNL     1      20.366  -0.517  53.293  1.00  0.00     0.025 A 
HETATM   16  C7  UNL     1      20.861   0.516  52.644  1.00  0.00     0.064 A 
HETATM   17 CL1  UNL     1      19.871   1.454  51.544  1.00  0.00    -0.085 Cl
HETATM   18  C8  UNL     1      22.231   1.083  52.668  1.00  0.00     0.365 A 
BRANCH  18  19
HETATM   19  N4  UNL     1      22.761   1.088  51.296  1.00  0.00     0.106 N 
HETATM   20  H8  UNL     1      21.992   1.276  50.618  1.00  0.00     0.316 HD
HETATM   21  H9  UNL     1      23.141   0.140  51.088  1.00  0.00     0.316 HD
ENDBRANCH  18  19
ENDBRANCH   3  12
BRANCH   1  22
HETATM   22  C1  UNL     1      26.555   2.625  51.449  1.00  0.00     0.139 C 
BRANCH  22  23
HETATM   23  N1  UNL     1      26.890   3.510  50.580  1.00  0.00    -0.310 NA
HETATM   24  H1  UNL     1      27.705   3.354  49.919  1.00  0.00     0.186 HD
ENDBRANCH  22  23
ENDBRANCH   1  22
TORSDOF 4
ENDMDL
MODEL 2
REMARK VINA RESULT:      -7.5      3.061      6.157
REMARK  4 active torsions:
REMARK  status: ('A' for Active; 'I' for Inactive)
REMARK    1  A    between atoms: N1_1  and  C1_2 
REMARK    2  A    between atoms: C1_2  and  C2_3 
REMARK    3  A    between atoms: C3_5  and  N3_6 
REMARK    4  A    between atoms: C8_12  and  N4_13 
ROOT
HETATM    1  C2  UNL     1      25.707   3.468  50.261  1.00  0.00     0.081 C 
HETATM    2  N2  UNL     1      26.390   2.611  50.959  1.00  0.00    -0.260 NA
HETATM    3  C3  UNL     1      26.042   1.358  51.568  1.00  0.00     0.234 C 
HETATM    4  C9  UNL     1      24.711   1.379  52.195  1.00  0.00     0.219 C 
HETATM    5  O1  UNL     1      23.724   1.328  51.194  1.00  0.00    -0.353 OA
HETATM    6  C10 UNL     1      23.315   2.597  50.854  1.00  0.00     0.186 A 
HETATM    7 CL2  UNL     1      23.055   3.578  52.330  1.00  0.00    -0.078 Cl
HETATM    8  C11 UNL     1      22.073   2.623  50.078  1.00  0.00     0.033 A 
HETATM    9  C12 UNL     1      22.302   3.227  48.898  1.00  0.00     0.001 A 
HETATM   10  C13 UNL     1      23.717   3.650  48.776  1.00  0.00     0.014 A 
HETATM   11  C14 UNL     1      24.280   3.258  49.933  1.00  0.00     0.025 A 
ENDROOT
BRANCH   3  12
HETATM   12  N3  UNL     1      27.128   1.022  52.465  1.00  0.00    -0.331 N 
HETATM   13  C4  UNL     1      27.249  -0.415  52.555  1.00  0.00     0.090 A 
HETATM   14  C5  UNL     1      28.193  -0.991  53.308  1.00  0.00     0.018 A 
HETATM   15  C6  UNL     1      29.148  -0.206  54.078  1.00  0.00     0.025 A 
HETATM   16  C7  UNL     1      29.001   1.099  53.969  1.00  0.00     0.064 A 
HETATM   17 CL1  UNL     1      30.059   2.205  54.822  1.00  0.00    -0.085 Cl
HETATM   18  C8  UNL     1      28.007   1.879  53.192  1.00  0.00     0.365 A 
BRANCH  18  19
HETATM   19  N4  UNL     1      27.277   2.761  54.115  1.00  0.00     0.106 N 
HETATM   20  H8  UNL     1      27.936   3.438  54.557  1.00  0.00     0.316 HD
HETATM   21  H9  UNL     1      26.869   2.176  54.874  1.00  0.00     0.316 HD
ENDBRANCH  18  19
ENDBRANCH   3  12
BRANCH   1  22
HETATM   22  C1  UNL     1      26.281   4.697  49.730  1.00  0.00     0.139 C 
BRANCH  22  23
HETATM   23  N1  UNL     1      26.770   5.841  49.413  1.00  0.00    -0.310 NA
HETATM   24  H1  UNL     1      26.399   6.390  48.584  1.00  0.00     0.186 HD
ENDBRANCH  22  23
ENDBRANCH   1  22
TORSDOF 4
ENDMDL
MODEL 3
REMARK VINA RESULT:      -7.4      2.316      6.103
REMARK  4 active torsions:
REMARK  status: ('A' for Active; 'I' for Inactive)
REMARK    1  A    between atoms: N1_1  and  C1_2 
REMARK    2  A    between atoms: C1_2  and  C2_3 
REMARK    3  A    between atoms: C3_5  and  N3_6 
REMARK    4  A    between atoms: C8_12  and  N4_13 
ROOT
HETATM    1  C2  UNL     1      22.622   2.529  52.337  1.00  0.00     0.081 C 
HETATM    2  N2  UNL     1      23.798   1.979  52.373  1.00  0.00    -0.260 NA
HETATM    3  C3  UNL     1      24.232   0.611  52.320  1.00  0.00     0.234 C 
HETATM    4  C9  UNL     1      23.370  -0.291  53.099  1.00  0.00     0.219 C 
HETATM    5  O1  UNL     1      22.164  -0.498  52.404  1.00  0.00    -0.353 OA
HETATM    6  C10 UNL     1      21.204   0.390  52.829  1.00  0.00     0.186 A 
HETATM    7 CL2  UNL     1      21.208   0.497  54.617  1.00  0.00    -0.078 Cl
HETATM    8  C11 UNL     1      19.847   0.030  52.409  1.00  0.00     0.033 A 
HETATM    9  C12 UNL     1      19.331   1.031  51.675  1.00  0.00     0.001 A 
HETATM   10  C13 UNL     1      20.298   2.145  51.531  1.00  0.00     0.014 A 
HETATM   11  C14 UNL     1      21.383   1.732  52.211  1.00  0.00     0.025 A 
ENDROOT
BRANCH   3  12
HETATM   12  N3  UNL     1      25.626   0.608  52.714  1.00  0.00    -0.331 N 
HETATM   13  C4  UNL     1      26.099  -0.755  52.789  1.00  0.00     0.090 A 
HETATM   14  C5  UNL     1      27.365  -1.039  53.116  1.00  0.00     0.018 A 
HETATM   15  C6  UNL     1      28.334   0.007  53.414  1.00  0.00     0.025 A 
HETATM   16  C7  UNL     1      27.860   1.234  53.336  1.00  0.00     0.064 A 
HETATM   17 CL1  UNL     1      28.880   2.622  53.660  1.00  0.00    -0.085 Cl
HETATM   18  C8  UNL     1      26.494   1.702  53.002  1.00  0.00     0.365 A 
BRANCH  18  19
HETATM   19  N4  UNL     1      25.994   2.524  54.114  1.00  0.00     0.106 N 
HETATM   20  H8  UNL     1      26.704   2.562  54.876  1.00  0.00     0.316 HD
HETATM   21  H9  UNL     1      25.140   2.069  54.500  1.00  0.00     0.316 HD
ENDBRANCH  18  19
ENDBRANCH   3  12
BRANCH   1  22
HETATM   22  C1  UNL     1      22.416   3.970  52.405  1.00  0.00     0.139 C 
BRANCH  22  23
HETATM   23  N1  UNL     1      22.391   5.254  52.418  1.00  0.00    -0.310 NA
HETATM   24  H1  UNL     1      21.539   5.786  52.763  1.00  0.00     0.186 HD
ENDBRANCH  22  23
ENDBRANCH   1  22
TORSDOF 4
ENDMDL
MODEL 4
REMARK VINA RESULT:      -7.3      2.916      5.846
REMARK  4 active torsions:
REMARK  status: ('A' for Active; 'I' for Inactive)
REMARK    1  A    between atoms: N1_1  and  C1_2 
REMARK    2  A    between atoms: C1_2  and  C2_3 
REMARK    3  A    between atoms: C3_5  and  N3_6 
REMARK    4  A    between atoms: C8_12  and  N4_13 
ROOT
HETATM    1  C2  UNL     1      24.551   0.429  52.929  1.00  0.00     0.081 C 
HETATM    2  N2  UNL     1      24.750   1.601  52.406  1.00  0.00    -0.260 NA
HETATM    3  C3  UNL     1      23.906   2.753  52.256  1.00  0.00     0.234 C 
HETATM    4  C9  UNL     1      22.526   2.404  51.885  1.00  0.00     0.219 C 
HETATM    5  O1  UNL     1      21.859   1.885  53.011  1.00  0.00    -0.353 OA
HETATM    6  C10 UNL     1      21.942   0.512  53.030  1.00  0.00     0.186 A 
HETATM    7 CL2  UNL     1      21.610  -0.150  51.400  1.00  0.00    -0.078 Cl
HETATM    8  C11 UNL     1      21.004  -0.117  53.965  1.00  0.00     0.033 A 
HETATM    9  C12 UNL     1      21.695  -0.844  54.860  1.00  0.00     0.001 A 
HETATM   10  C13 UNL     1      23.153  -0.760  54.612  1.00  0.00     0.014 A 
HETATM   11  C14 UNL     1      23.260   0.047  53.541  1.00  0.00     0.025 A 
ENDROOT
BRANCH   3  12
HETATM   12  N3  UNL     1      24.578   3.636  51.325  1.00  0.00    -0.331 N 
HETATM   13  C4  UNL     1      25.764   2.985  50.819  1.00  0.00     0.090 A 
HETATM   14  C5  UNL     1      26.560   3.580  49.924  1.00  0.00     0.018 A 
HETATM   15  C6  UNL     1      26.277   4.915  49.411  1.00  0.00     0.025 A 
HETATM   16  C7  UNL     1      25.189   5.472  49.901  1.00  0.00     0.064 A 
HETATM   17 CL1  UNL     1      24.687   7.074  49.400  1.00  0.00    -0.085 Cl
HETATM   18  C8  UNL     1      24.222   4.949  50.896  1.00  0.00     0.365 A 
BRANCH  18  19
HETATM   19  N4  UNL     1      24.147   5.894  52.020  1.00  0.00     0.106 N 
HETATM   20  H8  UNL     1      24.689   5.527  52.832  1.00  0.00     0.316 HD
HETATM   21  H9  UNL     1      23.152   5.975  52.315  1.00  0.00     0.316 HD
ENDBRANCH  18  19
ENDBRANCH   3  12
BRANCH   1  22
HETATM   22  C1  UNL     1      25.576  -0.606  52.974  1.00  0.00     0.139 C 
BRANCH  22  23
HETATM   23  N1  UNL     1      26.540  -1.438  53.142  1.00  0.00    -0.310 NA
HETATM   24  H1  UNL     1      27.489  -1.120  53.497  1.00  0.00     0.186 HD
ENDBRANCH  22  23
ENDBRANCH   1  22
TORSDOF 4
ENDMDL
MODEL 5
REMARK VINA RESULT:      -7.3      3.418      6.257
REMARK  4 active torsions:
REMARK  status: ('A' for Active; 'I' for Inactive)
REMARK    1  A    between atoms: N1_1  and  C1_2 
REMARK    2  A    between atoms: C1_2  and  C2_3 
REMARK    3  A    between atoms: C3_5  and  N3_6 
REMARK    4  A    between atoms: C8_12  and  N4_13 
ROOT
HETATM    1  C2  UNL     1      23.196   2.720  51.778  1.00  0.00     0.081 C 
HETATM    2  N2  UNL     1      23.964   3.368  50.955  1.00  0.00    -0.260 NA
HETATM    3  C3  UNL     1      25.278   3.102  50.440  1.00  0.00     0.234 C 
HETATM    4  C9  UNL     1      26.191   2.561  51.459  1.00  0.00     0.219 C 
HETATM    5  O1  UNL     1      25.862   1.216  51.711  1.00  0.00    -0.353 OA
HETATM    6  C10 UNL     1      25.002   1.120  52.780  1.00  0.00     0.186 A 
HETATM    7 CL2  UNL     1      25.557   2.178  54.114  1.00  0.00    -0.078 Cl
HETATM    8  C11 UNL     1      24.880  -0.240  53.312  1.00  0.00     0.033 A 
HETATM    9  C12 UNL     1      23.594  -0.625  53.247  1.00  0.00     0.001 A 
HETATM   10  C13 UNL     1      22.744   0.436  52.658  1.00  0.00     0.014 A 
HETATM   11  C14 UNL     1      23.601   1.437  52.390  1.00  0.00     0.025 A 
ENDROOT
BRANCH   3  12
HETATM   12  N3  UNL     1      25.728   4.328  49.814  1.00  0.00    -0.331 N 
HETATM   13  C4  UNL     1      27.025   4.112  49.215  1.00  0.00     0.090 A 
HETATM   14  C5  UNL     1      27.661   5.084  48.553  1.00  0.00     0.018 A 
HETATM   15  C6  UNL     1      27.084   6.413  48.400  1.00  0.00     0.025 A 
HETATM   16  C7  UNL     1      25.903   6.568  48.962  1.00  0.00     0.064 A 
HETATM   17 CL1  UNL     1      25.053   8.098  48.880  1.00  0.00    -0.085 Cl
HETATM   18  C8  UNL     1      25.085   5.598  49.731  1.00  0.00     0.365 A 
BRANCH  18  19
HETATM   19  N4  UNL     1      24.812   6.165  51.060  1.00  0.00     0.106 N 
HETATM   20  H8  UNL     1      25.457   6.962  51.248  1.00  0.00     0.316 HD
HETATM   21  H9  UNL     1      25.001   5.431  51.775  1.00  0.00     0.316 HD
ENDBRANCH  18  19
ENDBRANCH   3  12
BRANCH   1  22
HETATM   22  C1  UNL     1      21.870   3.187  52.163  1.00  0.00     0.139 C 
BRANCH  22  23
HETATM   23  N1  UNL     1      20.748   3.745  52.444  1.00  0.00    -0.310 NA
HETATM   24  H1  UNL     1      20.091   4.079  51.680  1.00  0.00     0.186 HD
ENDBRANCH  22  23
ENDBRANCH   1  22
TORSDOF 4
ENDMDL
MODEL 6
REMARK VINA RESULT:      -7.1      3.329      5.788
REMARK  4 active torsions:
REMARK  status: ('A' for Active; 'I' for Inactive)
REMARK    1  A    between atoms: N1_1  and  C1_2 
REMARK    2  A    between atoms: C1_2  and  C2_3 
REMARK    3  A    between atoms: C3_5  and  N3_6 
REMARK    4  A    between atoms: C8_12  and  N4_13 
ROOT
HETATM    1  C2  UNL     1      25.547   3.817  50.172  1.00  0.00     0.081 C 
HETATM    2  N2  UNL     1      25.470   2.810  50.989  1.00  0.00    -0.260 NA
HETATM    3  C3  UNL     1      24.367   2.200  51.677  1.00  0.00     0.234 C 
HETATM    4  C9  UNL     1      23.408   3.185  52.202  1.00  0.00     0.219 C 
HETATM    5  O1  UNL     1      22.643   3.702  51.139  1.00  0.00    -0.353 OA
HETATM    6  C10 UNL     1      23.204   4.864  50.663  1.00  0.00     0.186 A 
HETATM    7 CL2  UNL     1      23.686   5.921  52.026  1.00  0.00    -0.078 Cl
HETATM    8  C11 UNL     1      22.305   5.635  49.799  1.00  0.00     0.033 A 
HETATM    9  C12 UNL     1      22.877   5.788  48.592  1.00  0.00     0.001 A 
HETATM   10  C13 UNL     1      24.202   5.127  48.537  1.00  0.00     0.014 A 
HETATM   11  C14 UNL     1      24.356   4.591  49.761  1.00  0.00     0.025 A 
ENDROOT
BRANCH   3  12
HETATM   12  N3  UNL     1      24.941   1.322  52.676  1.00  0.00    -0.331 N 
HETATM   13  C4  UNL     1      23.945   0.366  53.103  1.00  0.00     0.090 A 
HETATM   14  C5  UNL     1      24.224  -0.575  54.012  1.00  0.00     0.018 A 
HETATM   15  C6  UNL     1      25.543  -0.688  54.620  1.00  0.00     0.025 A 
HETATM   16  C7  UNL     1      26.419   0.203  54.204  1.00  0.00     0.064 A 
HETATM   17 CL1  UNL     1      28.058   0.221  54.823  1.00  0.00    -0.085 Cl
HETATM   18  C8  UNL     1      26.258   1.303  53.222  1.00  0.00     0.365 A 
BRANCH  18  19
HETATM   19  N4  UNL     1      26.600   2.573  53.880  1.00  0.00     0.106 N 
HETATM   20  H8  UNL     1      27.514   2.925  53.523  1.00  0.00     0.316 HD
HETATM   21  H9  UNL     1      26.707   2.395  54.901  1.00  0.00     0.316 HD
ENDBRANCH  18  19
ENDBRANCH   3  12
BRANCH   1  22
HETATM   22  C1  UNL     1      26.800   4.266  49.580  1.00  0.00     0.139 C 
BRANCH  22  23
HETATM   23  N1  UNL     1      27.924   4.752  49.193  1.00  0.00    -0.310 NA
HETATM   24  H1  UNL     1      28.002   5.751  48.842  1.00  0.00     0.186 HD
ENDBRANCH  22  23
ENDBRANCH   1  22
TORSDOF 4
ENDMDL
MODEL 7
REMARK VINA RESULT:      -7.0      9.746     10.904
REMARK  4 active torsions:
REMARK  status: ('A' for Active; 'I' for Inactive)
REMARK    1  A    between atoms: N1_1  and  C1_2 
REMARK    2  A    between atoms: C1_2  and  C2_3 
REMARK    3  A    between atoms: C3_5  and  N3_6 
REMARK    4  A    between atoms: C8_12  and  N4_13 
ROOT
HETATM    1  C2  UNL     1      33.767   6.633  48.402  1.00  0.00     0.081 C 
HETATM    2  N2  UNL     1      32.619   7.176  48.672  1.00  0.00    -0.260 NA
HETATM    3  C3  UNL     1      31.285   6.647  48.733  1.00  0.00     0.234 C 
HETATM    4  C9  UNL     1      31.003   5.685  47.655  1.00  0.00     0.219 C 
HETATM    5  O1  UNL     1      31.652   4.468  47.937  1.00  0.00    -0.353 OA
HETATM    6  C10 UNL     1      32.882   4.423  47.323  1.00  0.00     0.186 A 
HETATM    7 CL2  UNL     1      32.752   5.008  45.636  1.00  0.00    -0.078 Cl
HETATM    8  C11 UNL     1      33.468   3.081  47.285  1.00  0.00     0.033 A 
HETATM    9  C12 UNL     1      34.655   3.099  47.916  1.00  0.00     0.001 A 
HETATM   10  C13 UNL     1      34.965   4.450  48.439  1.00  0.00     0.014 A 
HETATM   11  C14 UNL     1      33.904   5.195  48.082  1.00  0.00     0.025 A 
ENDROOT
BRANCH   3  12
HETATM   12  N3  UNL     1      30.393   7.787  48.775  1.00  0.00    -0.331 N 
HETATM   13  C4  UNL     1      31.096   8.926  49.319  1.00  0.00     0.090 A 
HETATM   14  C5  UNL     1      30.502  10.117  49.449  1.00  0.00     0.018 A 
HETATM   15  C6  UNL     1      29.117  10.332  49.053  1.00  0.00     0.025 A 
HETATM   16  C7  UNL     1      28.513   9.268  48.566  1.00  0.00     0.064 A 
HETATM   17 CL1  UNL     1      26.844   9.336  48.035  1.00  0.00    -0.085 Cl
HETATM   18  C8  UNL     1      29.029   7.891  48.371  1.00  0.00     0.365 A 
BRANCH  18  19
HETATM   19  N4  UNL     1      28.163   6.957  49.107  1.00  0.00     0.106 N 
HETATM   20  H8  UNL     1      27.860   6.183  48.479  1.00  0.00     0.316 HD
HETATM   21  H9  UNL     1      27.310   7.471  49.410  1.00  0.00     0.316 HD
ENDBRANCH  18  19
ENDBRANCH   3  12
BRANCH   1  22
HETATM   22  C1  UNL     1      35.019   7.379  48.402  1.00  0.00     0.139 C 
BRANCH  22  23
HETATM   23  N1  UNL     1      36.042   8.150  48.317  1.00  0.00    -0.310 NA
HETATM   24  H1  UNL     1      36.969   7.798  47.935  1.00  0.00     0.186 HD
ENDBRANCH  22  23
ENDBRANCH   1  22
TORSDOF 4
ENDMDL
MODEL 8
REMARK VINA RESULT:      -6.8      3.813      6.033
REMARK  4 active torsions:
REMARK  status: ('A' for Active; 'I' for Inactive)
REMARK    1  A    between atoms: N1_1  and  C1_2 
REMARK    2  A    between atoms: C1_2  and  C2_3 
REMARK    3  A    between atoms: C3_5  and  N3_6 
REMARK    4  A    between atoms: C8_12  and  N4_13 
ROOT
HETATM    1  C2  UNL     1      24.223   1.685  52.284  1.00  0.00     0.081 C 
HETATM    2  N2  UNL     1      23.972   2.951  52.134  1.00  0.00    -0.260 NA
HETATM    3  C3  UNL     1      22.778   3.731  52.305  1.00  0.00     0.234 C 
HETATM    4  C9  UNL     1      21.574   3.047  51.808  1.00  0.00     0.219 C 
HETATM    5  O1  UNL     1      21.210   2.030  52.711  1.00  0.00    -0.353 OA
HETATM    6  C10 UNL     1      21.755   0.827  52.329  1.00  0.00     0.186 A 
HETATM    7 CL2  UNL     1      21.545   0.585  50.567  1.00  0.00    -0.078 Cl
HETATM    8  C11 UNL     1      21.160  -0.327  53.010  1.00  0.00     0.033 A 
HETATM    9  C12 UNL     1      22.122  -0.992  53.672  1.00  0.00     0.001 A 
HETATM   10  C13 UNL     1      23.442  -0.341  53.502  1.00  0.00     0.014 A 
HETATM   11  C14 UNL     1      23.188   0.723  52.719  1.00  0.00     0.025 A 
ENDROOT
BRANCH   3  12
HETATM   12  N3  UNL     1      23.038   5.018  51.694  1.00  0.00    -0.331 N 
HETATM   13  C4  UNL     1      21.784   5.660  51.376  1.00  0.00     0.090 A 
HETATM   14  C5  UNL     1      21.742   6.875  50.818  1.00  0.00     0.018 A 
HETATM   15  C6  UNL     1      22.954   7.616  50.498  1.00  0.00     0.025 A 
HETATM   16  C7  UNL     1      24.075   6.993  50.802  1.00  0.00     0.064 A 
HETATM   17 CL1  UNL     1      25.634   7.730  50.492  1.00  0.00    -0.085 Cl
HETATM   18  C8  UNL     1      24.281   5.655  51.407  1.00  0.00     0.365 A 
BRANCH  18  19
HETATM   19  N4  UNL     1      25.115   4.853  50.499  1.00  0.00     0.106 N 
HETATM   20  H8  UNL     1      25.595   5.475  49.813  1.00  0.00     0.316 HD
HETATM   21  H9  UNL     1      24.493   4.212  49.964  1.00  0.00     0.316 HD
ENDBRANCH  18  19
ENDBRANCH   3  12
BRANCH   1  22
HETATM   22  C1  UNL     1      25.538   1.103  52.052  1.00  0.00     0.139 C 
BRANCH  22  23
HETATM   23  N1  UNL     1      26.633   0.450  51.900  1.00  0.00    -0.310 NA
HETATM   24  H1  UNL     1      26.998  -0.200  52.656  1.00  0.00     0.186 HD
ENDBRANCH  22  23
ENDBRANCH   1  22
TORSDOF 4
ENDMDL
MODEL 9
REMARK VINA RESULT:      -6.6      3.038      6.156
REMARK  4 active torsions:
REMARK  status: ('A' for Active; 'I' for Inactive)
REMARK    1  A    between atoms: N1_1  and  C1_2 
REMARK    2  A    between atoms: C1_2  and  C2_3 
REMARK    3  A    between atoms: C3_5  and  N3_6 
REMARK    4  A    between atoms: C8_12  and  N4_13 
ROOT
HETATM    1  C2  UNL     1      23.698   4.137  51.334  1.00  0.00     0.081 C 
HETATM    2  N2  UNL     1      24.455   3.142  51.686  1.00  0.00    -0.260 NA
HETATM    3  C3  UNL     1      24.338   1.722  51.506  1.00  0.00     0.234 C 
HETATM    4  C9  UNL     1      22.963   1.235  51.696  1.00  0.00     0.219 C 
HETATM    5  O1  UNL     1      22.187   1.584  50.574  1.00  0.00    -0.353 OA
HETATM    6  C10 UNL     1      21.535   2.776  50.791  1.00  0.00     0.186 A 
HETATM    7 CL2  UNL     1      20.813   2.796  52.430  1.00  0.00    -0.078 Cl
HETATM    8  C11 UNL     1      20.461   3.038  49.829  1.00  0.00     0.033 A 
HETATM    9  C12 UNL     1      20.714   4.193  49.189  1.00  0.00     0.001 A 
HETATM   10  C13 UNL     1      21.981   4.801  49.657  1.00  0.00     0.014 A 
HETATM   11  C14 UNL     1      22.437   3.942  50.587  1.00  0.00     0.025 A 
ENDROOT
BRANCH   3  12
HETATM   12  N3  UNL     1      25.321   1.115  52.380  1.00  0.00    -0.331 N 
HETATM   13  C4  UNL     1      24.646   0.346  53.400  1.00  0.00     0.090 A 
HETATM   14  C5  UNL     1      25.327  -0.334  54.328  1.00  0.00     0.018 A 
HETATM   15  C6  UNL     1      26.783  -0.336  54.365  1.00  0.00     0.025 A 
HETATM   16  C7  UNL     1      27.358   0.379  53.420  1.00  0.00     0.064 A 
HETATM   17 CL1  UNL     1      29.103   0.494  53.304  1.00  0.00    -0.085 Cl
HETATM   18  C8  UNL     1      26.745   1.188  52.339  1.00  0.00     0.365 A 
BRANCH  18  19
HETATM   19  N4  UNL     1      27.229   2.572  52.455  1.00  0.00     0.106 N 
HETATM   20  H8  UNL     1      26.807   3.162  51.706  1.00  0.00     0.316 HD
HETATM   21  H9  UNL     1      28.261   2.571  52.313  1.00  0.00     0.316 HD
ENDBRANCH  18  19
ENDBRANCH   3  12
BRANCH   1  22
HETATM   22  C1  UNL     1      24.025   5.526  51.627  1.00  0.00     0.139 C 
BRANCH  22  23
HETATM   23  N1  UNL     1      24.199   6.742  52.001  1.00  0.00    -0.310 NA
HETATM   24  H1  UNL     1      25.160   7.193  51.987  1.00  0.00     0.186 HD
ENDBRANCH  22  23
ENDBRANCH   1  22
TORSDOF 4
ENDMDL
