MODEL 1
REMARK VINA RESULT:      -8.7      0.000      0.000
REMARK  4 active torsions:
REMARK  status: ('A' for Active; 'I' for Inactive)
REMARK    1  A    between atoms: N1_1  and  C1_2 
REMARK    2  A    between atoms: C6_7  and  N2_8 
REMARK    3  A    between atoms: N2_8  and  C7_9 
REMARK    4  A    between atoms: N5_15  and  C11_16 
ROOT
HETATM    1  C7  UNL     1      23.796   1.497  51.590  1.00  0.00     0.724 A 
HETATM    2  N3  UNL     1      22.483   1.366  51.907  1.00  0.00    -0.073 NA
HETATM    3  C8  UNL     1      22.043   0.640  52.937  1.00  0.00     0.172 A 
HETATM    4  C9  UNL     1      23.009   0.018  53.680  1.00  0.00     0.124 A 
HETATM    5  C10 UNL     1      24.356   0.112  53.410  1.00  0.00     0.199 A 
HETATM    6  N4  UNL     1      24.700   0.864  52.353  1.00  0.00    -0.041 NA
HETATM    7  N5  UNL     1      25.369  -0.522  54.172  1.00  0.00    -0.235 N 
HETATM    8  N6  UNL     1      24.868  -1.266  55.241  1.00  0.00    -0.285 N 
HETATM    9  C17 UNL     1      23.483  -1.378  55.540  1.00  0.00     0.224 A 
HETATM   10  N7  UNL     1      22.593  -0.766  54.796  1.00  0.00    -0.237 NA
HETATM   11  H19 UNL     1      25.417  -1.811  55.925  1.00  0.00     0.188 HD
ENDROOT
BRANCH   1  12
HETATM   12  N2  UNL     1      24.121   2.325  50.454  1.00  0.00    -0.216 N 
HETATM   13  H13 UNL     1      23.701   2.102  49.527  1.00  0.00     0.178 HD
BRANCH  12  14
HETATM   14  C6  UNL     1      24.990   3.464  50.468  1.00  0.00     0.132 C 
HETATM   15  C1  UNL     1      24.267   4.763  50.109  1.00  0.00     0.240 C 
HETATM   16  C2  UNL     1      25.312   5.864  50.150  1.00  0.00     0.037 C 
HETATM   17  C3  UNL     1      26.317   5.676  49.053  1.00  0.00     0.002 C 
HETATM   18  C4  UNL     1      27.019   4.349  49.299  1.00  0.00     0.002 C 
HETATM   19  C5  UNL     1      26.002   3.264  49.346  1.00  0.00     0.028 C 
BRANCH  15  20
HETATM   20  N1  UNL     1      23.782   4.673  48.750  1.00  0.00     0.085 N 
HETATM   21  H1  UNL     1      23.439   3.689  48.621  1.00  0.00     0.313 HD
HETATM   22  H2  UNL     1      22.950   5.293  48.570  1.00  0.00     0.313 HD
ENDBRANCH  15  20
ENDBRANCH  12  14
ENDBRANCH   1  12
BRANCH   7  23
HETATM   23  C11 UNL     1      26.757  -0.473  53.947  1.00  0.00     0.060 A 
HETATM   24  C12 UNL     1      27.559  -1.381  53.310  1.00  0.00     0.032 A 
HETATM   25  C13 UNL     1      28.911  -1.272  53.106  1.00  0.00     0.004 A 
HETATM   26  C14 UNL     1      29.565  -0.161  53.568  1.00  0.00     0.024 A 
HETATM   27  C15 UNL     1      28.810   0.805  54.226  1.00  0.00     0.036 A 
HETATM   28 CL1  UNL     1      29.723   2.192  54.783  1.00  0.00    -0.084 Cl
HETATM   29  C16 UNL     1      27.463   0.634  54.397  1.00  0.00     0.055 A 
ENDBRANCH   7  23
TORSDOF 4
ENDMDL
MODEL 2
REMARK VINA RESULT:      -8.5      2.042      5.720
REMARK  4 active torsions:
REMARK  status: ('A' for Active; 'I' for Inactive)
REMARK    1  A    between atoms: N1_1  and  C1_2 
REMARK    2  A    between atoms: C6_7  and  N2_8 
REMARK    3  A    between atoms: N2_8  and  C7_9 
REMARK    4  A    between atoms: N5_15  and  C11_16 
ROOT
HETATM    1  C7  UNL     1      22.555   2.021  51.316  1.00  0.00     0.724 A 
HETATM    2  N3  UNL     1      22.011   2.930  50.468  1.00  0.00    -0.073 NA
HETATM    3  C8  UNL     1      22.730   3.831  49.793  1.00  0.00     0.172 A 
HETATM    4  C9  UNL     1      24.081   3.791  50.005  1.00  0.00     0.124 A 
HETATM    5  C10 UNL     1      24.692   2.894  50.853  1.00  0.00     0.199 A 
HETATM    6  N4  UNL     1      23.886   2.028  51.485  1.00  0.00    -0.041 NA
HETATM    7  N5  UNL     1      26.090   2.836  51.079  1.00  0.00    -0.235 N 
HETATM    8  N6  UNL     1      26.804   3.790  50.353  1.00  0.00    -0.285 N 
HETATM    9  C17 UNL     1      26.196   4.726  49.473  1.00  0.00     0.224 A 
HETATM   10  N7  UNL     1      24.896   4.728  49.306  1.00  0.00    -0.237 NA
HETATM   11  H19 UNL     1      27.827   3.934  50.363  1.00  0.00     0.188 HD
ENDROOT
BRANCH   1  12
HETATM   12  N2  UNL     1      21.652   1.102  51.965  1.00  0.00    -0.216 N 
HETATM   13  H13 UNL     1      20.628   1.289  51.933  1.00  0.00     0.178 HD
BRANCH  12  14
HETATM   14  C6  UNL     1      22.030  -0.085  52.673  1.00  0.00     0.132 C 
HETATM   15  C1  UNL     1      20.923  -0.603  53.590  1.00  0.00     0.240 C 
HETATM   16  C2  UNL     1      21.474  -1.840  54.276  1.00  0.00     0.037 C 
HETATM   17  C3  UNL     1      22.592  -1.472  55.206  1.00  0.00     0.002 C 
HETATM   18  C4  UNL     1      23.703  -0.862  54.365  1.00  0.00     0.002 C 
HETATM   19  C5  UNL     1      23.162   0.305  53.617  1.00  0.00     0.028 C 
BRANCH  15  20
HETATM   20  N1  UNL     1      20.659   0.382  54.614  1.00  0.00     0.085 N 
HETATM   21  H1  UNL     1      21.563   0.529  55.127  1.00  0.00     0.313 HD
HETATM   22  H2  UNL     1      20.395   1.323  54.220  1.00  0.00     0.313 HD
ENDBRANCH  15  20
ENDBRANCH  12  14
ENDBRANCH   1  12
BRANCH   7  23
HETATM   23  C11 UNL     1      26.776   1.952  51.933  1.00  0.00     0.060 A 
HETATM   24  C12 UNL     1      27.667   2.238  52.932  1.00  0.00     0.032 A 
HETATM   25  C13 UNL     1      28.296   1.331  53.747  1.00  0.00     0.004 A 
HETATM   26  C14 UNL     1      28.037  -0.004  53.579  1.00  0.00     0.024 A 
HETATM   27  C15 UNL     1      27.140  -0.366  52.579  1.00  0.00     0.036 A 
HETATM   28 CL1  UNL     1      26.866  -2.090  52.434  1.00  0.00    -0.084 Cl
HETATM   29  C16 UNL     1      26.546   0.590  51.801  1.00  0.00     0.055 A 
ENDBRANCH   7  23
TORSDOF 4
ENDMDL
MODEL 3
REMARK VINA RESULT:      -8.5      2.799      5.814
REMARK  4 active torsions:
REMARK  status: ('A' for Active; 'I' for Inactive)
REMARK    1  A    between atoms: N1_1  and  C1_2 
REMARK    2  A    between atoms: C6_7  and  N2_8 
REMARK    3  A    between atoms: N2_8  and  C7_9 
REMARK    4  A    between atoms: N5_15  and  C11_16 
ROOT
HETATM    1  C7  UNL     1      25.191  -0.770  53.254  1.00  0.00     0.724 A 
HETATM    2  N3  UNL     1      24.944  -1.193  54.519  1.00  0.00    -0.073 NA
HETATM    3  C8  UNL     1      23.764  -1.051  55.126  1.00  0.00     0.172 A 
HETATM    4  C9  UNL     1      22.786  -0.441  54.389  1.00  0.00     0.124 A 
HETATM    5  C10 UNL     1      22.975   0.011  53.101  1.00  0.00     0.199 A 
HETATM    6  N4  UNL     1      24.196  -0.177  52.577  1.00  0.00    -0.041 NA
HETATM    7  N5  UNL     1      21.972   0.641  52.322  1.00  0.00    -0.235 N 
HETATM    8  N6  UNL     1      20.754   0.765  52.991  1.00  0.00    -0.285 N 
HETATM    9  C17 UNL     1      20.535   0.307  54.318  1.00  0.00     0.224 A 
HETATM   10  N7  UNL     1      21.505  -0.269  54.988  1.00  0.00    -0.237 NA
HETATM   11  H19 UNL     1      19.889   1.191  52.623  1.00  0.00     0.188 HD
ENDROOT
BRANCH   1  12
HETATM   12  N2  UNL     1      26.514  -1.004  52.726  1.00  0.00    -0.216 N 
HETATM   13  H13 UNL     1      26.725  -1.918  52.274  1.00  0.00     0.178 HD
BRANCH  12  14
HETATM   14  C6  UNL     1      27.605  -0.076  52.760  1.00  0.00     0.132 C 
HETATM   15  C1  UNL     1      28.643  -0.425  53.828  1.00  0.00     0.240 C 
HETATM   16  C2  UNL     1      29.716   0.646  53.753  1.00  0.00     0.037 C 
HETATM   17  C3  UNL     1      29.164   1.974  54.182  1.00  0.00     0.002 C 
HETATM   18  C4  UNL     1      28.057   2.345  53.208  1.00  0.00     0.002 C 
HETATM   19  C5  UNL     1      27.033   1.266  53.203  1.00  0.00     0.028 C 
BRANCH  15  20
HETATM   20  N1  UNL     1      28.026  -0.333  55.132  1.00  0.00     0.085 N 
HETATM   21  H1  UNL     1      27.997   0.687  55.378  1.00  0.00     0.313 HD
HETATM   22  H2  UNL     1      27.023  -0.658  55.136  1.00  0.00     0.313 HD
ENDBRANCH  15  20
ENDBRANCH  12  14
ENDBRANCH   1  12
BRANCH   7  23
HETATM   23  C11 UNL     1      22.100   1.130  51.009  1.00  0.00     0.060 A 
HETATM   24  C12 UNL     1      21.449   0.728  49.873  1.00  0.00     0.032 A 
HETATM   25  C13 UNL     1      21.604   1.254  48.616  1.00  0.00     0.004 A 
HETATM   26  C14 UNL     1      22.485   2.286  48.432  1.00  0.00     0.024 A 
HETATM   27  C15 UNL     1      23.183   2.745  49.545  1.00  0.00     0.036 A 
HETATM   28 CL1  UNL     1      24.287   4.065  49.221  1.00  0.00    -0.084 Cl
HETATM   29  C16 UNL     1      22.982   2.175  50.773  1.00  0.00     0.055 A 
ENDBRANCH   7  23
TORSDOF 4
ENDMDL
MODEL 4
REMARK VINA RESULT:      -8.4      2.764      6.566
REMARK  4 active torsions:
REMARK  status: ('A' for Active; 'I' for Inactive)
REMARK    1  A    between atoms: N1_1  and  C1_2 
REMARK    2  A    between atoms: C6_7  and  N2_8 
REMARK    3  A    between atoms: N2_8  and  C7_9 
REMARK    4  A    between atoms: N5_15  and  C11_16 
ROOT
HETATM    1  C7  UNL     1      25.241   2.510  52.834  1.00  0.00     0.724 A 
HETATM    2  N3  UNL     1      24.047   1.942  53.138  1.00  0.00    -0.073 NA
HETATM    3  C8  UNL     1      22.963   2.047  52.365  1.00  0.00     0.172 A 
HETATM    4  C9  UNL     1      23.121   2.776  51.218  1.00  0.00     0.124 A 
HETATM    5  C10 UNL     1      24.306   3.377  50.855  1.00  0.00     0.199 A 
HETATM    6  N4  UNL     1      25.338   3.214  51.697  1.00  0.00    -0.041 NA
HETATM    7  N5  UNL     1      24.487   4.131  49.669  1.00  0.00    -0.235 N 
HETATM    8  N6  UNL     1      23.333   4.212  48.888  1.00  0.00    -0.285 N 
HETATM    9  C17 UNL     1      22.100   3.602  49.241  1.00  0.00     0.224 A 
HETATM   10  N7  UNL     1      21.996   2.916  50.354  1.00  0.00    -0.237 NA
HETATM   11  H19 UNL     1      23.231   4.709  47.988  1.00  0.00     0.188 HD
ENDROOT
BRANCH   1  12
HETATM   12  N2  UNL     1      26.326   2.300  53.761  1.00  0.00    -0.216 N 
HETATM   13  H13 UNL     1      26.704   3.112  54.294  1.00  0.00     0.178 HD
BRANCH  12  14
HETATM   14  C6  UNL     1      26.961   1.045  54.037  1.00  0.00     0.132 C 
HETATM   15  C1  UNL     1      28.435   1.199  54.411  1.00  0.00     0.240 C 
HETATM   16  C2  UNL     1      28.968  -0.201  54.654  1.00  0.00     0.037 C 
HETATM   17  C3  UNL     1      28.983  -0.988  53.376  1.00  0.00     0.002 C 
HETATM   18  C4  UNL     1      27.545  -1.105  52.895  1.00  0.00     0.002 C 
HETATM   19  C5  UNL     1      26.975   0.260  52.730  1.00  0.00     0.028 C 
BRANCH  15  20
HETATM   20  N1  UNL     1      29.153   1.748  53.283  1.00  0.00     0.085 N 
HETATM   21  H1  UNL     1      29.366   0.943  52.644  1.00  0.00     0.313 HD
HETATM   22  H2  UNL     1      28.573   2.420  52.714  1.00  0.00     0.313 HD
ENDBRANCH  15  20
ENDBRANCH  12  14
ENDBRANCH   1  12
BRANCH   7  23
HETATM   23  C11 UNL     1      25.664   4.774  49.243  1.00  0.00     0.060 A 
HETATM   24  C12 UNL     1      26.911   4.245  49.046  1.00  0.00     0.032 A 
HETATM   25  C13 UNL     1      28.024   4.921  48.612  1.00  0.00     0.004 A 
HETATM   26  C14 UNL     1      27.923   6.258  48.337  1.00  0.00     0.024 A 
HETATM   27  C15 UNL     1      26.682   6.863  48.515  1.00  0.00     0.036 A 
HETATM   28 CL1  UNL     1      26.641   8.572  48.140  1.00  0.00    -0.084 Cl
HETATM   29  C16 UNL     1      25.611   6.130  48.951  1.00  0.00     0.055 A 
ENDBRANCH   7  23
TORSDOF 4
ENDMDL
MODEL 5
REMARK VINA RESULT:      -8.4      2.141      2.886
REMARK  4 active torsions:
REMARK  status: ('A' for Active; 'I' for Inactive)
REMARK    1  A    between atoms: N1_1  and  C1_2 
REMARK    2  A    between atoms: C6_7  and  N2_8 
REMARK    3  A    between atoms: N2_8  and  C7_9 
REMARK    4  A    between atoms: N5_15  and  C11_16 
ROOT
HETATM    1  C7  UNL     1      23.756   4.068  52.118  1.00  0.00     0.724 A 
HETATM    2  N3  UNL     1      22.423   3.838  52.010  1.00  0.00    -0.073 NA
HETATM    3  C8  UNL     1      21.856   2.656  52.264  1.00  0.00     0.172 A 
HETATM    4  C9  UNL     1      22.710   1.660  52.651  1.00  0.00     0.124 A 
HETATM    5  C10 UNL     1      24.071   1.830  52.778  1.00  0.00     0.199 A 
HETATM    6  N4  UNL     1      24.546   3.054  52.501  1.00  0.00    -0.041 NA
HETATM    7  N5  UNL     1      24.968   0.810  53.182  1.00  0.00    -0.235 N 
HETATM    8  N6  UNL     1      24.336  -0.406  53.442  1.00  0.00    -0.285 N 
HETATM    9  C17 UNL     1      22.935  -0.607  53.318  1.00  0.00     0.224 A 
HETATM   10  N7  UNL     1      22.156   0.378  52.939  1.00  0.00    -0.237 NA
HETATM   11  H19 UNL     1      24.788  -1.284  53.745  1.00  0.00     0.188 HD
ENDROOT
BRANCH   1  12
HETATM   12  N2  UNL     1      24.221   5.402  51.822  1.00  0.00    -0.216 N 
HETATM   13  H13 UNL     1      24.707   5.946  52.565  1.00  0.00     0.178 HD
BRANCH  12  14
HETATM   14  C6  UNL     1      24.081   6.079  50.567  1.00  0.00     0.132 C 
HETATM   15  C1  UNL     1      25.426   6.455  49.946  1.00  0.00     0.240 C 
HETATM   16  C2  UNL     1      25.116   7.172  48.644  1.00  0.00     0.037 C 
HETATM   17  C3  UNL     1      24.444   8.486  48.915  1.00  0.00     0.002 C 
HETATM   18  C4  UNL     1      23.128   8.190  49.618  1.00  0.00     0.002 C 
HETATM   19  C5  UNL     1      23.404   7.413  50.857  1.00  0.00     0.028 C 
BRANCH  15  20
HETATM   20  N1  UNL     1      26.099   7.397  50.812  1.00  0.00     0.085 N 
HETATM   21  H1  UNL     1      26.880   7.815  50.249  1.00  0.00     0.313 HD
HETATM   22  H2  UNL     1      25.484   8.205  51.095  1.00  0.00     0.313 HD
ENDBRANCH  15  20
ENDBRANCH  12  14
ENDBRANCH   1  12
BRANCH   7  23
HETATM   23  C11 UNL     1      26.364   0.915  53.326  1.00  0.00     0.060 A 
HETATM   24  C12 UNL     1      27.128   2.035  53.515  1.00  0.00     0.032 A 
HETATM   25  C13 UNL     1      28.491   2.076  53.665  1.00  0.00     0.004 A 
HETATM   26  C14 UNL     1      29.199   0.903  53.630  1.00  0.00     0.024 A 
HETATM   27  C15 UNL     1      28.484  -0.276  53.441  1.00  0.00     0.036 A 
HETATM   28 CL1  UNL     1      29.464  -1.727  53.410  1.00  0.00    -0.084 Cl
HETATM   29  C16 UNL     1      27.123  -0.246  53.298  1.00  0.00     0.055 A 
ENDBRANCH   7  23
TORSDOF 4
ENDMDL
MODEL 6
REMARK VINA RESULT:      -8.3      1.190      1.507
REMARK  4 active torsions:
REMARK  status: ('A' for Active; 'I' for Inactive)
REMARK    1  A    between atoms: N1_1  and  C1_2 
REMARK    2  A    between atoms: C6_7  and  N2_8 
REMARK    3  A    between atoms: N2_8  and  C7_9 
REMARK    4  A    between atoms: N5_15  and  C11_16 
ROOT
HETATM    1  C7  UNL     1      23.173   2.274  51.417  1.00  0.00     0.724 A 
HETATM    2  N3  UNL     1      21.885   1.885  51.594  1.00  0.00    -0.073 NA
HETATM    3  C8  UNL     1      21.512   0.946  52.467  1.00  0.00     0.172 A 
HETATM    4  C9  UNL     1      22.522   0.380  53.196  1.00  0.00     0.124 A 
HETATM    5  C10 UNL     1      23.847   0.731  53.063  1.00  0.00     0.199 A 
HETATM    6  N4  UNL     1      24.122   1.684  52.159  1.00  0.00    -0.041 NA
HETATM    7  N5  UNL     1      24.903   0.157  53.813  1.00  0.00    -0.235 N 
HETATM    8  N6  UNL     1      24.471  -0.814  54.717  1.00  0.00    -0.285 N 
HETATM    9  C17 UNL     1      23.111  -1.194  54.873  1.00  0.00     0.224 A 
HETATM   10  N7  UNL     1      22.178  -0.625  54.147  1.00  0.00    -0.237 NA
HETATM   11  H19 UNL     1      25.062  -1.364  55.362  1.00  0.00     0.188 HD
ENDROOT
BRANCH   1  12
HETATM   12  N2  UNL     1      23.422   3.310  50.444  1.00  0.00    -0.216 N 
HETATM   13  H13 UNL     1      22.709   3.496  49.707  1.00  0.00     0.178 HD
BRANCH  12  14
HETATM   14  C6  UNL     1      24.588   4.141  50.384  1.00  0.00     0.132 C 
HETATM   15  C1  UNL     1      24.299   5.521  49.793  1.00  0.00     0.240 C 
HETATM   16  C2  UNL     1      25.619   6.270  49.780  1.00  0.00     0.037 C 
HETATM   17  C3  UNL     1      26.573   5.636  48.810  1.00  0.00     0.002 C 
HETATM   18  C4  UNL     1      26.838   4.218  49.291  1.00  0.00     0.002 C 
HETATM   19  C5  UNL     1      25.545   3.490  49.392  1.00  0.00     0.028 C 
BRANCH  15  20
HETATM   20  N1  UNL     1      23.871   5.367  48.421  1.00  0.00     0.085 N 
HETATM   21  H1  UNL     1      23.991   4.350  48.184  1.00  0.00     0.313 HD
HETATM   22  H2  UNL     1      22.847   5.575  48.284  1.00  0.00     0.313 HD
ENDBRANCH  15  20
ENDBRANCH  12  14
ENDBRANCH   1  12
BRANCH   7  23
HETATM   23  C11 UNL     1      26.274   0.464  53.722  1.00  0.00     0.060 A 
HETATM   24  C12 UNL     1      26.887   1.687  53.765  1.00  0.00     0.032 A 
HETATM   25  C13 UNL     1      28.236   1.926  53.686  1.00  0.00     0.004 A 
HETATM   26  C14 UNL     1      29.091   0.865  53.551  1.00  0.00     0.024 A 
HETATM   27  C15 UNL     1      28.535  -0.410  53.501  1.00  0.00     0.036 A 
HETATM   28 CL1  UNL     1      29.698  -1.707  53.329  1.00  0.00    -0.084 Cl
HETATM   29  C16 UNL     1      27.179  -0.578  53.585  1.00  0.00     0.055 A 
ENDBRANCH   7  23
TORSDOF 4
ENDMDL
MODEL 7
REMARK VINA RESULT:      -8.3      1.472      2.210
REMARK  4 active torsions:
REMARK  status: ('A' for Active; 'I' for Inactive)
REMARK    1  A    between atoms: N1_1  and  C1_2 
REMARK    2  A    between atoms: C6_7  and  N2_8 
REMARK    3  A    between atoms: N2_8  and  C7_9 
REMARK    4  A    between atoms: N5_15  and  C11_16 
ROOT
HETATM    1  C7  UNL     1      22.917   1.310  51.239  1.00  0.00     0.724 A 
HETATM    2  N3  UNL     1      21.703   0.763  51.498  1.00  0.00    -0.073 NA
HETATM    3  C8  UNL     1      21.464  -0.041  52.538  1.00  0.00     0.172 A 
HETATM    4  C9  UNL     1      22.535  -0.291  53.352  1.00  0.00     0.124 A 
HETATM    5  C10 UNL     1      23.791   0.234  53.141  1.00  0.00     0.199 A 
HETATM    6  N4  UNL     1      23.931   1.030  52.071  1.00  0.00    -0.041 NA
HETATM    7  N5  UNL     1      24.908  -0.012  53.977  1.00  0.00    -0.235 N 
HETATM    8  N6  UNL     1      24.616  -0.851  55.053  1.00  0.00    -0.285 N 
HETATM    9  C17 UNL     1      23.329  -1.405  55.292  1.00  0.00     0.224 A 
HETATM   10  N7  UNL     1      22.334  -1.139  54.480  1.00  0.00    -0.237 NA
HETATM   11  H19 UNL     1      25.272  -1.167  55.786  1.00  0.00     0.188 HD
ENDROOT
BRANCH   1  12
HETATM   12  N2  UNL     1      23.019   2.170  50.084  1.00  0.00    -0.216 N 
HETATM   13  H13 UNL     1      23.094   1.741  49.137  1.00  0.00     0.178 HD
BRANCH  12  14
HETATM   14  C6  UNL     1      23.027   3.603  50.104  1.00  0.00     0.132 C 
HETATM   15  C1  UNL     1      24.434   4.186  49.969  1.00  0.00     0.240 C 
HETATM   16  C2  UNL     1      24.282   5.696  50.024  1.00  0.00     0.037 C 
HETATM   17  C3  UNL     1      23.823   6.129  51.385  1.00  0.00     0.002 C 
HETATM   18  C4  UNL     1      22.456   5.506  51.625  1.00  0.00     0.002 C 
HETATM   19  C5  UNL     1      22.565   4.028  51.493  1.00  0.00     0.028 C 
BRANCH  15  20
HETATM   20  N1  UNL     1      25.223   3.785  51.113  1.00  0.00     0.085 N 
HETATM   21  H1  UNL     1      24.816   4.283  51.944  1.00  0.00     0.313 HD
HETATM   22  H2  UNL     1      25.143   2.756  51.326  1.00  0.00     0.313 HD
ENDBRANCH  15  20
ENDBRANCH  12  14
ENDBRANCH   1  12
BRANCH   7  23
HETATM   23  C11 UNL     1      26.215   0.486  53.817  1.00  0.00     0.060 A 
HETATM   24  C12 UNL     1      26.643   1.786  53.785  1.00  0.00     0.032 A 
HETATM   25  C13 UNL     1      27.939   2.214  53.640  1.00  0.00     0.004 A 
HETATM   26  C14 UNL     1      28.935   1.283  53.511  1.00  0.00     0.024 A 
HETATM   27  C15 UNL     1      28.570  -0.060  53.535  1.00  0.00     0.036 A 
HETATM   28 CL1  UNL     1      29.904  -1.182  53.365  1.00  0.00    -0.084 Cl
HETATM   29  C16 UNL     1      27.258  -0.419  53.683  1.00  0.00     0.055 A 
ENDBRANCH   7  23
TORSDOF 4
ENDMDL
MODEL 8
REMARK VINA RESULT:      -8.2      3.150      6.527
REMARK  4 active torsions:
REMARK  status: ('A' for Active; 'I' for Inactive)
REMARK    1  A    between atoms: N1_1  and  C1_2 
REMARK    2  A    between atoms: C6_7  and  N2_8 
REMARK    3  A    between atoms: N2_8  and  C7_9 
REMARK    4  A    between atoms: N5_15  and  C11_16 
ROOT
HETATM    1  C7  UNL     1      25.341   2.462  51.979  1.00  0.00     0.724 A 
HETATM    2  N3  UNL     1      25.634   3.249  50.914  1.00  0.00    -0.073 NA
HETATM    3  C8  UNL     1      24.829   3.389  49.858  1.00  0.00     0.172 A 
HETATM    4  C9  UNL     1      23.659   2.680  49.906  1.00  0.00     0.124 A 
HETATM    5  C10 UNL     1      23.306   1.865  50.959  1.00  0.00     0.199 A 
HETATM    6  N4  UNL     1      24.181   1.790  51.973  1.00  0.00    -0.041 NA
HETATM    7  N5  UNL     1      22.097   1.128  51.025  1.00  0.00    -0.235 N 
HETATM    8  N6  UNL     1      21.283   1.305  49.906  1.00  0.00    -0.285 N 
HETATM    9  C17 UNL     1      21.625   2.140  48.808  1.00  0.00     0.224 A 
HETATM   10  N7  UNL     1      22.760   2.798  48.806  1.00  0.00    -0.237 NA
HETATM   11  H19 UNL     1      20.362   0.868  49.737  1.00  0.00     0.188 HD
ENDROOT
BRANCH   1  12
HETATM   12  N2  UNL     1      26.305   2.420  53.053  1.00  0.00    -0.216 N 
HETATM   13  H13 UNL     1      26.646   3.315  53.463  1.00  0.00     0.178 HD
BRANCH  12  14
HETATM   14  C6  UNL     1      26.861   1.235  53.634  1.00  0.00     0.132 C 
HETATM   15  C1  UNL     1      28.220   1.480  54.290  1.00  0.00     0.240 C 
HETATM   16  C2  UNL     1      28.683   0.143  54.839  1.00  0.00     0.037 C 
HETATM   17  C3  UNL     1      28.972  -0.814  53.719  1.00  0.00     0.002 C 
HETATM   18  C4  UNL     1      27.671  -1.037  52.963  1.00  0.00     0.002 C 
HETATM   19  C5  UNL     1      27.155   0.275  52.487  1.00  0.00     0.028 C 
BRANCH  15  20
HETATM   20  N1  UNL     1      29.167   1.886  53.276  1.00  0.00     0.085 N 
HETATM   21  H1  UNL     1      28.607   2.332  52.507  1.00  0.00     0.313 HD
HETATM   22  H2  UNL     1      29.836   2.629  53.612  1.00  0.00     0.313 HD
ENDBRANCH  15  20
ENDBRANCH  12  14
ENDBRANCH   1  12
BRANCH   7  23
HETATM   23  C11 UNL     1      21.679   0.275  52.064  1.00  0.00     0.060 A 
HETATM   24  C12 UNL     1      22.435  -0.378  52.999  1.00  0.00     0.032 A 
HETATM   25  C13 UNL     1      21.969  -1.188  54.003  1.00  0.00     0.004 A 
HETATM   26  C14 UNL     1      20.620  -1.392  54.119  1.00  0.00     0.024 A 
HETATM   27  C15 UNL     1      19.790  -0.758  53.199  1.00  0.00     0.036 A 
HETATM   28 CL1  UNL     1      18.081  -1.072  53.421  1.00  0.00    -0.084 Cl
HETATM   29  C16 UNL     1      20.321   0.038  52.221  1.00  0.00     0.055 A 
ENDBRANCH   7  23
TORSDOF 4
ENDMDL
MODEL 9
REMARK VINA RESULT:      -8.2      2.427      6.172
REMARK  4 active torsions:
REMARK  status: ('A' for Active; 'I' for Inactive)
REMARK    1  A    between atoms: N1_1  and  C1_2 
REMARK    2  A    between atoms: C6_7  and  N2_8 
REMARK    3  A    between atoms: N2_8  and  C7_9 
REMARK    4  A    between atoms: N5_15  and  C11_16 
ROOT
HETATM    1  C7  UNL     1      24.215   0.856  52.392  1.00  0.00     0.724 A 
HETATM    2  N3  UNL     1      23.000   0.281  52.575  1.00  0.00    -0.073 NA
HETATM    3  C8  UNL     1      21.916   0.612  51.869  1.00  0.00     0.172 A 
HETATM    4  C9  UNL     1      22.096   1.585  50.925  1.00  0.00     0.124 A 
HETATM    5  C10 UNL     1      23.304   2.207  50.693  1.00  0.00     0.199 A 
HETATM    6  N4  UNL     1      24.334   1.806  51.453  1.00  0.00    -0.041 NA
HETATM    7  N5  UNL     1      23.508   3.213  49.717  1.00  0.00    -0.235 N 
HETATM    8  N6  UNL     1      22.353   3.525  48.999  1.00  0.00    -0.285 N 
HETATM    9  C17 UNL     1      21.096   2.900  49.220  1.00  0.00     0.224 A 
HETATM   10  N7  UNL     1      20.972   1.973  50.140  1.00  0.00    -0.237 NA
HETATM   11  H19 UNL     1      22.265   4.226  48.246  1.00  0.00     0.188 HD
ENDROOT
BRANCH   1  12
HETATM   12  N2  UNL     1      25.298   0.385  53.223  1.00  0.00    -0.216 N 
HETATM   13  H13 UNL     1      25.081  -0.203  54.055  1.00  0.00     0.178 HD
BRANCH  12  14
HETATM   14  C6  UNL     1      26.691   0.652  53.014  1.00  0.00     0.132 C 
HETATM   15  C1  UNL     1      27.596  -0.367  53.706  1.00  0.00     0.240 C 
HETATM   16  C2  UNL     1      29.024   0.054  53.411  1.00  0.00     0.037 C 
HETATM   17  C3  UNL     1      29.339   1.357  54.084  1.00  0.00     0.002 C 
HETATM   18  C4  UNL     1      28.405   2.408  53.503  1.00  0.00     0.002 C 
HETATM   19  C5  UNL     1      26.997   1.974  53.708  1.00  0.00     0.028 C 
BRANCH  15  20
HETATM   20  N1  UNL     1      27.402  -0.276  55.136  1.00  0.00     0.085 N 
HETATM   21  H1  UNL     1      26.389  -0.487  55.313  1.00  0.00     0.313 HD
HETATM   22  H2  UNL     1      27.945  -1.005  55.671  1.00  0.00     0.313 HD
ENDBRANCH  15  20
ENDBRANCH  12  14
ENDBRANCH   1  12
BRANCH   7  23
HETATM   23  C11 UNL     1      24.710   3.890  49.434  1.00  0.00     0.060 A 
HETATM   24  C12 UNL     1      25.995   3.422  49.488  1.00  0.00     0.032 A 
HETATM   25  C13 UNL     1      27.132   4.126  49.184  1.00  0.00     0.004 A 
HETATM   26  C14 UNL     1      27.018   5.431  48.783  1.00  0.00     0.024 A 
HETATM   27  C15 UNL     1      25.738   5.973  48.706  1.00  0.00     0.036 A 
HETATM   28 CL1  UNL     1      25.682   7.643  48.185  1.00  0.00    -0.084 Cl
HETATM   29  C16 UNL     1      24.644   5.214  49.024  1.00  0.00     0.055 A 
ENDBRANCH   7  23
TORSDOF 4
ENDMDL
