MODEL 1
REMARK VINA RESULT:      -8.2      0.000      0.000
REMARK  4 active torsions:
REMARK  status: ('A' for Active; 'I' for Inactive)
REMARK    1  A    between atoms: O1_2  and  C2_3 
REMARK    2  A    between atoms: C2_3  and  C3_4 
REMARK    3  A    between atoms: C13_17  and  N1_18 
REMARK    4  A    between atoms: N1_18  and  C14_19 
ROOT
HETATM    1  C3  UNL     1      23.827   4.804  49.479  1.00  0.00     0.175 C 
HETATM    2  C4  UNL     1      24.084   4.651  50.941  1.00  0.00     0.028 C 
HETATM    3  C5  UNL     1      23.200   4.352  51.890  1.00  0.00     0.001 C 
HETATM    4  C6  UNL     1      21.716   4.098  51.725  1.00  0.00     0.217 C 
HETATM    5  O2  UNL     1      21.350   4.177  50.433  1.00  0.00    -0.384 OA
HETATM    6  C7  UNL     1      20.150   3.739  49.989  1.00  0.00     0.194 C 
HETATM    7  C8  UNL     1      19.963   2.230  50.225  1.00  0.00     0.201 C 
HETATM    8  O3  UNL     1      21.073   1.599  49.483  1.00  0.00    -0.351 OA
HETATM    9  C9  UNL     1      22.249   1.733  50.216  1.00  0.00     0.069 C 
HETATM   10  C10 UNL     1      23.206   2.516  49.822  1.00  0.00     0.167 C 
HETATM   11  O4  UNL     1      23.785   3.435  48.938  1.00  0.00    -0.349 OA
HETATM   12  C11 UNL     1      22.451   1.013  51.512  1.00  0.00     0.036 C 
HETATM   13  C12 UNL     1      23.293   0.903  52.531  1.00  0.00     0.059 C 
HETATM   14  C13 UNL     1      24.580   1.437  53.052  1.00  0.00     0.108 C 
HETATM   15  C21 UNL     1      24.334   2.898  53.390  1.00  0.00     0.255 C 
HETATM   16  N2  UNL     1      23.872   4.135  53.152  1.00  0.00    -0.304 NA
ENDROOT
BRANCH  14  17
HETATM   17  N1  UNL     1      25.683   1.167  52.243  1.00  0.00    -0.383 N 
HETATM   18  H18 UNL     1      25.600   1.298  51.206  1.00  0.00     0.160 HD
BRANCH  17  19
HETATM   19  C14 UNL     1      26.931   0.722  52.724  1.00  0.00     0.028 A 
HETATM   20  C15 UNL     1      27.874   1.605  53.248  1.00  0.00     0.029 A 
HETATM   21  C16 UNL     1      29.112   1.204  53.730  1.00  0.00     0.003 A 
HETATM   22  C17 UNL     1      29.452  -0.132  53.700  1.00  0.00     0.007 A 
HETATM   23  C18 UNL     1      28.532  -1.047  53.182  1.00  0.00    -0.060 A 
HETATM   24  C19 UNL     1      28.957  -2.472  53.177  1.00  0.00     0.048 C 
HETATM   25  C20 UNL     1      27.326  -0.600  52.719  1.00  0.00     0.036 A 
ENDBRANCH  17  19
ENDBRANCH  14  17
BRANCH   1  26
HETATM   26  C2  UNL     1      24.941   5.486  48.757  1.00  0.00     0.203 C 
BRANCH  26  27
HETATM   27  O1  UNL     1      26.101   5.499  49.528  1.00  0.00    -0.393 OA
HETATM   28  C1  UNL     1      27.072   4.788  48.826  1.00  0.00     0.201 C 
ENDBRANCH  26  27
ENDBRANCH   1  26
TORSDOF 4
ENDMDL
MODEL 2
REMARK VINA RESULT:      -8.0      1.496      1.699
REMARK  4 active torsions:
REMARK  status: ('A' for Active; 'I' for Inactive)
REMARK    1  A    between atoms: O1_2  and  C2_3 
REMARK    2  A    between atoms: C2_3  and  C3_4 
REMARK    3  A    between atoms: C13_17  and  N1_18 
REMARK    4  A    between atoms: N1_18  and  C14_19 
ROOT
HETATM    1  C3  UNL     1      24.525   6.244  49.479  1.00  0.00     0.175 C 
HETATM    2  C4  UNL     1      24.293   5.904  50.913  1.00  0.00     0.028 C 
HETATM    3  C5  UNL     1      23.206   5.354  51.447  1.00  0.00     0.001 C 
HETATM    4  C6  UNL     1      21.934   4.939  50.736  1.00  0.00     0.217 C 
HETATM    5  O2  UNL     1      22.020   5.166  49.413  1.00  0.00    -0.384 OA
HETATM    6  C7  UNL     1      21.138   4.651  48.527  1.00  0.00     0.194 C 
HETATM    7  C8  UNL     1      21.147   3.112  48.533  1.00  0.00     0.201 C 
HETATM    8  O3  UNL     1      22.535   2.749  48.181  1.00  0.00    -0.351 OA
HETATM    9  C9  UNL     1      23.351   2.920  49.297  1.00  0.00     0.069 C 
HETATM   10  C10 UNL     1      24.232   3.870  49.351  1.00  0.00     0.167 C 
HETATM   11  O4  UNL     1      24.907   4.980  48.828  1.00  0.00    -0.349 OA
HETATM   12  C11 UNL     1      23.223   2.043  50.502  1.00  0.00     0.036 C 
HETATM   13  C12 UNL     1      23.674   1.888  51.740  1.00  0.00     0.059 C 
HETATM   14  C13 UNL     1      24.595   2.497  52.737  1.00  0.00     0.108 C 
HETATM   15  C21 UNL     1      23.998   3.845  53.105  1.00  0.00     0.255 C 
HETATM   16  N2  UNL     1      23.436   5.034  52.839  1.00  0.00    -0.304 NA
ENDROOT
BRANCH  14  17
HETATM   17  N1  UNL     1      25.935   2.498  52.356  1.00  0.00    -0.383 N 
HETATM   18  H18 UNL     1      26.297   3.282  51.761  1.00  0.00     0.160 HD
BRANCH  17  19
HETATM   19  C14 UNL     1      26.865   1.502  52.718  1.00  0.00     0.028 A 
HETATM   20  C15 UNL     1      28.086   1.818  53.313  1.00  0.00     0.029 A 
HETATM   21  C16 UNL     1      29.025   0.867  53.682  1.00  0.00     0.003 A 
HETATM   22  C17 UNL     1      28.762  -0.469  53.460  1.00  0.00     0.007 A 
HETATM   23  C18 UNL     1      27.549  -0.825  52.866  1.00  0.00    -0.060 A 
HETATM   24  C19 UNL     1      27.325  -2.279  52.653  1.00  0.00     0.048 C 
HETATM   25  C20 UNL     1      26.658   0.152  52.520  1.00  0.00     0.036 A 
ENDBRANCH  17  19
ENDBRANCH  14  17
BRANCH   1  26
HETATM   26  C2  UNL     1      25.680   7.166  49.275  1.00  0.00     0.203 C 
BRANCH  26  27
HETATM   27  O1  UNL     1      26.070   7.751  50.477  1.00  0.00    -0.393 OA
HETATM   28  C1  UNL     1      26.903   8.823  50.164  1.00  0.00     0.201 C 
ENDBRANCH  26  27
ENDBRANCH   1  26
TORSDOF 4
ENDMDL
MODEL 3
REMARK VINA RESULT:      -7.8      2.271      4.776
REMARK  4 active torsions:
REMARK  status: ('A' for Active; 'I' for Inactive)
REMARK    1  A    between atoms: O1_2  and  C2_3 
REMARK    2  A    between atoms: C2_3  and  C3_4 
REMARK    3  A    between atoms: C13_17  and  N1_18 
REMARK    4  A    between atoms: N1_18  and  C14_19 
ROOT
HETATM    1  C3  UNL     1      21.021   4.249  51.322  1.00  0.00     0.175 C 
HETATM    2  C4  UNL     1      21.967   3.511  50.434  1.00  0.00     0.028 C 
HETATM    3  C5  UNL     1      22.505   3.939  49.295  1.00  0.00     0.001 C 
HETATM    4  C6  UNL     1      22.290   5.275  48.614  1.00  0.00     0.217 C 
HETATM    5  O2  UNL     1      21.469   6.061  49.334  1.00  0.00    -0.384 OA
HETATM    6  C7  UNL     1      21.324   7.382  49.086  1.00  0.00     0.194 C 
HETATM    7  C8  UNL     1      22.646   8.150  49.261  1.00  0.00     0.201 C 
HETATM    8  O3  UNL     1      23.032   7.907  50.666  1.00  0.00    -0.351 OA
HETATM    9  C9  UNL     1      23.572   6.628  50.778  1.00  0.00     0.069 C 
HETATM   10  C10 UNL     1      22.941   5.680  51.399  1.00  0.00     0.167 C 
HETATM   11  O4  UNL     1      21.856   5.163  52.119  1.00  0.00    -0.349 OA
HETATM   12  C11 UNL     1      24.884   6.275  50.154  1.00  0.00     0.036 C 
HETATM   13  C12 UNL     1      25.698   5.251  49.929  1.00  0.00     0.059 C 
HETATM   14  C13 UNL     1      25.823   3.784  50.142  1.00  0.00     0.108 C 
HETATM   15  C21 UNL     1      24.742   3.133  49.297  1.00  0.00     0.255 C 
HETATM   16  N2  UNL     1      23.494   2.996  48.821  1.00  0.00    -0.304 NA
ENDROOT
BRANCH  14  17
HETATM   17  N1  UNL     1      25.875   3.401  51.482  1.00  0.00    -0.383 N 
HETATM   18  H18 UNL     1      26.029   4.132  52.217  1.00  0.00     0.160 HD
BRANCH  17  19
HETATM   19  C14 UNL     1      25.735   2.073  51.934  1.00  0.00     0.028 A 
HETATM   20  C15 UNL     1      26.759   1.137  51.798  1.00  0.00     0.029 A 
HETATM   21  C16 UNL     1      26.658  -0.176  52.230  1.00  0.00     0.003 A 
HETATM   22  C17 UNL     1      25.492  -0.605  52.831  1.00  0.00     0.007 A 
HETATM   23  C18 UNL     1      24.443   0.304  52.986  1.00  0.00    -0.060 A 
HETATM   24  C19 UNL     1      23.215  -0.218  53.640  1.00  0.00     0.048 C 
HETATM   25  C20 UNL     1      24.595   1.588  52.541  1.00  0.00     0.036 A 
ENDBRANCH  17  19
ENDBRANCH  14  17
BRANCH   1  26
HETATM   26  C2  UNL     1      20.338   3.365  52.312  1.00  0.00     0.203 C 
BRANCH  26  27
HETATM   27  O1  UNL     1      18.954   3.486  52.217  1.00  0.00    -0.393 OA
HETATM   28  C1  UNL     1      18.493   2.398  51.479  1.00  0.00     0.201 C 
ENDBRANCH  26  27
ENDBRANCH   1  26
TORSDOF 4
ENDMDL
MODEL 4
REMARK VINA RESULT:      -7.7      1.689      2.287
REMARK  4 active torsions:
REMARK  status: ('A' for Active; 'I' for Inactive)
REMARK    1  A    between atoms: O1_2  and  C2_3 
REMARK    2  A    between atoms: C2_3  and  C3_4 
REMARK    3  A    between atoms: C13_17  and  N1_18 
REMARK    4  A    between atoms: N1_18  and  C14_19 
ROOT
HETATM    1  C3  UNL     1      22.214   3.217  49.290  1.00  0.00     0.175 C 
HETATM    2  C4  UNL     1      22.945   3.650  50.517  1.00  0.00     0.028 C 
HETATM    3  C5  UNL     1      22.472   3.711  51.759  1.00  0.00     0.001 C 
HETATM    4  C6  UNL     1      21.078   3.360  52.237  1.00  0.00     0.217 C 
HETATM    5  O2  UNL     1      20.312   2.921  51.222  1.00  0.00    -0.384 OA
HETATM    6  C7  UNL     1      19.125   2.304  51.420  1.00  0.00     0.194 C 
HETATM    7  C8  UNL     1      19.281   0.998  52.219  1.00  0.00     0.201 C 
HETATM    8  O3  UNL     1      20.187   0.168  51.399  1.00  0.00    -0.351 OA
HETATM    9  C9  UNL     1      21.495   0.616  51.566  1.00  0.00     0.069 C 
HETATM   10  C10 UNL     1      22.130   1.219  50.609  1.00  0.00     0.167 C 
HETATM   11  O4  UNL     1      22.234   1.745  49.314  1.00  0.00    -0.349 OA
HETATM   12  C11 UNL     1      22.217   0.461  52.867  1.00  0.00     0.036 C 
HETATM   13  C12 UNL     1      23.345   0.783  53.486  1.00  0.00     0.059 C 
HETATM   14  C13 UNL     1      24.621   1.521  53.290  1.00  0.00     0.108 C 
HETATM   15  C21 UNL     1      24.253   2.989  53.160  1.00  0.00     0.255 C 
HETATM   16  N2  UNL     1      23.537   4.022  52.688  1.00  0.00    -0.304 NA
ENDROOT
BRANCH  14  17
HETATM   17  N1  UNL     1      25.439   0.999  52.288  1.00  0.00    -0.383 N 
HETATM   18  H18 UNL     1      25.325   1.344  51.304  1.00  0.00     0.160 HD
BRANCH  17  19
HETATM   19  C14 UNL     1      26.430   0.020  52.501  1.00  0.00     0.028 A 
HETATM   20  C15 UNL     1      26.210  -1.325  52.206  1.00  0.00     0.029 A 
HETATM   21  C16 UNL     1      27.159  -2.317  52.402  1.00  0.00     0.003 A 
HETATM   22  C17 UNL     1      28.395  -1.981  52.915  1.00  0.00     0.007 A 
HETATM   23  C18 UNL     1      28.653  -0.643  53.223  1.00  0.00    -0.060 A 
HETATM   24  C19 UNL     1      30.003  -0.345  53.771  1.00  0.00     0.048 C 
HETATM   25  C20 UNL     1      27.682   0.295  53.011  1.00  0.00     0.036 A 
ENDBRANCH  17  19
ENDBRANCH  14  17
BRANCH   1  26
HETATM   26  C2  UNL     1      22.909   3.606  48.028  1.00  0.00     0.203 C 
BRANCH  26  27
HETATM   27  O1  UNL     1      22.895   4.988  47.856  1.00  0.00    -0.393 OA
HETATM   28  C1  UNL     1      22.102   5.258  46.743  1.00  0.00     0.201 C 
ENDBRANCH  26  27
ENDBRANCH   1  26
TORSDOF 4
ENDMDL
MODEL 5
REMARK VINA RESULT:      -7.7      3.060      5.141
REMARK  4 active torsions:
REMARK  status: ('A' for Active; 'I' for Inactive)
REMARK    1  A    between atoms: O1_2  and  C2_3 
REMARK    2  A    between atoms: C2_3  and  C3_4 
REMARK    3  A    between atoms: C13_17  and  N1_18 
REMARK    4  A    between atoms: N1_18  and  C14_19 
ROOT
HETATM    1  C3  UNL     1      20.059   0.179  52.450  1.00  0.00     0.175 C 
HETATM    2  C4  UNL     1      20.857   0.413  51.211  1.00  0.00     0.028 C 
HETATM    3  C5  UNL     1      20.436   0.950  50.069  1.00  0.00     0.001 C 
HETATM    4  C6  UNL     1      19.045   1.452  49.739  1.00  0.00     0.217 C 
HETATM    5  O2  UNL     1      18.220   1.325  50.794  1.00  0.00    -0.384 OA
HETATM    6  C7  UNL     1      17.012   1.930  50.850  1.00  0.00     0.194 C 
HETATM    7  C8  UNL     1      17.132   3.463  50.790  1.00  0.00     0.201 C 
HETATM    8  O3  UNL     1      17.963   3.815  51.960  1.00  0.00    -0.351 OA
HETATM    9  C9  UNL     1      19.298   3.538  51.674  1.00  0.00     0.069 C 
HETATM   10  C10 UNL     1      19.925   2.563  52.256  1.00  0.00     0.167 C 
HETATM   11  O4  UNL     1      20.006   1.479  53.140  1.00  0.00    -0.349 OA
HETATM   12  C11 UNL     1      20.059   4.322  50.653  1.00  0.00     0.036 C 
HETATM   13  C12 UNL     1      21.226   4.369  50.022  1.00  0.00     0.059 C 
HETATM   14  C13 UNL     1      22.529   3.661  49.911  1.00  0.00     0.108 C 
HETATM   15  C21 UNL     1      22.230   2.304  49.295  1.00  0.00     0.255 C 
HETATM   16  N2  UNL     1      21.550   1.154  49.169  1.00  0.00    -0.304 NA
ENDROOT
BRANCH  14  17
HETATM   17  N1  UNL     1      23.280   3.654  51.086  1.00  0.00    -0.383 N 
HETATM   18  H18 UNL     1      23.033   4.323  51.854  1.00  0.00     0.160 HD
BRANCH  17  19
HETATM   19  C14 UNL     1      24.373   2.796  51.325  1.00  0.00     0.028 A 
HETATM   20  C15 UNL     1      25.634   3.044  50.785  1.00  0.00     0.029 A 
HETATM   21  C16 UNL     1      26.732   2.224  50.997  1.00  0.00     0.003 A 
HETATM   22  C17 UNL     1      26.596   1.097  51.781  1.00  0.00     0.007 A 
HETATM   23  C18 UNL     1      25.347   0.815  52.341  1.00  0.00    -0.060 A 
HETATM   24  C19 UNL     1      25.265  -0.412  53.175  1.00  0.00     0.048 C 
HETATM   25  C20 UNL     1      24.297   1.656  52.099  1.00  0.00     0.036 A 
ENDBRANCH  17  19
ENDBRANCH  14  17
BRANCH   1  26
HETATM   26  C2  UNL     1      20.724  -0.754  53.406  1.00  0.00     0.203 C 
BRANCH  26  27
HETATM   27  O1  UNL     1      21.644  -0.079  54.205  1.00  0.00    -0.393 OA
HETATM   28  C1  UNL     1      22.244  -1.025  55.033  1.00  0.00     0.201 C 
ENDBRANCH  26  27
ENDBRANCH   1  26
TORSDOF 4
ENDMDL
MODEL 6
REMARK VINA RESULT:      -7.6      2.567      4.465
REMARK  4 active torsions:
REMARK  status: ('A' for Active; 'I' for Inactive)
REMARK    1  A    between atoms: O1_2  and  C2_3 
REMARK    2  A    between atoms: C2_3  and  C3_4 
REMARK    3  A    between atoms: C13_17  and  N1_18 
REMARK    4  A    between atoms: N1_18  and  C14_19 
ROOT
HETATM    1  C3  UNL     1      23.991   3.471  51.603  1.00  0.00     0.175 C 
HETATM    2  C4  UNL     1      22.655   3.346  52.256  1.00  0.00     0.028 C 
HETATM    3  C5  UNL     1      21.544   4.013  51.956  1.00  0.00     0.001 C 
HETATM    4  C6  UNL     1      21.358   5.067  50.883  1.00  0.00     0.217 C 
HETATM    5  O2  UNL     1      22.494   5.259  50.189  1.00  0.00    -0.384 OA
HETATM    6  C7  UNL     1      22.527   5.944  49.023  1.00  0.00     0.194 C 
HETATM    7  C8  UNL     1      21.664   5.277  47.938  1.00  0.00     0.201 C 
HETATM    8  O3  UNL     1      22.241   3.926  47.783  1.00  0.00    -0.351 OA
HETATM    9  C9  UNL     1      21.820   3.124  48.841  1.00  0.00     0.069 C 
HETATM   10  C10 UNL     1      22.644   2.735  49.764  1.00  0.00     0.167 C 
HETATM   11  O4  UNL     1      23.906   2.673  50.368  1.00  0.00    -0.349 OA
HETATM   12  C11 UNL     1      20.391   2.707  48.986  1.00  0.00     0.036 C 
HETATM   13  C12 UNL     1      19.560   2.075  49.806  1.00  0.00     0.059 C 
HETATM   14  C13 UNL     1      19.512   1.382  51.121  1.00  0.00     0.108 C 
HETATM   15  C21 UNL     1      19.772   2.443  52.176  1.00  0.00     0.255 C 
HETATM   16  N2  UNL     1      20.425   3.489  52.707  1.00  0.00    -0.304 NA
ENDROOT
BRANCH  14  17
HETATM   17  N1  UNL     1      20.297   0.232  51.194  1.00  0.00    -0.383 N 
HETATM   18  H18 UNL     1      20.339  -0.411  50.367  1.00  0.00     0.160 HD
BRANCH  17  19
HETATM   19  C14 UNL     1      21.056  -0.141  52.321  1.00  0.00     0.028 A 
HETATM   20  C15 UNL     1      20.454  -0.536  53.515  1.00  0.00     0.029 A 
HETATM   21  C16 UNL     1      21.168  -0.910  54.644  1.00  0.00     0.003 A 
HETATM   22  C17 UNL     1      22.547  -0.899  54.610  1.00  0.00     0.007 A 
HETATM   23  C18 UNL     1      23.186  -0.509  53.431  1.00  0.00    -0.060 A 
HETATM   24  C19 UNL     1      24.672  -0.518  53.458  1.00  0.00     0.048 C 
HETATM   25  C20 UNL     1      22.436  -0.149  52.347  1.00  0.00     0.036 A 
ENDBRANCH  17  19
ENDBRANCH  14  17
BRANCH   1  26
HETATM   26  C2  UNL     1      25.093   2.858  52.401  1.00  0.00     0.203 C 
BRANCH  26  27
HETATM   27  O1  UNL     1      26.147   2.467  51.578  1.00  0.00    -0.393 OA
HETATM   28  C1  UNL     1      27.178   2.031  52.408  1.00  0.00     0.201 C 
ENDBRANCH  26  27
ENDBRANCH   1  26
TORSDOF 4
ENDMDL
MODEL 7
REMARK VINA RESULT:      -7.6      3.720      5.940
REMARK  4 active torsions:
REMARK  status: ('A' for Active; 'I' for Inactive)
REMARK    1  A    between atoms: O1_2  and  C2_3 
REMARK    2  A    between atoms: C2_3  and  C3_4 
REMARK    3  A    between atoms: C13_17  and  N1_18 
REMARK    4  A    between atoms: N1_18  and  C14_19 
ROOT
HETATM    1  C3  UNL     1      21.495   0.686  52.153  1.00  0.00     0.175 C 
HETATM    2  C4  UNL     1      21.852   0.958  50.730  1.00  0.00     0.028 C 
HETATM    3  C5  UNL     1      21.022   1.234  49.727  1.00  0.00     0.001 C 
HETATM    4  C6  UNL     1      19.512   1.336  49.778  1.00  0.00     0.217 C 
HETATM    5  O2  UNL     1      19.053   1.138  51.027  1.00  0.00    -0.384 OA
HETATM    6  C7  UNL     1      17.783   1.431  51.390  1.00  0.00     0.194 C 
HETATM    7  C8  UNL     1      17.467   2.928  51.225  1.00  0.00     0.201 C 
HETATM    8  O3  UNL     1      18.445   3.612  52.095  1.00  0.00    -0.351 OA
HETATM    9  C9  UNL     1      19.684   3.637  51.460  1.00  0.00     0.069 C 
HETATM   10  C10 UNL     1      20.679   2.924  51.890  1.00  0.00     0.167 C 
HETATM   11  O4  UNL     1      21.273   2.007  52.767  1.00  0.00    -0.349 OA
HETATM   12  C11 UNL     1      19.917   4.456  50.230  1.00  0.00     0.036 C 
HETATM   13  C12 UNL     1      20.824   4.711  49.295  1.00  0.00     0.059 C 
HETATM   14  C13 UNL     1      22.195   4.336  48.858  1.00  0.00     0.108 C 
HETATM   15  C21 UNL     1      22.123   2.884  48.417  1.00  0.00     0.255 C 
HETATM   16  N2  UNL     1      21.768   1.595  48.542  1.00  0.00    -0.304 NA
ENDROOT
BRANCH  14  17
HETATM   17  N1  UNL     1      23.197   4.655  49.773  1.00  0.00    -0.383 N 
HETATM   18  H18 UNL     1      22.930   4.920  50.752  1.00  0.00     0.160 HD
BRANCH  17  19
HETATM   19  C14 UNL     1      24.575   4.649  49.477  1.00  0.00     0.028 A 
HETATM   20  C15 UNL     1      25.370   3.524  49.699  1.00  0.00     0.029 A 
HETATM   21  C16 UNL     1      26.727   3.481  49.421  1.00  0.00     0.003 A 
HETATM   22  C17 UNL     1      27.349   4.595  48.896  1.00  0.00     0.007 A 
HETATM   23  C18 UNL     1      26.586   5.741  48.659  1.00  0.00    -0.060 A 
HETATM   24  C19 UNL     1      27.312   6.907  48.093  1.00  0.00     0.048 C 
HETATM   25  C20 UNL     1      25.250   5.731  48.952  1.00  0.00     0.036 A 
ENDBRANCH  17  19
ENDBRANCH  14  17
BRANCH   1  26
HETATM   26  C2  UNL     1      22.609   0.067  52.929  1.00  0.00     0.203 C 
BRANCH  26  27
HETATM   27  O1  UNL     1      22.326  -1.263  53.233  1.00  0.00    -0.393 OA
HETATM   28  C1  UNL     1      21.932  -1.306  54.569  1.00  0.00     0.201 C 
ENDBRANCH  26  27
ENDBRANCH   1  26
TORSDOF 4
ENDMDL
MODEL 8
REMARK VINA RESULT:      -7.6      2.490      5.472
REMARK  4 active torsions:
REMARK  status: ('A' for Active; 'I' for Inactive)
REMARK    1  A    between atoms: O1_2  and  C2_3 
REMARK    2  A    between atoms: C2_3  and  C3_4 
REMARK    3  A    between atoms: C13_17  and  N1_18 
REMARK    4  A    between atoms: N1_18  and  C14_19 
ROOT
HETATM    1  C3  UNL     1      23.063   1.336  51.786  1.00  0.00     0.175 C 
HETATM    2  C4  UNL     1      23.140   1.749  50.354  1.00  0.00     0.028 C 
HETATM    3  C5  UNL     1      22.129   1.910  49.504  1.00  0.00     0.001 C 
HETATM    4  C6  UNL     1      20.652   1.709  49.775  1.00  0.00     0.217 C 
HETATM    5  O2  UNL     1      20.436   1.358  51.055  1.00  0.00    -0.384 OA
HETATM    6  C7  UNL     1      19.205   1.375  51.616  1.00  0.00     0.194 C 
HETATM    7  C8  UNL     1      18.593   2.787  51.622  1.00  0.00     0.201 C 
HETATM    8  O3  UNL     1      19.549   3.602  52.400  1.00  0.00    -0.351 OA
HETATM    9  C9  UNL     1      20.649   3.905  51.601  1.00  0.00     0.069 C 
HETATM   10  C10 UNL     1      21.813   3.379  51.826  1.00  0.00     0.167 C 
HETATM   11  O4  UNL     1      22.696   2.551  52.532  1.00  0.00    -0.349 OA
HETATM   12  C11 UNL     1      20.533   4.819  50.423  1.00  0.00     0.036 C 
HETATM   13  C12 UNL     1      21.221   5.298  49.395  1.00  0.00     0.059 C 
HETATM   14  C13 UNL     1      22.554   5.225  48.739  1.00  0.00     0.108 C 
HETATM   15  C21 UNL     1      22.687   3.813  48.193  1.00  0.00     0.255 C 
HETATM   16  N2  UNL     1      22.603   2.475  48.260  1.00  0.00    -0.304 NA
ENDROOT
BRANCH  14  17
HETATM   17  N1  UNL     1      23.607   5.684  49.528  1.00  0.00    -0.383 N 
HETATM   18  H18 UNL     1      23.394   6.213  50.408  1.00  0.00     0.160 HD
BRANCH  17  19
HETATM   19  C14 UNL     1      24.970   5.489  49.226  1.00  0.00     0.028 A 
HETATM   20  C15 UNL     1      25.624   4.293  49.518  1.00  0.00     0.029 A 
HETATM   21  C16 UNL     1      26.962   4.064  49.236  1.00  0.00     0.003 A 
HETATM   22  C17 UNL     1      27.709   5.056  48.634  1.00  0.00     0.007 A 
HETATM   23  C18 UNL     1      27.088   6.269  48.325  1.00  0.00    -0.060 A 
HETATM   24  C19 UNL     1      27.944   7.297  47.678  1.00  0.00     0.048 C 
HETATM   25  C20 UNL     1      25.766   6.443  48.625  1.00  0.00     0.036 A 
ENDBRANCH  17  19
ENDBRANCH  14  17
BRANCH   1  26
HETATM   26  C2  UNL     1      24.379   0.906  52.343  1.00  0.00     0.203 C 
BRANCH  26  27
HETATM   27  O1  UNL     1      25.432   1.471  51.627  1.00  0.00    -0.393 OA
HETATM   28  C1  UNL     1      26.587   1.300  52.387  1.00  0.00     0.201 C 
ENDBRANCH  26  27
ENDBRANCH   1  26
TORSDOF 4
ENDMDL
MODEL 9
REMARK VINA RESULT:      -7.4      2.942      5.433
REMARK  4 active torsions:
REMARK  status: ('A' for Active; 'I' for Inactive)
REMARK    1  A    between atoms: O1_2  and  C2_3 
REMARK    2  A    between atoms: C2_3  and  C3_4 
REMARK    3  A    between atoms: C13_17  and  N1_18 
REMARK    4  A    between atoms: N1_18  and  C14_19 
ROOT
HETATM    1  C3  UNL     1      19.667   0.161  52.483  1.00  0.00     0.175 C 
HETATM    2  C4  UNL     1      20.671   0.281  51.385  1.00  0.00     0.028 C 
HETATM    3  C5  UNL     1      20.515   0.890  50.212  1.00  0.00     0.001 C 
HETATM    4  C6  UNL     1      19.284   1.608  49.698  1.00  0.00     0.217 C 
HETATM    5  O2  UNL     1      18.299   1.599  50.614  1.00  0.00    -0.384 OA
HETATM    6  C7  UNL     1      17.203   2.386  50.511  1.00  0.00     0.194 C 
HETATM    7  C8  UNL     1      17.564   3.882  50.524  1.00  0.00     0.201 C 
HETATM    8  O3  UNL     1      18.253   4.086  51.815  1.00  0.00    -0.351 OA
HETATM    9  C9  UNL     1      19.556   3.606  51.721  1.00  0.00     0.069 C 
HETATM   10  C10 UNL     1      19.931   2.538  52.355  1.00  0.00     0.167 C 
HETATM   11  O4  UNL     1      19.710   1.445  53.202  1.00  0.00    -0.349 OA
HETATM   12  C11 UNL     1      20.576   4.273  50.852  1.00  0.00     0.036 C 
HETATM   13  C12 UNL     1      21.817   4.143  50.403  1.00  0.00     0.059 C 
HETATM   14  C13 UNL     1      22.998   3.241  50.462  1.00  0.00     0.108 C 
HETATM   15  C21 UNL     1      22.592   1.955  49.761  1.00  0.00     0.255 C 
HETATM   16  N2  UNL     1      21.770   0.928  49.495  1.00  0.00    -0.304 NA
ENDROOT
BRANCH  14  17
HETATM   17  N1  UNL     1      23.552   3.103  51.734  1.00  0.00    -0.383 N 
HETATM   18  H18 UNL     1      23.644   3.949  52.346  1.00  0.00     0.160 HD
BRANCH  17  19
HETATM   19  C14 UNL     1      24.010   1.883  52.273  1.00  0.00     0.028 A 
HETATM   20  C15 UNL     1      23.246   1.147  53.178  1.00  0.00     0.029 A 
HETATM   21  C16 UNL     1      23.663  -0.056  53.729  1.00  0.00     0.003 A 
HETATM   22  C17 UNL     1      24.894  -0.572  53.380  1.00  0.00     0.007 A 
HETATM   23  C18 UNL     1      25.687   0.137  52.475  1.00  0.00    -0.060 A 
HETATM   24  C19 UNL     1      27.001  -0.472  52.138  1.00  0.00     0.048 C 
HETATM   25  C20 UNL     1      25.229   1.318  51.962  1.00  0.00     0.036 A 
ENDBRANCH  17  19
ENDBRANCH  14  17
BRANCH   1  26
HETATM   26  C2  UNL     1      20.028  -0.876  53.494  1.00  0.00     0.203 C 
BRANCH  26  27
HETATM   27  O1  UNL     1      18.979  -1.773  53.685  1.00  0.00    -0.393 OA
HETATM   28  C1  UNL     1      17.879  -1.276  52.989  1.00  0.00     0.201 C 
ENDBRANCH  26  27
ENDBRANCH   1  26
TORSDOF 4
ENDMDL
