MODEL 1
REMARK VINA RESULT:      -8.1      0.000      0.000
REMARK  7 active torsions:
REMARK  status: ('A' for Active; 'I' for Inactive)
REMARK    1  A    between atoms: C5_6  and  N1_7 
REMARK    2  A    between atoms: N1_7  and  C6_8 
REMARK    3  A    between atoms: N2_13  and  O1_14 
REMARK    4  A    between atoms: C11_15  and  C12_16 
REMARK    5  A    between atoms: C12_16  and  C13_17 
REMARK    6  A    between atoms: C13_17  and  N3_18 
REMARK    7  A    between atoms: C18_25  and  O2_26 
ROOT
HETATM    1  C6  UNL     1      26.121   3.190  50.913  1.00  0.00     0.136 C 
HETATM    2  C7  UNL     1      24.807   3.159  50.762  1.00  0.00     0.002 C 
HETATM    3  C8  UNL     1      23.660   3.235  51.642  1.00  0.00     0.023 C 
HETATM    4  C9  UNL     1      22.515   3.900  51.189  1.00  0.00    -0.009 C 
HETATM    5  C10 UNL     1      22.149   5.288  51.736  1.00  0.00     0.162 C 
HETATM    6  N2  UNL     1      23.120   6.204  51.006  1.00  0.00    -0.185 NA
HETATM    7  C11 UNL     1      23.218   5.886  49.618  1.00  0.00     0.136 C 
HETATM    8  C14 UNL     1      24.036   4.697  49.314  1.00  0.00     0.046 C 
HETATM    9  N4  UNL     1      25.161   5.167  48.810  1.00  0.00    -0.248 NA
HETATM   10  C15 UNL     1      26.542   4.797  49.145  1.00  0.00     0.235 C 
HETATM   11  N5  UNL     1      26.946   3.696  49.807  1.00  0.00    -0.224 NA
HETATM   12  C16 UNL     1      24.106   3.161  49.379  1.00  0.00     0.097 C 
HETATM   13  C17 UNL     1      22.785   2.449  49.619  1.00  0.00     0.026 C 
HETATM   14  C18 UNL     1      21.864   3.399  49.897  1.00  0.00     0.073 C 
ENDROOT
BRANCH   1  15
HETATM   15  N1  UNL     1      26.170   2.686  52.251  1.00  0.00    -0.338 N 
HETATM   16  H4  UNL     1      25.780   3.277  53.019  1.00  0.00     0.167 HD
BRANCH  15  17
HETATM   17  C5  UNL     1      26.749   1.378  52.481  1.00  0.00     0.075 A 
HETATM   18  C4  UNL     1      26.427   0.002  52.240  1.00  0.00     0.057 A 
HETATM   19  C3  UNL     1      27.381  -0.773  52.694  1.00  0.00     0.048 A 
HETATM   20  C2  UNL     1      28.435   0.050  53.288  1.00  0.00     0.017 A 
HETATM   21 CL1  UNL     1      27.361  -2.520  52.590  1.00  0.00    -0.083 Cl
HETATM   22  C1  UNL     1      29.571  -0.356  53.858  1.00  0.00     0.028 C 
HETATM   23  C20 UNL     1      27.941   1.432  53.104  1.00  0.00     0.154 A 
HETATM   24  F1  UNL     1      28.721   2.463  53.567  1.00  0.00    -0.203 F 
ENDBRANCH  15  17
ENDBRANCH   1  15
BRANCH  14  25
HETATM   25  O2  UNL     1      20.972   3.222  48.784  1.00  0.00    -0.356 OA
HETATM   26  C19 UNL     1      20.025   4.218  48.477  1.00  0.00     0.210 C 
ENDBRANCH  14  25
BRANCH   7  27
HETATM   27  C12 UNL     1      23.450   7.075  48.739  1.00  0.00     0.058 C 
BRANCH  27  28
HETATM   28  C13 UNL     1      22.387   7.534  47.841  1.00  0.00     0.269 C 
BRANCH  28  29
HETATM   29  N3  UNL     1      21.163   7.639  48.676  1.00  0.00     0.078 N 
HETATM   30  H14 UNL     1      20.455   6.928  48.343  1.00  0.00     0.312 HD
HETATM   31  H15 UNL     1      21.430   7.280  49.642  1.00  0.00     0.312 HD
ENDBRANCH  28  29
ENDBRANCH  27  28
ENDBRANCH   7  27
BRANCH   6  32
HETATM   32  O1  UNL     1      22.636   7.436  51.221  1.00  0.00    -0.312 OA
HETATM   33  H8  UNL     1      21.939   7.716  50.566  1.00  0.00     0.237 HD
ENDBRANCH   6  32
TORSDOF 7
ENDMDL
MODEL 2
REMARK VINA RESULT:      -7.8      3.010      4.611
REMARK  7 active torsions:
REMARK  status: ('A' for Active; 'I' for Inactive)
REMARK    1  A    between atoms: C5_6  and  N1_7 
REMARK    2  A    between atoms: N1_7  and  C6_8 
REMARK    3  A    between atoms: N2_13  and  O1_14 
REMARK    4  A    between atoms: C11_15  and  C12_16 
REMARK    5  A    between atoms: C12_16  and  C13_17 
REMARK    6  A    between atoms: C13_17  and  N3_18 
REMARK    7  A    between atoms: C18_25  and  O2_26 
ROOT
HETATM    1  C6  UNL     1      24.505   0.067  53.019  1.00  0.00     0.136 C 
HETATM    2  C7  UNL     1      24.185   1.228  52.472  1.00  0.00     0.002 C 
HETATM    3  C8  UNL     1      24.447   1.888  51.211  1.00  0.00     0.023 C 
HETATM    4  C9  UNL     1      23.442   2.686  50.654  1.00  0.00    -0.009 C 
HETATM    5  C10 UNL     1      22.644   2.199  49.435  1.00  0.00     0.162 C 
HETATM    6  N2  UNL     1      21.679   1.192  50.045  1.00  0.00    -0.185 NA
HETATM    7  C11 UNL     1      21.090   1.676  51.252  1.00  0.00     0.136 C 
HETATM    8  C14 UNL     1      21.971   1.620  52.433  1.00  0.00     0.046 C 
HETATM    9  N4  UNL     1      21.516   0.617  53.160  1.00  0.00    -0.248 NA
HETATM   10  C15 UNL     1      22.269  -0.475  53.790  1.00  0.00     0.235 C 
HETATM   11  N5  UNL     1      23.596  -0.517  54.015  1.00  0.00    -0.224 NA
HETATM   12  C16 UNL     1      23.202   2.236  53.123  1.00  0.00     0.097 C 
HETATM   13  C17 UNL     1      23.642   3.593  52.598  1.00  0.00     0.026 C 
HETATM   14  C18 UNL     1      22.909   3.851  51.492  1.00  0.00     0.073 C 
ENDROOT
BRANCH   1  15
HETATM   15  N1  UNL     1      25.721  -0.153  52.299  1.00  0.00    -0.338 N 
HETATM   16  H4  UNL     1      25.663  -0.564  51.341  1.00  0.00     0.167 HD
BRANCH  15  17
HETATM   17  C5  UNL     1      26.976   0.211  52.924  1.00  0.00     0.075 A 
HETATM   18  C4  UNL     1      27.595   1.370  53.497  1.00  0.00     0.057 A 
HETATM   19  C3  UNL     1      28.799   1.075  53.923  1.00  0.00     0.048 A 
HETATM   20  C2  UNL     1      29.078  -0.336  53.658  1.00  0.00     0.017 A 
HETATM   21 CL1  UNL     1      29.879   2.223  54.685  1.00  0.00    -0.083 Cl
HETATM   22  C1  UNL     1      30.189  -1.021  53.940  1.00  0.00     0.028 C 
HETATM   23  C20 UNL     1      27.839  -0.818  53.009  1.00  0.00     0.154 A 
HETATM   24  F1  UNL     1      27.783  -2.137  52.629  1.00  0.00    -0.203 F 
ENDBRANCH  15  17
ENDBRANCH   1  15
BRANCH  14  25
HETATM   25  O2  UNL     1      22.192   5.017  51.929  1.00  0.00    -0.356 OA
HETATM   26  C19 UNL     1      21.440   5.767  51.005  1.00  0.00     0.210 C 
ENDBRANCH  14  25
BRANCH   7  27
HETATM   27  C12 UNL     1      19.684   1.212  51.468  1.00  0.00     0.058 C 
BRANCH  27  28
HETATM   28  C13 UNL     1      18.574   2.155  51.314  1.00  0.00     0.269 C 
BRANCH  28  29
HETATM   29  N3  UNL     1      19.031   3.165  50.326  1.00  0.00     0.078 N 
HETATM   30  H14 UNL     1      19.722   2.716  49.664  1.00  0.00     0.312 HD
HETATM   31  H15 UNL     1      18.194   3.369  49.700  1.00  0.00     0.312 HD
ENDBRANCH  28  29
ENDBRANCH  27  28
ENDBRANCH   7  27
BRANCH   6  32
HETATM   32  O1  UNL     1      20.774   0.976  49.079  1.00  0.00    -0.312 OA
HETATM   33  H8  UNL     1      20.152   0.222  49.269  1.00  0.00     0.237 HD
ENDBRANCH   6  32
TORSDOF 7
ENDMDL
MODEL 3
REMARK VINA RESULT:      -7.7      2.471      4.010
REMARK  7 active torsions:
REMARK  status: ('A' for Active; 'I' for Inactive)
REMARK    1  A    between atoms: C5_6  and  N1_7 
REMARK    2  A    between atoms: N1_7  and  C6_8 
REMARK    3  A    between atoms: N2_13  and  O1_14 
REMARK    4  A    between atoms: C11_15  and  C12_16 
REMARK    5  A    between atoms: C12_16  and  C13_17 
REMARK    6  A    between atoms: C13_17  and  N3_18 
REMARK    7  A    between atoms: C18_25  and  O2_26 
ROOT
HETATM    1  C6  UNL     1      24.443   1.368  52.793  1.00  0.00     0.136 C 
HETATM    2  C7  UNL     1      23.905   2.368  52.114  1.00  0.00     0.002 C 
HETATM    3  C8  UNL     1      24.222   3.086  50.898  1.00  0.00     0.023 C 
HETATM    4  C9  UNL     1      23.169   3.520  50.086  1.00  0.00    -0.009 C 
HETATM    5  C10 UNL     1      22.862   2.810  48.759  1.00  0.00     0.162 C 
HETATM    6  N2  UNL     1      22.153   1.541  49.212  1.00  0.00    -0.185 NA
HETATM    7  C11 UNL     1      21.186   1.801  50.229  1.00  0.00     0.136 C 
HETATM    8  C14 UNL     1      21.749   2.024  51.573  1.00  0.00     0.046 C 
HETATM    9  N4  UNL     1      21.483   0.923  52.250  1.00  0.00    -0.248 NA
HETATM   10  C15 UNL     1      22.380   0.128  53.098  1.00  0.00     0.235 C 
HETATM   11  N5  UNL     1      23.566   0.515  53.606  1.00  0.00    -0.224 NA
HETATM   12  C16 UNL     1      22.534   2.999  52.469  1.00  0.00     0.097 C 
HETATM   13  C17 UNL     1      22.629   4.429  51.963  1.00  0.00     0.026 C 
HETATM   14  C18 UNL     1      22.121   4.445  50.710  1.00  0.00     0.073 C 
ENDROOT
BRANCH   1  15
HETATM   15  N1  UNL     1      25.795   1.557  52.367  1.00  0.00    -0.338 N 
HETATM   16  H4  UNL     1      26.044   2.449  51.884  1.00  0.00     0.167 HD
BRANCH  15  17
HETATM   17  C5  UNL     1      26.761   0.510  52.631  1.00  0.00     0.075 A 
HETATM   18  C4  UNL     1      26.836  -0.921  52.583  1.00  0.00     0.057 A 
HETATM   19  C3  UNL     1      28.026  -1.325  52.953  1.00  0.00     0.048 A 
HETATM   20  C2  UNL     1      28.853  -0.165  53.285  1.00  0.00     0.017 A 
HETATM   21 CL1  UNL     1      28.514  -3.004  53.028  1.00  0.00    -0.083 Cl
HETATM   22  C1  UNL     1      30.121  -0.152  53.702  1.00  0.00     0.028 C 
HETATM   23  C20 UNL     1      27.951   0.983  53.046  1.00  0.00     0.154 A 
HETATM   24  F1  UNL     1      28.441   2.246  53.273  1.00  0.00    -0.203 F 
ENDBRANCH  15  17
ENDBRANCH   1  15
BRANCH  14  25
HETATM   25  O2  UNL     1      20.993   5.314  50.904  1.00  0.00    -0.356 OA
HETATM   26  C19 UNL     1      19.875   5.215  50.054  1.00  0.00     0.210 C 
ENDBRANCH  14  25
BRANCH   7  27
HETATM   27  C12 UNL     1      19.988   0.906  50.167  1.00  0.00     0.058 C 
BRANCH  27  28
HETATM   28  C13 UNL     1      18.679   1.464  49.818  1.00  0.00     0.269 C 
BRANCH  28  29
HETATM   29  N3  UNL     1      18.857   2.130  48.502  1.00  0.00     0.078 N 
HETATM   30  H14 UNL     1      18.318   1.595  47.767  1.00  0.00     0.312 HD
HETATM   31  H15 UNL     1      18.332   3.054  48.563  1.00  0.00     0.312 HD
ENDBRANCH  28  29
ENDBRANCH  27  28
ENDBRANCH   7  27
BRANCH   6  32
HETATM   32  O1  UNL     1      21.605   1.052  48.090  1.00  0.00    -0.312 OA
HETATM   33  H8  UNL     1      22.246   0.562  47.506  1.00  0.00     0.237 HD
ENDBRANCH   6  32
TORSDOF 7
ENDMDL
MODEL 4
REMARK VINA RESULT:      -7.3      2.266      2.764
REMARK  7 active torsions:
REMARK  status: ('A' for Active; 'I' for Inactive)
REMARK    1  A    between atoms: C5_6  and  N1_7 
REMARK    2  A    between atoms: N1_7  and  C6_8 
REMARK    3  A    between atoms: N2_13  and  O1_14 
REMARK    4  A    between atoms: C11_15  and  C12_16 
REMARK    5  A    between atoms: C12_16  and  C13_17 
REMARK    6  A    between atoms: C13_17  and  N3_18 
REMARK    7  A    between atoms: C18_25  and  O2_26 
ROOT
HETATM    1  C6  UNL     1      25.773   3.685  50.739  1.00  0.00     0.136 C 
HETATM    2  C7  UNL     1      24.757   4.463  50.405  1.00  0.00     0.002 C 
HETATM    3  C8  UNL     1      23.845   5.337  51.111  1.00  0.00     0.023 C 
HETATM    4  C9  UNL     1      23.425   6.513  50.480  1.00  0.00    -0.009 C 
HETATM    5  C10 UNL     1      23.974   7.878  50.925  1.00  0.00     0.162 C 
HETATM    6  N2  UNL     1      25.366   7.898  50.311  1.00  0.00    -0.185 NA
HETATM    7  C11 UNL     1      25.363   7.432  48.961  1.00  0.00     0.136 C 
HETATM    8  C14 UNL     1      25.267   5.968  48.814  1.00  0.00     0.046 C 
HETATM    9  N4  UNL     1      26.475   5.573  48.459  1.00  0.00    -0.248 NA
HETATM   10  C15 UNL     1      27.273   4.463  48.997  1.00  0.00     0.235 C 
HETATM   11  N5  UNL     1      26.827   3.436  49.745  1.00  0.00    -0.224 NA
HETATM   12  C16 UNL     1      24.343   4.744  48.937  1.00  0.00     0.097 C 
HETATM   13  C17 UNL     1      22.855   5.045  49.011  1.00  0.00     0.026 C 
HETATM   14  C18 UNL     1      22.723   6.385  49.125  1.00  0.00     0.073 C 
ENDROOT
BRANCH   1  15
HETATM   15  N1  UNL     1      25.372   3.417  52.085  1.00  0.00    -0.338 N 
HETATM   16  H4  UNL     1      25.367   4.207  52.768  1.00  0.00     0.167 HD
BRANCH  15  17
HETATM   17  C5  UNL     1      24.984   2.067  52.441  1.00  0.00     0.075 A 
HETATM   18  C4  UNL     1      23.797   1.352  52.808  1.00  0.00     0.057 A 
HETATM   19  C3  UNL     1      24.078   0.090  53.023  1.00  0.00     0.048 A 
HETATM   20  C2  UNL     1      25.508  -0.134  52.811  1.00  0.00     0.017 A 
HETATM   21 CL1  UNL     1      22.896  -1.112  53.493  1.00  0.00    -0.083 Cl
HETATM   22  C1  UNL     1      26.187  -1.277  52.929  1.00  0.00     0.028 C 
HETATM   23  C20 UNL     1      26.016   1.203  52.436  1.00  0.00     0.154 A 
HETATM   24  F1  UNL     1      27.357   1.331  52.166  1.00  0.00    -0.203 F 
ENDBRANCH  15  17
ENDBRANCH   1  15
BRANCH  14  25
HETATM   25  O2  UNL     1      22.025   6.678  47.904  1.00  0.00    -0.356 OA
HETATM   26  C19 UNL     1      21.044   5.789  47.424  1.00  0.00     0.210 C 
ENDBRANCH  14  25
BRANCH   7  27
HETATM   27  C12 UNL     1      26.373   8.107  48.086  1.00  0.00     0.058 C 
BRANCH  27  28
HETATM   28  C13 UNL     1      25.939   9.123  47.124  1.00  0.00     0.269 C 
BRANCH  28  29
HETATM   29  N3  UNL     1      24.568   9.517  47.537  1.00  0.00     0.078 N 
HETATM   30  H14 UNL     1      24.491   9.456  48.589  1.00  0.00     0.312 HD
HETATM   31  H15 UNL     1      24.490  10.562  47.349  1.00  0.00     0.312 HD
ENDBRANCH  28  29
ENDBRANCH  27  28
ENDBRANCH   7  27
BRANCH   6  32
HETATM   32  O1  UNL     1      25.754   9.177  50.415  1.00  0.00    -0.312 OA
HETATM   33  H8  UNL     1      25.023   9.802  50.674  1.00  0.00     0.237 HD
ENDBRANCH   6  32
TORSDOF 7
ENDMDL
MODEL 5
REMARK VINA RESULT:      -7.2      3.111      4.368
REMARK  7 active torsions:
REMARK  status: ('A' for Active; 'I' for Inactive)
REMARK    1  A    between atoms: C5_6  and  N1_7 
REMARK    2  A    between atoms: N1_7  and  C6_8 
REMARK    3  A    between atoms: N2_13  and  O1_14 
REMARK    4  A    between atoms: C11_15  and  C12_16 
REMARK    5  A    between atoms: C12_16  and  C13_17 
REMARK    6  A    between atoms: C13_17  and  N3_18 
REMARK    7  A    between atoms: C18_25  and  O2_26 
ROOT
HETATM    1  C6  UNL     1      26.179   4.466  49.833  1.00  0.00     0.136 C 
HETATM    2  C7  UNL     1      25.502   5.564  49.542  1.00  0.00     0.002 C 
HETATM    3  C8  UNL     1      24.726   6.532  50.288  1.00  0.00     0.023 C 
HETATM    4  C9  UNL     1      24.779   7.874  49.895  1.00  0.00    -0.009 C 
HETATM    5  C10 UNL     1      25.563   8.901  50.727  1.00  0.00     0.162 C 
HETATM    6  N2  UNL     1      27.007   8.606  50.351  1.00  0.00    -0.185 NA
HETATM    7  C11 UNL     1      27.169   8.416  48.945  1.00  0.00     0.136 C 
HETATM    8  C14 UNL     1      26.720   7.104  48.445  1.00  0.00     0.046 C 
HETATM    9  N4  UNL     1      27.826   6.429  48.194  1.00  0.00    -0.248 NA
HETATM   10  C15 UNL     1      28.166   5.051  48.570  1.00  0.00     0.235 C 
HETATM   11  N5  UNL     1      27.315   4.091  48.979  1.00  0.00    -0.224 NA
HETATM   12  C16 UNL     1      25.499   6.218  48.136  1.00  0.00     0.097 C 
HETATM   13  C17 UNL     1      24.164   6.941  48.054  1.00  0.00     0.026 C 
HETATM   14  C18 UNL     1      24.373   8.214  48.459  1.00  0.00     0.073 C 
ENDROOT
BRANCH   1  15
HETATM   15  N1  UNL     1      25.445   4.094  51.002  1.00  0.00    -0.338 N 
HETATM   16  H4  UNL     1      24.851   4.817  51.467  1.00  0.00     0.167 HD
BRANCH  15  17
HETATM   17  C5  UNL     1      25.549   2.733  51.487  1.00  0.00     0.075 A 
HETATM   18  C4  UNL     1      26.494   1.655  51.470  1.00  0.00     0.057 A 
HETATM   19  C3  UNL     1      26.007   0.616  52.103  1.00  0.00     0.048 A 
HETATM   20  C2  UNL     1      24.668   0.932  52.599  1.00  0.00     0.017 A 
HETATM   21 CL1  UNL     1      26.859  -0.901  52.301  1.00  0.00    -0.083 Cl
HETATM   22  C1  UNL     1      23.841   0.144  53.290  1.00  0.00     0.028 C 
HETATM   23  C20 UNL     1      24.453   2.326  52.154  1.00  0.00     0.154 A 
HETATM   24  F1  UNL     1      23.260   2.927  52.471  1.00  0.00    -0.203 F 
ENDBRANCH  15  17
ENDBRANCH   1  15
BRANCH  14  25
HETATM   25  O2  UNL     1      24.054   8.922  47.249  1.00  0.00    -0.356 OA
HETATM   26  C19 UNL     1      23.090   8.403  46.364  1.00  0.00     0.210 C 
ENDBRANCH  14  25
BRANCH   7  27
HETATM   27  C12 UNL     1      28.483   8.897  48.416  1.00  0.00     0.058 C 
BRANCH  27  28
HETATM   28  C13 UNL     1      28.554  10.166  47.688  1.00  0.00     0.269 C 
BRANCH  28  29
HETATM   29  N3  UNL     1      27.266  10.858  47.947  1.00  0.00     0.078 N 
HETATM   30  H14 UNL     1      26.871  10.524  48.869  1.00  0.00     0.312 HD
HETATM   31  H15 UNL     1      27.509  11.876  48.143  1.00  0.00     0.312 HD
ENDBRANCH  28  29
ENDBRANCH  27  28
ENDBRANCH   7  27
BRANCH   6  32
HETATM   32  O1  UNL     1      27.691   9.665  50.811  1.00  0.00    -0.312 OA
HETATM   33  H8  UNL     1      28.678   9.533  50.828  1.00  0.00     0.237 HD
ENDBRANCH   6  32
TORSDOF 7
ENDMDL
MODEL 6
REMARK VINA RESULT:      -7.1      6.599      9.594
REMARK  7 active torsions:
REMARK  status: ('A' for Active; 'I' for Inactive)
REMARK    1  A    between atoms: C5_6  and  N1_7 
REMARK    2  A    between atoms: N1_7  and  C6_8 
REMARK    3  A    between atoms: N2_13  and  O1_14 
REMARK    4  A    between atoms: C11_15  and  C12_16 
REMARK    5  A    between atoms: C12_16  and  C13_17 
REMARK    6  A    between atoms: C13_17  and  N3_18 
REMARK    7  A    between atoms: C18_25  and  O2_26 
ROOT
HETATM    1  C6  UNL     1      28.922   7.238  47.889  1.00  0.00     0.136 C 
HETATM    2  C7  UNL     1      30.168   7.000  48.264  1.00  0.00     0.002 C 
HETATM    3  C8  UNL     1      30.861   5.919  48.931  1.00  0.00     0.023 C 
HETATM    4  C9  UNL     1      32.170   5.621  48.535  1.00  0.00    -0.009 C 
HETATM    5  C10 UNL     1      32.467   4.366  47.701  1.00  0.00     0.162 C 
HETATM    6  N2  UNL     1      32.005   4.770  46.308  1.00  0.00    -0.185 NA
HETATM    7  C11 UNL     1      32.434   6.088  45.963  1.00  0.00     0.136 C 
HETATM    8  C14 UNL     1      31.657   7.173  46.588  1.00  0.00     0.046 C 
HETATM    9  N4  UNL     1      30.904   7.665  45.622  1.00  0.00    -0.248 NA
HETATM   10  C15 UNL     1      29.469   7.977  45.644  1.00  0.00     0.235 C 
HETATM   11  N5  UNL     1      28.689   8.115  46.733  1.00  0.00    -0.224 NA
HETATM   12  C16 UNL     1      31.360   7.922  47.900  1.00  0.00     0.097 C 
HETATM   13  C17 UNL     1      32.363   7.710  49.022  1.00  0.00     0.026 C 
HETATM   14  C18 UNL     1      33.213   6.738  48.621  1.00  0.00     0.073 C 
ENDROOT
BRANCH   1  15
HETATM   15  N1  UNL     1      28.270   6.422  48.866  1.00  0.00    -0.338 N 
HETATM   16  H4  UNL     1      28.850   5.992  49.621  1.00  0.00     0.167 HD
BRANCH  15  17
HETATM   17  C5  UNL     1      26.837   6.233  48.772  1.00  0.00     0.075 A 
HETATM   18  C4  UNL     1      25.675   6.989  48.406  1.00  0.00     0.057 A 
HETATM   19  C3  UNL     1      24.599   6.251  48.525  1.00  0.00     0.048 A 
HETATM   20  C2  UNL     1      24.973   4.916  48.992  1.00  0.00     0.017 A 
HETATM   21 CL1  UNL     1      22.979   6.812  48.173  1.00  0.00    -0.083 Cl
HETATM   22  C1  UNL     1      24.172   3.877  49.237  1.00  0.00     0.028 C 
HETATM   23  C20 UNL     1      26.444   4.995  49.124  1.00  0.00     0.154 A 
HETATM   24  F1  UNL     1      27.114   3.876  49.554  1.00  0.00    -0.203 F 
ENDBRANCH  15  17
ENDBRANCH   1  15
BRANCH  14  25
HETATM   25  O2  UNL     1      34.445   7.476  48.582  1.00  0.00    -0.356 OA
HETATM   26  C19 UNL     1      35.675   6.794  48.635  1.00  0.00     0.210 C 
ENDBRANCH  14  25
BRANCH   7  27
HETATM   27  C12 UNL     1      32.739   6.263  44.508  1.00  0.00     0.058 C 
BRANCH  27  28
HETATM   28  C13 UNL     1      34.121   6.480  44.075  1.00  0.00     0.269 C 
BRANCH  28  29
HETATM   29  N3  UNL     1      34.899   5.328  44.599  1.00  0.00     0.078 N 
HETATM   30  H14 UNL     1      34.483   5.018  45.520  1.00  0.00     0.312 HD
HETATM   31  H15 UNL     1      34.690   4.509  43.952  1.00  0.00     0.312 HD
ENDBRANCH  28  29
ENDBRANCH  27  28
ENDBRANCH   7  27
BRANCH   6  32
HETATM   32  O1  UNL     1      32.523   3.831  45.503  1.00  0.00    -0.312 OA
HETATM   33  H8  UNL     1      32.502   2.912  45.887  1.00  0.00     0.237 HD
ENDBRANCH   6  32
TORSDOF 7
ENDMDL
MODEL 7
REMARK VINA RESULT:      -7.0      2.439      3.956
REMARK  7 active torsions:
REMARK  status: ('A' for Active; 'I' for Inactive)
REMARK    1  A    between atoms: C5_6  and  N1_7 
REMARK    2  A    between atoms: N1_7  and  C6_8 
REMARK    3  A    between atoms: N2_13  and  O1_14 
REMARK    4  A    between atoms: C11_15  and  C12_16 
REMARK    5  A    between atoms: C12_16  and  C13_17 
REMARK    6  A    between atoms: C13_17  and  N3_18 
REMARK    7  A    between atoms: C18_25  and  O2_26 
ROOT
HETATM    1  C6  UNL     1      23.829   4.177  51.508  1.00  0.00     0.136 C 
HETATM    2  C7  UNL     1      23.525   4.087  50.224  1.00  0.00     0.002 C 
HETATM    3  C8  UNL     1      23.750   3.120  49.171  1.00  0.00     0.023 C 
HETATM    4  C9  UNL     1      22.748   2.933  48.212  1.00  0.00    -0.009 C 
HETATM    5  C10 UNL     1      21.876   1.668  48.231  1.00  0.00     0.162 C 
HETATM    6  N2  UNL     1      20.906   1.944  49.371  1.00  0.00    -0.185 NA
HETATM    7  C11 UNL     1      20.393   3.276  49.328  1.00  0.00     0.136 C 
HETATM    8  C14 UNL     1      21.327   4.312  49.807  1.00  0.00     0.046 C 
HETATM    9  N4  UNL     1      20.872   4.670  50.993  1.00  0.00    -0.248 NA
HETATM   10  C15 UNL     1      21.615   4.838  52.249  1.00  0.00     0.235 C 
HETATM   11  N5  UNL     1      22.949   4.959  52.388  1.00  0.00    -0.224 NA
HETATM   12  C16 UNL     1      22.610   5.101  49.490  1.00  0.00     0.097 C 
HETATM   13  C17 UNL     1      23.072   5.056  48.043  1.00  0.00     0.026 C 
HETATM   14  C18 UNL     1      22.297   4.152  47.404  1.00  0.00     0.073 C 
ENDROOT
BRANCH   1  15
HETATM   15  N1  UNL     1      25.001   3.357  51.483  1.00  0.00    -0.338 N 
HETATM   16  H4  UNL     1      25.838   3.703  50.964  1.00  0.00     0.167 HD
BRANCH  15  17
HETATM   17  C5  UNL     1      24.978   2.090  52.185  1.00  0.00     0.075 A 
HETATM   18  C4  UNL     1      24.189   1.426  53.180  1.00  0.00     0.057 A 
HETATM   19  C3  UNL     1      24.678   0.235  53.426  1.00  0.00     0.048 A 
HETATM   20  C2  UNL     1      25.860   0.014  52.594  1.00  0.00     0.017 A 
HETATM   21 CL1  UNL     1      23.996  -0.887  54.583  1.00  0.00    -0.083 Cl
HETATM   22  C1  UNL     1      26.641  -1.068  52.547  1.00  0.00     0.028 C 
HETATM   23  C20 UNL     1      25.980   1.268  51.820  1.00  0.00     0.154 A 
HETATM   24  F1  UNL     1      27.017   1.378  50.926  1.00  0.00    -0.203 F 
ENDBRANCH  15  17
ENDBRANCH   1  15
BRANCH  14  25
HETATM   25  O2  UNL     1      21.642   5.007  46.451  1.00  0.00    -0.356 OA
HETATM   26  C19 UNL     1      20.505   4.548  45.760  1.00  0.00     0.210 C 
ENDBRANCH  14  25
BRANCH   7  27
HETATM   27  C12 UNL     1      18.983   3.397  49.816  1.00  0.00     0.058 C 
BRANCH  27  28
HETATM   28  C13 UNL     1      17.906   3.682  48.865  1.00  0.00     0.269 C 
BRANCH  28  29
HETATM   29  N3  UNL     1      18.020   2.654  47.799  1.00  0.00     0.078 N 
HETATM   30  H14 UNL     1      19.042   2.465  47.606  1.00  0.00     0.312 HD
HETATM   31  H15 UNL     1      17.683   1.740  48.229  1.00  0.00     0.312 HD
ENDBRANCH  28  29
ENDBRANCH  27  28
ENDBRANCH   7  27
BRANCH   6  32
HETATM   32  O1  UNL     1      19.949   1.017  49.222  1.00  0.00    -0.312 OA
HETATM   33  H8  UNL     1      19.081   1.380  48.894  1.00  0.00     0.237 HD
ENDBRANCH   6  32
TORSDOF 7
ENDMDL
MODEL 8
REMARK VINA RESULT:      -7.0      3.026      3.802
REMARK  7 active torsions:
REMARK  status: ('A' for Active; 'I' for Inactive)
REMARK    1  A    between atoms: C5_6  and  N1_7 
REMARK    2  A    between atoms: N1_7  and  C6_8 
REMARK    3  A    between atoms: N2_13  and  O1_14 
REMARK    4  A    between atoms: C11_15  and  C12_16 
REMARK    5  A    between atoms: C12_16  and  C13_17 
REMARK    6  A    between atoms: C13_17  and  N3_18 
REMARK    7  A    between atoms: C18_25  and  O2_26 
ROOT
HETATM    1  C6  UNL     1      23.809   2.668  52.521  1.00  0.00     0.136 C 
HETATM    2  C7  UNL     1      23.215   2.237  51.420  1.00  0.00     0.002 C 
HETATM    3  C8  UNL     1      22.622   0.992  50.980  1.00  0.00     0.023 C 
HETATM    4  C9  UNL     1      21.491   1.046  50.159  1.00  0.00    -0.009 C 
HETATM    5  C10 UNL     1      20.102   0.700  50.720  1.00  0.00     0.162 C 
HETATM    6  N2  UNL     1      19.739   1.948  51.512  1.00  0.00    -0.185 NA
HETATM    7  C11 UNL     1      20.044   3.145  50.797  1.00  0.00     0.136 C 
HETATM    8  C14 UNL     1      21.473   3.510  50.785  1.00  0.00     0.046 C 
HETATM    9  N4  UNL     1      21.580   4.529  51.616  1.00  0.00    -0.248 NA
HETATM   10  C15 UNL     1      22.562   4.742  52.688  1.00  0.00     0.235 C 
HETATM   11  N5  UNL     1      23.733   4.098  52.849  1.00  0.00    -0.224 NA
HETATM   12  C16 UNL     1      22.863   3.159  50.224  1.00  0.00     0.097 C 
HETATM   13  C17 UNL     1      22.872   2.238  49.015  1.00  0.00     0.026 C 
HETATM   14  C18 UNL     1      21.606   1.803  48.834  1.00  0.00     0.073 C 
ENDROOT
BRANCH   1  15
HETATM   15  N1  UNL     1      24.297   1.404  52.979  1.00  0.00    -0.338 N 
HETATM   16  H4  UNL     1      23.619   0.617  53.083  1.00  0.00     0.167 HD
BRANCH  15  17
HETATM   17  C5  UNL     1      25.710   1.268  53.271  1.00  0.00     0.075 A 
HETATM   18  C4  UNL     1      26.792   2.079  53.746  1.00  0.00     0.057 A 
HETATM   19  C3  UNL     1      27.894   1.371  53.809  1.00  0.00     0.048 A 
HETATM   20  C2  UNL     1      27.620   0.004  53.368  1.00  0.00     0.017 A 
HETATM   21 CL1  UNL     1      29.437   2.003  54.341  1.00  0.00    -0.083 Cl
HETATM   22  C1  UNL     1      28.474  -1.019  53.287  1.00  0.00     0.028 C 
HETATM   23  C20 UNL     1      26.178   0.027  53.040  1.00  0.00     0.154 A 
HETATM   24  F1  UNL     1      25.602  -1.134  52.586  1.00  0.00    -0.203 F 
ENDBRANCH  15  17
ENDBRANCH   1  15
BRANCH  14  25
HETATM   25  O2  UNL     1      21.324   2.368  47.543  1.00  0.00    -0.356 OA
HETATM   26  C19 UNL     1      20.089   3.001  47.306  1.00  0.00     0.210 C 
ENDBRANCH  14  25
BRANCH   7  27
HETATM   27  C12 UNL     1      19.090   4.268  51.062  1.00  0.00     0.058 C 
BRANCH  27  28
HETATM   28  C13 UNL     1      18.164   4.698  50.012  1.00  0.00     0.269 C 
BRANCH  28  29
HETATM   29  N3  UNL     1      17.372   3.495  49.647  1.00  0.00     0.078 N 
HETATM   30  H14 UNL     1      16.613   3.772  48.966  1.00  0.00     0.312 HD
HETATM   31  H15 UNL     1      18.015   2.884  49.058  1.00  0.00     0.312 HD
ENDBRANCH  28  29
ENDBRANCH  27  28
ENDBRANCH   7  27
BRANCH   6  32
HETATM   32  O1  UNL     1      18.428   1.813  51.757  1.00  0.00    -0.312 OA
HETATM   33  H8  UNL     1      18.222   1.304  52.588  1.00  0.00     0.237 HD
ENDBRANCH   6  32
TORSDOF 7
ENDMDL
MODEL 9
REMARK VINA RESULT:      -6.9      8.088     11.272
REMARK  7 active torsions:
REMARK  status: ('A' for Active; 'I' for Inactive)
REMARK    1  A    between atoms: C5_6  and  N1_7 
REMARK    2  A    between atoms: N1_7  and  C6_8 
REMARK    3  A    between atoms: N2_13  and  O1_14 
REMARK    4  A    between atoms: C11_15  and  C12_16 
REMARK    5  A    between atoms: C12_16  and  C13_17 
REMARK    6  A    between atoms: C13_17  and  N3_18 
REMARK    7  A    between atoms: C18_25  and  O2_26 
ROOT
HETATM    1  C6  UNL     1      30.226   7.269  48.449  1.00  0.00     0.136 C 
HETATM    2  C7  UNL     1      31.342   7.614  47.829  1.00  0.00     0.002 C 
HETATM    3  C8  UNL     1      32.518   8.388  48.163  1.00  0.00     0.023 C 
HETATM    4  C9  UNL     1      33.755   7.975  47.656  1.00  0.00    -0.009 C 
HETATM    5  C10 UNL     1      34.791   7.306  48.572  1.00  0.00     0.162 C 
HETATM    6  N2  UNL     1      34.243   5.895  48.725  1.00  0.00    -0.185 NA
HETATM    7  C11 UNL     1      33.799   5.354  47.481  1.00  0.00     0.136 C 
HETATM    8  C14 UNL     1      32.495   5.862  47.017  1.00  0.00     0.046 C 
HETATM    9  N4  UNL     1      31.643   4.874  47.221  1.00  0.00    -0.248 NA
HETATM   10  C15 UNL     1      30.314   4.921  47.844  1.00  0.00     0.235 C 
HETATM   11  N5  UNL     1      29.562   6.016  48.062  1.00  0.00    -0.224 NA
HETATM   12  C16 UNL     1      31.745   7.072  46.433  1.00  0.00     0.097 C 
HETATM   13  C17 UNL     1      32.618   8.164  45.836  1.00  0.00     0.026 C 
HETATM   14  C18 UNL     1      33.900   7.859  46.136  1.00  0.00     0.073 C 
ENDROOT
BRANCH   1  15
HETATM   15  N1  UNL     1      30.160   8.377  49.351  1.00  0.00    -0.338 N 
HETATM   16  H4  UNL     1      30.831   8.408  50.150  1.00  0.00     0.167 HD
BRANCH  15  17
HETATM   17  C5  UNL     1      29.173   9.411  49.112  1.00  0.00     0.075 A 
HETATM   18  C4  UNL     1      27.773   9.514  48.824  1.00  0.00     0.057 A 
HETATM   19  C3  UNL     1      27.426  10.772  48.707  1.00  0.00     0.048 A 
HETATM   20  C2  UNL     1      28.599  11.621  48.912  1.00  0.00     0.017 A 
HETATM   21 CL1  UNL     1      25.799  11.314  48.356  1.00  0.00    -0.083 Cl
HETATM   22  C1  UNL     1      28.665  12.954  48.876  1.00  0.00     0.028 C 
HETATM   23  C20 UNL     1      29.687  10.653  49.170  1.00  0.00     0.154 A 
HETATM   24  F1  UNL     1      30.947  11.147  49.406  1.00  0.00    -0.203 F 
ENDBRANCH  15  17
ENDBRANCH   1  15
BRANCH  14  25
HETATM   25  O2  UNL     1      34.432   7.662  44.816  1.00  0.00    -0.356 OA
HETATM   26  C19 UNL     1      34.785   8.774  44.027  1.00  0.00     0.210 C 
ENDBRANCH  14  25
BRANCH   7  27
HETATM   27  C12 UNL     1      34.001   3.876  47.357  1.00  0.00     0.058 C 
BRANCH  27  28
HETATM   28  C13 UNL     1      34.955   3.351  46.377  1.00  0.00     0.269 C 
BRANCH  28  29
HETATM   29  N3  UNL     1      35.203   4.456  45.416  1.00  0.00     0.078 N 
HETATM   30  H14 UNL     1      36.223   4.451  45.137  1.00  0.00     0.312 HD
HETATM   31  H15 UNL     1      34.704   4.186  44.516  1.00  0.00     0.312 HD
ENDBRANCH  28  29
ENDBRANCH  27  28
ENDBRANCH   7  27
BRANCH   6  32
HETATM   32  O1  UNL     1      35.261   5.201  49.256  1.00  0.00    -0.312 OA
HETATM   33  H8  UNL     1      35.048   4.245  49.438  1.00  0.00     0.237 HD
ENDBRANCH   6  32
TORSDOF 7
ENDMDL
