MODEL 1
REMARK VINA RESULT:      -8.1      0.000      0.000
REMARK  3 active torsions:
REMARK  status: ('A' for Active; 'I' for Inactive)
REMARK       I    between atoms: N2_16  and  C14_17 
REMARK    1  A    between atoms: C14_17  and  C15_19 
REMARK    2  A    between atoms: C16_20  and  C17_21 
REMARK    3  A    between atoms: C17_21  and  N3_22 
ROOT
HETATM    1  C1  UNL     1      32.868   9.784  47.450  1.00  0.00     0.068 C 
HETATM    2  C2  UNL     1      31.400   9.888  47.776  1.00  0.00     0.002 C 
HETATM    3  C3  UNL     1      31.047  11.130  48.154  1.00  0.00    -0.001 C 
HETATM    4  C4  UNL     1      29.623  11.365  48.498  1.00  0.00     0.001 C 
HETATM    5  C5  UNL     1      28.348  10.901  48.619  1.00  0.00     0.031 C 
HETATM    6  C6  UNL     1      27.631   9.642  48.401  1.00  0.00     0.065 C 
HETATM    7  C7  UNL     1      27.163   8.973  49.623  1.00  0.00     0.040 C 
HETATM    8  N1  UNL     1      26.970   9.303  50.828  1.00  0.00    -0.304 NA
HETATM    9  C8  UNL     1      26.843   7.564  49.363  1.00  0.00     0.031 A 
HETATM   10  C9  UNL     1      27.953   6.855  48.717  1.00  0.00     0.112 A 
HETATM   11  S1  UNL     1      27.286   5.204  48.577  1.00  0.00    -0.072 SA
HETATM   12  C10 UNL     1      25.673   5.476  49.321  1.00  0.00     0.010 A 
HETATM   13  C11 UNL     1      25.742   6.847  49.642  1.00  0.00    -0.027 A 
HETATM   14  C12 UNL     1      24.471   7.243  50.287  1.00  0.00     0.060 C 
HETATM   15  C13 UNL     1      24.158   6.312  51.441  1.00  0.00     0.131 C 
HETATM   16  N2  UNL     1      24.112   4.936  51.013  1.00  0.00    -0.344 N 
HETATM   17  C14 UNL     1      23.720   4.016  52.008  1.00  0.00     0.243 C 
HETATM   18  O1  UNL     1      23.668   5.079  52.696  1.00  0.00    -0.268 OA
HETATM   19  C20 UNL     1      24.474   4.682  49.620  1.00  0.00     0.172 C 
HETATM   20  N4  UNL     1      29.041   7.448  48.388  1.00  0.00    -0.236 NA
HETATM   21  C21 UNL     1      30.242   7.550  48.501  1.00  0.00     0.208 C 
HETATM   22  N5  UNL     1      30.706   8.626  47.651  1.00  0.00    -0.355 N 
HETATM   23  H9  UNL     1      27.106  10.205  51.293  1.00  0.00     0.186 HD
HETATM   24  H27 UNL     1      30.547   8.584  46.623  1.00  0.00     0.166 HD
ENDROOT
BRANCH  17  25
HETATM   25  C15 UNL     1      23.404   2.734  52.559  1.00  0.00     0.072 C 
HETATM   26  C16 UNL     1      24.136   1.623  52.764  1.00  0.00     0.008 C 
BRANCH  26  27
HETATM   27  C17 UNL     1      25.500   1.109  52.581  1.00  0.00     0.299 C 
BRANCH  27  28
HETATM   28  N3  UNL     1      26.375   1.622  53.646  1.00  0.00     0.083 N 
HETATM   29  C18 UNL     1      26.701   0.501  54.535  1.00  0.00     0.309 C 
HETATM   30  C19 UNL     1      27.610   2.085  53.045  1.00  0.00     0.309 C 
ENDBRANCH  27  28
ENDBRANCH  26  27
ENDBRANCH  17  25
TORSDOF 3
ENDMDL
MODEL 2
REMARK VINA RESULT:      -8.0      2.529      9.203
REMARK  3 active torsions:
REMARK  status: ('A' for Active; 'I' for Inactive)
REMARK       I    between atoms: N2_16  and  C14_17 
REMARK    1  A    between atoms: C14_17  and  C15_19 
REMARK    2  A    between atoms: C16_20  and  C17_21 
REMARK    3  A    between atoms: C17_21  and  N3_22 
ROOT
HETATM    1  C1  UNL     1      23.168  -0.917  54.913  1.00  0.00     0.068 C 
HETATM    2  C2  UNL     1      24.089  -0.377  53.848  1.00  0.00     0.002 C 
HETATM    3  C3  UNL     1      25.325  -0.904  53.926  1.00  0.00    -0.001 C 
HETATM    4  C4  UNL     1      26.327  -0.456  52.927  1.00  0.00     0.001 C 
HETATM    5  C5  UNL     1      26.650   0.297  51.839  1.00  0.00     0.031 C 
HETATM    6  C6  UNL     1      25.978   1.232  50.934  1.00  0.00     0.065 C 
HETATM    7  C7  UNL     1      26.404   2.633  51.059  1.00  0.00     0.040 C 
HETATM    8  N1  UNL     1      27.391   3.247  51.558  1.00  0.00    -0.304 NA
HETATM    9  C8  UNL     1      25.424   3.539  50.447  1.00  0.00     0.031 A 
HETATM   10  C9  UNL     1      24.068   3.310  50.955  1.00  0.00     0.112 A 
HETATM   11  S1  UNL     1      23.143   4.559  50.074  1.00  0.00    -0.072 SA
HETATM   12  C10 UNL     1      24.479   5.296  49.125  1.00  0.00     0.010 A 
HETATM   13  C11 UNL     1      25.581   4.526  49.549  1.00  0.00    -0.027 A 
HETATM   14  C12 UNL     1      26.793   5.017  48.858  1.00  0.00     0.060 C 
HETATM   15  C13 UNL     1      26.928   6.515  49.042  1.00  0.00     0.131 C 
HETATM   16  N2  UNL     1      25.753   7.212  48.582  1.00  0.00    -0.344 N 
HETATM   17  C14 UNL     1      25.843   8.620  48.619  1.00  0.00     0.243 C 
HETATM   18  O1  UNL     1      26.989   8.340  49.082  1.00  0.00    -0.268 OA
HETATM   19  C20 UNL     1      24.637   6.376  48.142  1.00  0.00     0.172 C 
HETATM   20  N4  UNL     1      23.802   2.381  51.798  1.00  0.00    -0.236 NA
HETATM   21  C21 UNL     1      23.390   2.058  52.889  1.00  0.00     0.208 C 
HETATM   22  N5  UNL     1      23.457   0.616  53.010  1.00  0.00    -0.355 N 
HETATM   23  H9  UNL     1      28.215   2.883  52.043  1.00  0.00     0.186 HD
HETATM   24  H27 UNL     1      22.928   0.013  52.346  1.00  0.00     0.166 HD
ENDROOT
BRANCH  17  25
HETATM   25  C15 UNL     1      25.400   9.969  48.441  1.00  0.00     0.072 C 
HETATM   26  C16 UNL     1      26.019  11.083  48.006  1.00  0.00     0.008 C 
BRANCH  26  27
HETATM   27  C17 UNL     1      27.325  11.541  47.516  1.00  0.00     0.299 C 
BRANCH  27  28
HETATM   28  N3  UNL     1      28.320  11.463  48.596  1.00  0.00     0.083 N 
HETATM   29  C18 UNL     1      29.536  10.857  48.041  1.00  0.00     0.309 C 
HETATM   30  C19 UNL     1      28.649  12.810  49.018  1.00  0.00     0.309 C 
ENDBRANCH  27  28
ENDBRANCH  26  27
ENDBRANCH  17  25
TORSDOF 3
ENDMDL
MODEL 3
REMARK VINA RESULT:      -8.0      8.374     12.233
REMARK  3 active torsions:
REMARK  status: ('A' for Active; 'I' for Inactive)
REMARK       I    between atoms: N2_16  and  C14_17 
REMARK    1  A    between atoms: C14_17  and  C15_19 
REMARK    2  A    between atoms: C16_20  and  C17_21 
REMARK    3  A    between atoms: C17_21  and  N3_22 
ROOT
HETATM    1  C1  UNL     1      25.612  -0.356  54.622  1.00  0.00     0.068 C 
HETATM    2  C2  UNL     1      24.520  -0.015  53.640  1.00  0.00     0.002 C 
HETATM    3  C3  UNL     1      24.856   1.013  52.840  1.00  0.00    -0.001 C 
HETATM    4  C4  UNL     1      23.864   1.444  51.823  1.00  0.00     0.001 C 
HETATM    5  C5  UNL     1      22.654   1.288  51.218  1.00  0.00     0.031 C 
HETATM    6  C6  UNL     1      21.500   0.393  51.324  1.00  0.00     0.065 C 
HETATM    7  C7  UNL     1      20.280   1.011  51.861  1.00  0.00     0.040 C 
HETATM    8  N1  UNL     1      19.849   2.189  52.026  1.00  0.00    -0.304 NA
HETATM    9  C8  UNL     1      19.329  -0.009  52.321  1.00  0.00     0.031 A 
HETATM   10  C9  UNL     1      19.945  -0.956  53.256  1.00  0.00     0.112 A 
HETATM   11  S1  UNL     1      18.561  -2.014  53.652  1.00  0.00    -0.072 SA
HETATM   12  C10 UNL     1      17.298  -1.233  52.641  1.00  0.00     0.010 A 
HETATM   13  C11 UNL     1      18.025  -0.182  52.047  1.00  0.00    -0.027 A 
HETATM   14  C12 UNL     1      17.113   0.587  51.172  1.00  0.00     0.060 C 
HETATM   15  C13 UNL     1      15.874   0.997  51.941  1.00  0.00     0.131 C 
HETATM   16  N2  UNL     1      15.203  -0.144  52.511  1.00  0.00    -0.344 N 
HETATM   17  C14 UNL     1      13.979   0.143  53.152  1.00  0.00     0.243 C 
HETATM   18  O1  UNL     1      14.292   1.318  52.794  1.00  0.00    -0.268 OA
HETATM   19  C20 UNL     1      15.873  -1.433  52.349  1.00  0.00     0.172 C 
HETATM   20  N4  UNL     1      21.187  -0.895  53.571  1.00  0.00    -0.236 NA
HETATM   21  C21 UNL     1      22.035  -0.756  54.422  1.00  0.00     0.208 C 
HETATM   22  N5  UNL     1      23.341  -0.836  53.803  1.00  0.00    -0.355 N 
HETATM   23  H9  UNL     1      20.288   3.087  51.804  1.00  0.00     0.186 HD
HETATM   24  H27 UNL     1      23.626  -1.700  53.296  1.00  0.00     0.166 HD
ENDROOT
BRANCH  17  25
HETATM   25  C15 UNL     1      12.776  -0.141  53.872  1.00  0.00     0.072 C 
HETATM   26  C16 UNL     1      11.633   0.550  54.049  1.00  0.00     0.008 C 
BRANCH  26  27
HETATM   27  C17 UNL     1      11.004   1.823  53.674  1.00  0.00     0.299 C 
BRANCH  27  28
HETATM   28  N3  UNL     1      11.127   2.786  54.778  1.00  0.00     0.083 N 
HETATM   29  C18 UNL     1      11.513   2.039  55.981  1.00  0.00     0.309 C 
HETATM   30  C19 UNL     1      12.199   3.710  54.467  1.00  0.00     0.309 C 
ENDBRANCH  27  28
ENDBRANCH  26  27
ENDBRANCH  17  25
TORSDOF 3
ENDMDL
MODEL 4
REMARK VINA RESULT:      -7.9      2.817      4.025
REMARK  3 active torsions:
REMARK  status: ('A' for Active; 'I' for Inactive)
REMARK       I    between atoms: N2_16  and  C14_17 
REMARK    1  A    between atoms: C14_17  and  C15_19 
REMARK    2  A    between atoms: C16_20  and  C17_21 
REMARK    3  A    between atoms: C17_21  and  N3_22 
ROOT
HETATM    1  C1  UNL     1      29.966   7.439  48.226  1.00  0.00     0.068 C 
HETATM    2  C2  UNL     1      28.552   7.667  48.695  1.00  0.00     0.002 C 
HETATM    3  C3  UNL     1      28.421   8.819  49.380  1.00  0.00    -0.001 C 
HETATM    4  C4  UNL     1      27.072   9.163  49.893  1.00  0.00     0.001 C 
HETATM    5  C5  UNL     1      25.748   8.868  50.016  1.00  0.00     0.031 C 
HETATM    6  C6  UNL     1      24.830   7.814  49.579  1.00  0.00     0.065 C 
HETATM    7  C7  UNL     1      24.326   6.943  50.650  1.00  0.00     0.040 C 
HETATM    8  N1  UNL     1      24.252   6.996  51.912  1.00  0.00    -0.304 NA
HETATM    9  C8  UNL     1      23.774   5.698  50.102  1.00  0.00     0.031 A 
HETATM   10  C9  UNL     1      24.722   5.016  49.215  1.00  0.00     0.112 A 
HETATM   11  S1  UNL     1      23.796   3.559  48.758  1.00  0.00    -0.072 SA
HETATM   12  C10 UNL     1      22.288   3.869  49.684  1.00  0.00     0.010 A 
HETATM   13  C11 UNL     1      22.589   5.098  50.305  1.00  0.00    -0.027 A 
HETATM   14  C12 UNL     1      21.433   5.503  51.135  1.00  0.00     0.060 C 
HETATM   15  C13 UNL     1      21.038   4.375  52.066  1.00  0.00     0.131 C 
HETATM   16  N2  UNL     1      20.752   3.163  51.338  1.00  0.00    -0.344 N 
HETATM   17  C14 UNL     1      20.272   2.095  52.125  1.00  0.00     0.243 C 
HETATM   18  O1  UNL     1      20.425   2.958  53.041  1.00  0.00    -0.268 OA
HETATM   19  C20 UNL     1      20.996   3.204  49.898  1.00  0.00     0.172 C 
HETATM   20  N4  UNL     1      25.872   5.510  48.935  1.00  0.00    -0.236 NA
HETATM   21  C21 UNL     1      27.078   5.411  48.962  1.00  0.00     0.208 C 
HETATM   22  N5  UNL     1      27.661   6.584  48.346  1.00  0.00    -0.355 N 
HETATM   23  H9  UNL     1      24.554   7.730  52.558  1.00  0.00     0.186 HD
HETATM   24  H27 UNL     1      27.444   6.814  47.353  1.00  0.00     0.166 HD
ENDROOT
BRANCH  17  25
HETATM   25  C15 UNL     1      19.786   0.776  52.392  1.00  0.00     0.072 C 
HETATM   26  C16 UNL     1      20.086  -0.133  53.339  1.00  0.00     0.008 C 
BRANCH  26  27
HETATM   27  C17 UNL     1      20.959  -0.314  54.506  1.00  0.00     0.299 C 
BRANCH  27  28
HETATM   28  N3  UNL     1      22.120  -1.138  54.140  1.00  0.00     0.083 N 
HETATM   29  C18 UNL     1      23.052  -0.288  53.388  1.00  0.00     0.309 C 
HETATM   30  C19 UNL     1      22.788  -1.561  55.355  1.00  0.00     0.309 C 
ENDBRANCH  27  28
ENDBRANCH  26  27
ENDBRANCH  17  25
TORSDOF 3
ENDMDL
MODEL 5
REMARK VINA RESULT:      -7.6      7.285     11.527
REMARK  3 active torsions:
REMARK  status: ('A' for Active; 'I' for Inactive)
REMARK       I    between atoms: N2_16  and  C14_17 
REMARK    1  A    between atoms: C14_17  and  C15_19 
REMARK    2  A    between atoms: C16_20  and  C17_21 
REMARK    3  A    between atoms: C17_21  and  N3_22 
ROOT
HETATM    1  C1  UNL     1      13.183   3.159  51.768  1.00  0.00     0.068 C 
HETATM    2  C2  UNL     1      14.263   2.108  51.733  1.00  0.00     0.002 C 
HETATM    3  C3  UNL     1      13.830   0.916  52.184  1.00  0.00    -0.001 C 
HETATM    4  C4  UNL     1      14.801  -0.207  52.195  1.00  0.00     0.001 C 
HETATM    5  C5  UNL     1      16.046  -0.690  51.932  1.00  0.00     0.031 C 
HETATM    6  C6  UNL     1      17.303  -0.190  51.370  1.00  0.00     0.065 C 
HETATM    7  C7  UNL     1      18.406  -0.056  52.332  1.00  0.00     0.040 C 
HETATM    8  N1  UNL     1      18.669  -0.499  53.487  1.00  0.00    -0.304 NA
HETATM    9  C8  UNL     1      19.461   0.819  51.807  1.00  0.00     0.031 A 
HETATM   10  C9  UNL     1      18.936   2.113  51.361  1.00  0.00     0.112 A 
HETATM   11  S1  UNL     1      20.428   2.939  50.831  1.00  0.00    -0.072 SA
HETATM   12  C10 UNL     1      21.620   1.643  51.185  1.00  0.00     0.010 A 
HETATM   13  C11 UNL     1      20.787   0.630  51.702  1.00  0.00    -0.027 A 
HETATM   14  C12 UNL     1      21.628  -0.533  52.064  1.00  0.00     0.060 C 
HETATM   15  C13 UNL     1      22.766  -0.095  52.963  1.00  0.00     0.131 C 
HETATM   16  N2  UNL     1      23.557   0.942  52.348  1.00  0.00    -0.344 N 
HETATM   17  C14 UNL     1      24.702   1.329  53.076  1.00  0.00     0.243 C 
HETATM   18  O1  UNL     1      24.253   0.451  53.872  1.00  0.00    -0.268 OA
HETATM   19  C20 UNL     1      23.071   1.448  51.065  1.00  0.00     0.172 C 
HETATM   20  N4  UNL     1      17.684   2.390  51.396  1.00  0.00    -0.236 NA
HETATM   21  C21 UNL     1      16.787   3.087  51.815  1.00  0.00     0.208 C 
HETATM   22  N5  UNL     1      15.532   2.620  51.265  1.00  0.00    -0.355 N 
HETATM   23  H9  UNL     1      18.126  -1.120  54.093  1.00  0.00     0.186 HD
HETATM   24  H27 UNL     1      15.387   2.607  50.234  1.00  0.00     0.166 HD
ENDROOT
BRANCH  17  25
HETATM   25  C15 UNL     1      25.899   2.064  53.347  1.00  0.00     0.072 C 
HETATM   26  C16 UNL     1      27.103   1.702  53.829  1.00  0.00     0.008 C 
BRANCH  26  27
HETATM   27  C17 UNL     1      27.829   0.517  54.302  1.00  0.00     0.299 C 
BRANCH  27  28
HETATM   28  N3  UNL     1      28.270  -0.291  53.155  1.00  0.00     0.083 N 
HETATM   29  C18 UNL     1      29.550  -0.915  53.514  1.00  0.00     0.309 C 
HETATM   30  C19 UNL     1      27.306  -1.351  52.940  1.00  0.00     0.309 C 
ENDBRANCH  27  28
ENDBRANCH  26  27
ENDBRANCH  17  25
TORSDOF 3
ENDMDL
MODEL 6
REMARK VINA RESULT:      -7.5      4.227      9.573
REMARK  3 active torsions:
REMARK  status: ('A' for Active; 'I' for Inactive)
REMARK       I    between atoms: N2_16  and  C14_17 
REMARK    1  A    between atoms: C14_17  and  C15_19 
REMARK    2  A    between atoms: C16_20  and  C17_21 
REMARK    3  A    between atoms: C17_21  and  N3_22 
ROOT
HETATM    1  C1  UNL     1      20.829  -1.629  54.412  1.00  0.00     0.068 C 
HETATM    2  C2  UNL     1      22.002  -0.891  53.818  1.00  0.00     0.002 C 
HETATM    3  C3  UNL     1      23.140  -1.105  54.505  1.00  0.00    -0.001 C 
HETATM    4  C4  UNL     1      24.372  -0.437  54.017  1.00  0.00     0.001 C 
HETATM    5  C5  UNL     1      24.997   0.362  53.108  1.00  0.00     0.031 C 
HETATM    6  C6  UNL     1      24.644   1.101  51.894  1.00  0.00     0.065 C 
HETATM    7  C7  UNL     1      24.659   2.564  52.029  1.00  0.00     0.040 C 
HETATM    8  N1  UNL     1      25.149   3.402  52.841  1.00  0.00    -0.304 NA
HETATM    9  C8  UNL     1      23.910   3.203  50.940  1.00  0.00     0.031 A 
HETATM   10  C9  UNL     1      22.555   2.658  50.808  1.00  0.00     0.112 A 
HETATM   11  S1  UNL     1      21.906   3.640  49.464  1.00  0.00    -0.072 SA
HETATM   12  C10 UNL     1      23.342   4.669  49.136  1.00  0.00     0.010 A 
HETATM   13  C11 UNL     1      24.255   4.190  50.097  1.00  0.00    -0.027 A 
HETATM   14  C12 UNL     1      25.516   4.954  49.971  1.00  0.00     0.060 C 
HETATM   15  C13 UNL     1      25.233   6.441  50.017  1.00  0.00     0.131 C 
HETATM   16  N2  UNL     1      24.289   6.831  48.999  1.00  0.00    -0.344 N 
HETATM   17  C14 UNL     1      24.055   8.220  48.904  1.00  0.00     0.243 C 
HETATM   18  O1  UNL     1      24.885   8.228  49.862  1.00  0.00    -0.268 OA
HETATM   19  C20 UNL     1      23.709   5.748  48.208  1.00  0.00     0.172 C 
HETATM   20  N4  UNL     1      22.129   1.700  51.546  1.00  0.00    -0.236 NA
HETATM   21  C21 UNL     1      21.336   1.296  52.366  1.00  0.00     0.208 C 
HETATM   22  N5  UNL     1      21.639  -0.086  52.674  1.00  0.00    -0.355 N 
HETATM   23  H9  UNL     1      25.708   3.250  53.684  1.00  0.00     0.186 HD
HETATM   24  H27 UNL     1      21.619  -0.805  51.920  1.00  0.00     0.166 HD
ENDROOT
BRANCH  17  25
HETATM   25  C15 UNL     1      23.474   9.421  48.388  1.00  0.00     0.072 C 
HETATM   26  C16 UNL     1      22.200   9.791  48.154  1.00  0.00     0.008 C 
BRANCH  26  27
HETATM   27  C17 UNL     1      20.828   9.280  48.262  1.00  0.00     0.299 C 
BRANCH  27  28
HETATM   28  N3  UNL     1      20.529   8.944  49.662  1.00  0.00     0.083 N 
HETATM   29  C18 UNL     1      19.231   9.542  49.998  1.00  0.00     0.309 C 
HETATM   30  C19 UNL     1      20.395   7.505  49.773  1.00  0.00     0.309 C 
ENDBRANCH  27  28
ENDBRANCH  26  27
ENDBRANCH  17  25
TORSDOF 3
ENDMDL
MODEL 7
REMARK VINA RESULT:      -7.4      4.515      7.167
REMARK  3 active torsions:
REMARK  status: ('A' for Active; 'I' for Inactive)
REMARK       I    between atoms: N2_16  and  C14_17 
REMARK    1  A    between atoms: C14_17  and  C15_19 
REMARK    2  A    between atoms: C16_20  and  C17_21 
REMARK    3  A    between atoms: C17_21  and  N3_22 
ROOT
HETATM    1  C1  UNL     1      26.839   9.246  49.954  1.00  0.00     0.068 C 
HETATM    2  C2  UNL     1      26.584   7.763  49.850  1.00  0.00     0.002 C 
HETATM    3  C3  UNL     1      27.273   7.197  48.841  1.00  0.00    -0.001 C 
HETATM    4  C4  UNL     1      27.111   5.736  48.635  1.00  0.00     0.001 C 
HETATM    5  C5  UNL     1      26.565   4.547  49.012  1.00  0.00     0.031 C 
HETATM    6  C6  UNL     1      25.669   4.053  50.059  1.00  0.00     0.065 C 
HETATM    7  C7  UNL     1      24.341   3.628  49.594  1.00  0.00     0.040 C 
HETATM    8  N1  UNL     1      23.818   3.317  48.484  1.00  0.00    -0.304 NA
HETATM    9  C8  UNL     1      23.390   3.551  50.709  1.00  0.00     0.031 A 
HETATM   10  C9  UNL     1      23.348   4.794  51.486  1.00  0.00     0.112 A 
HETATM   11  S1  UNL     1      22.105   4.407  52.709  1.00  0.00    -0.072 SA
HETATM   12  C10 UNL     1      21.704   2.732  52.197  1.00  0.00     0.010 A 
HETATM   13  C11 UNL     1      22.564   2.564  51.094  1.00  0.00    -0.027 A 
HETATM   14  C12 UNL     1      22.351   1.211  50.532  1.00  0.00     0.060 C 
HETATM   15  C13 UNL     1      20.878   0.986  50.258  1.00  0.00     0.131 C 
HETATM   16  N2  UNL     1      20.083   1.184  51.445  1.00  0.00    -0.344 N 
HETATM   17  C14 UNL     1      18.711   0.887  51.299  1.00  0.00     0.243 C 
HETATM   18  O1  UNL     1      19.093   0.628  50.118  1.00  0.00    -0.268 OA
HETATM   19  C20 UNL     1      20.797   1.660  52.628  1.00  0.00     0.172 C 
HETATM   20  N4  UNL     1      24.109   5.792  51.220  1.00  0.00    -0.236 NA
HETATM   21  C21 UNL     1      24.222   6.953  50.896  1.00  0.00     0.208 C 
HETATM   22  N5  UNL     1      25.628   7.287  50.824  1.00  0.00    -0.355 N 
HETATM   23  H9  UNL     1      24.232   3.282  47.549  1.00  0.00     0.186 HD
HETATM   24  H27 UNL     1      26.230   7.196  51.669  1.00  0.00     0.166 HD
ENDROOT
BRANCH  17  25
HETATM   25  C15 UNL     1      17.348   0.748  51.708  1.00  0.00     0.072 C 
HETATM   26  C16 UNL     1      16.219   1.393  51.356  1.00  0.00     0.008 C 
BRANCH  26  27
HETATM   27  C17 UNL     1      15.752   2.470  50.474  1.00  0.00     0.299 C 
BRANCH  27  28
HETATM   28  N3  UNL     1      15.464   3.675  51.265  1.00  0.00     0.083 N 
HETATM   29  C18 UNL     1      14.817   3.248  52.511  1.00  0.00     0.309 C 
HETATM   30  C19 UNL     1      16.720   4.310  51.612  1.00  0.00     0.309 C 
ENDBRANCH  27  28
ENDBRANCH  26  27
ENDBRANCH  17  25
TORSDOF 3
ENDMDL
MODEL 8
REMARK VINA RESULT:      -7.4      3.136      9.863
REMARK  3 active torsions:
REMARK  status: ('A' for Active; 'I' for Inactive)
REMARK       I    between atoms: N2_16  and  C14_17 
REMARK    1  A    between atoms: C14_17  and  C15_19 
REMARK    2  A    between atoms: C16_20  and  C17_21 
REMARK    3  A    between atoms: C17_21  and  N3_22 
ROOT
HETATM    1  C1  UNL     1      20.466  -1.643  54.207  1.00  0.00     0.068 C 
HETATM    2  C2  UNL     1      21.682  -0.915  53.692  1.00  0.00     0.002 C 
HETATM    3  C3  UNL     1      22.770  -1.137  54.453  1.00  0.00    -0.001 C 
HETATM    4  C4  UNL     1      24.036  -0.477  54.048  1.00  0.00     0.001 C 
HETATM    5  C5  UNL     1      24.727   0.316  53.183  1.00  0.00     0.031 C 
HETATM    6  C6  UNL     1      24.460   1.057  51.948  1.00  0.00     0.065 C 
HETATM    7  C7  UNL     1      24.477   2.520  52.084  1.00  0.00     0.040 C 
HETATM    8  N1  UNL     1      24.917   3.355  52.926  1.00  0.00    -0.304 NA
HETATM    9  C8  UNL     1      23.807   3.163  50.946  1.00  0.00     0.031 A 
HETATM   10  C9  UNL     1      22.459   2.629  50.725  1.00  0.00     0.112 A 
HETATM   11  S1  UNL     1      21.909   3.614  49.340  1.00  0.00    -0.072 SA
HETATM   12  C10 UNL     1      23.371   4.633  49.108  1.00  0.00     0.010 A 
HETATM   13  C11 UNL     1      24.214   4.148  50.129  1.00  0.00    -0.027 A 
HETATM   14  C12 UNL     1      25.487   4.902  50.086  1.00  0.00     0.060 C 
HETATM   15  C13 UNL     1      25.212   6.392  50.113  1.00  0.00     0.131 C 
HETATM   16  N2  UNL     1      24.341   6.788  49.034  1.00  0.00    -0.344 N 
HETATM   17  C14 UNL     1      24.123   8.178  48.924  1.00  0.00     0.243 C 
HETATM   18  O1  UNL     1      24.887   8.180  49.935  1.00  0.00    -0.268 OA
HETATM   19  C20 UNL     1      23.806   5.708  48.207  1.00  0.00     0.172 C 
HETATM   20  N4  UNL     1      21.979   1.673  51.433  1.00  0.00    -0.236 NA
HETATM   21  C21 UNL     1      21.130   1.276  52.198  1.00  0.00     0.208 C 
HETATM   22  N5  UNL     1      21.402  -0.108  52.526  1.00  0.00    -0.355 N 
HETATM   23  H9  UNL     1      25.419   3.200  53.805  1.00  0.00     0.186 HD
HETATM   24  H27 UNL     1      21.426  -0.827  51.773  1.00  0.00     0.166 HD
ENDROOT
BRANCH  17  25
HETATM   25  C15 UNL     1      23.586   9.383  48.370  1.00  0.00     0.072 C 
HETATM   26  C16 UNL     1      24.147  10.410  47.703  1.00  0.00     0.008 C 
BRANCH  26  27
HETATM   27  C17 UNL     1      25.450  10.865  47.203  1.00  0.00     0.299 C 
BRANCH  27  28
HETATM   28  N3  UNL     1      26.100  11.720  48.207  1.00  0.00     0.083 N 
HETATM   29  C18 UNL     1      27.542  11.448  48.161  1.00  0.00     0.309 C 
HETATM   30  C19 UNL     1      25.899  13.106  47.833  1.00  0.00     0.309 C 
ENDBRANCH  27  28
ENDBRANCH  26  27
ENDBRANCH  17  25
TORSDOF 3
ENDMDL
MODEL 9
REMARK VINA RESULT:      -7.3      6.403     11.791
REMARK  3 active torsions:
REMARK  status: ('A' for Active; 'I' for Inactive)
REMARK       I    between atoms: N2_16  and  C14_17 
REMARK    1  A    between atoms: C14_17  and  C15_19 
REMARK    2  A    between atoms: C16_20  and  C17_21 
REMARK    3  A    between atoms: C17_21  and  N3_22 
ROOT
HETATM    1  C1  UNL     1      14.901  -3.774  52.919  1.00  0.00     0.068 C 
HETATM    2  C2  UNL     1      15.408  -2.446  52.415  1.00  0.00     0.002 C 
HETATM    3  C3  UNL     1      14.657  -1.962  51.408  1.00  0.00    -0.001 C 
HETATM    4  C4  UNL     1      15.050  -0.655  50.825  1.00  0.00     0.001 C 
HETATM    5  C5  UNL     1      15.876   0.428  50.812  1.00  0.00     0.031 C 
HETATM    6  C6  UNL     1      17.037   0.911  51.563  1.00  0.00     0.065 C 
HETATM    7  C7  UNL     1      18.304   0.910  50.819  1.00  0.00     0.040 C 
HETATM    8  N1  UNL     1      18.650   0.851  49.603  1.00  0.00    -0.304 NA
HETATM    9  C8  UNL     1      19.452   0.999  51.730  1.00  0.00     0.031 A 
HETATM   10  C9  UNL     1      19.406  -0.028  52.776  1.00  0.00     0.112 A 
HETATM   11  S1  UNL     1      20.915   0.310  53.671  1.00  0.00    -0.072 SA
HETATM   12  C10 UNL     1      21.520   1.701  52.707  1.00  0.00     0.010 A 
HETATM   13  C11 UNL     1      20.509   1.827  51.734  1.00  0.00    -0.027 A 
HETATM   14  C12 UNL     1      20.862   2.944  50.830  1.00  0.00     0.060 C 
HETATM   15  C13 UNL     1      22.269   2.760  50.298  1.00  0.00     0.131 C 
HETATM   16  N2  UNL     1      23.228   2.639  51.368  1.00  0.00    -0.344 N 
HETATM   17  C14 UNL     1      24.575   2.574  50.955  1.00  0.00     0.243 C 
HETATM   18  O1  UNL     1      24.027   2.659  49.815  1.00  0.00    -0.268 OA
HETATM   19  C20 UNL     1      22.680   2.601  52.722  1.00  0.00     0.172 C 
HETATM   20  N4  UNL     1      18.433  -0.856  52.879  1.00  0.00    -0.236 NA
HETATM   21  C21 UNL     1      18.040  -2.001  52.873  1.00  0.00     0.208 C 
HETATM   22  N5  UNL     1      16.609  -2.009  53.091  1.00  0.00    -0.355 N 
HETATM   23  H9  UNL     1      18.076   0.783  48.759  1.00  0.00     0.186 HD
HETATM   24  H27 UNL     1      16.212  -1.605  53.965  1.00  0.00     0.166 HD
ENDROOT
BRANCH  17  25
HETATM   25  C15 UNL     1      25.994   2.477  51.114  1.00  0.00     0.072 C 
HETATM   26  C16 UNL     1      26.785   1.574  51.725  1.00  0.00     0.008 C 
BRANCH  26  27
HETATM   27  C17 UNL     1      26.703   0.323  52.489  1.00  0.00     0.299 C 
BRANCH  27  28
HETATM   28  N3  UNL     1      25.805   0.496  53.640  1.00  0.00     0.083 N 
HETATM   29  C18 UNL     1      24.747  -0.516  53.539  1.00  0.00     0.309 C 
HETATM   30  C19 UNL     1      26.555   0.233  54.853  1.00  0.00     0.309 C 
ENDBRANCH  27  28
ENDBRANCH  26  27
ENDBRANCH  17  25
TORSDOF 3
ENDMDL
