MODEL 1
REMARK VINA RESULT:      -6.8      0.000      0.000
REMARK  9 active torsions:
REMARK  status: ('A' for Active; 'I' for Inactive)
REMARK    1  A    between atoms: C2_2  and  C3_3 
REMARK    2  A    between atoms: C3_3  and  C4_4 
REMARK    3  A    between atoms: C5_5  and  O1_6 
REMARK    4  A    between atoms: O1_6  and  C6_7 
REMARK    5  A    between atoms: C9_10  and  N1_11 
REMARK       I    between atoms: N1_11  and  C10_12 
REMARK    6  A    between atoms: C10_12  and  O3_14 
REMARK    7  A    between atoms: C15_21  and  C16_22 
REMARK    8  A    between atoms: C16_22  and  C17_23 
REMARK    9  A    between atoms: C17_23  and  O4_24 
ROOT
HETATM    1  C4  UNL     1      25.561   0.281  52.759  1.00  0.00     0.042 A 
HETATM    2  C5  UNL     1      24.207   0.244  52.999  1.00  0.00     0.183 A 
HETATM    3  N2  UNL     1      23.734  -0.441  54.072  1.00  0.00    -0.217 NA
HETATM    4  C14 UNL     1      24.573  -1.090  54.911  1.00  0.00     0.236 A 
HETATM    5  N3  UNL     1      25.881  -1.037  54.652  1.00  0.00    -0.241 NA
HETATM    6  C15 UNL     1      26.406  -0.381  53.615  1.00  0.00     0.070 A 
ENDROOT
BRANCH   2   7
HETATM    7  O1  UNL     1      23.306   0.891  52.173  1.00  0.00    -0.291 OA
BRANCH   7   8
HETATM    8  C6  UNL     1      23.328   2.260  51.952  1.00  0.00     0.078 A 
HETATM    9  C7  UNL     1      23.062   2.798  50.710  1.00  0.00     0.039 A 
HETATM   10  C8  UNL     1      23.087   4.160  50.503  1.00  0.00     0.032 A 
HETATM   11  C9  UNL     1      23.375   5.044  51.517  1.00  0.00     0.037 A 
HETATM   12  C12 UNL     1      23.632   4.460  52.731  1.00  0.00     0.032 A 
HETATM   13  C13 UNL     1      23.622   3.110  52.998  1.00  0.00     0.039 A 
BRANCH  11  14
HETATM   14  N1  UNL     1      23.378   6.423  51.212  1.00  0.00    -0.303 N 
HETATM   15  C10 UNL     1      24.428   7.215  50.691  1.00  0.00     0.364 C 
HETATM   16  O2  UNL     1      25.532   6.704  50.440  1.00  0.00    -0.238 OA
HETATM   17  H9  UNL     1      22.522   6.999  51.365  1.00  0.00     0.171 HD
BRANCH  15  18
HETATM   18  O3  UNL     1      24.350   8.563  50.418  1.00  0.00    -0.309 OA
HETATM   19  C11 UNL     1      25.306   9.212  49.566  1.00  0.00     0.215 C 
ENDBRANCH  15  18
ENDBRANCH  11  14
ENDBRANCH   7   8
ENDBRANCH   2   7
BRANCH   1  20
HETATM   20  C3  UNL     1      26.092   0.926  51.738  1.00  0.00    -0.009 C 
BRANCH  20  21
HETATM   21  C2  UNL     1      26.840   2.160  51.486  1.00  0.00     0.023 C 
HETATM   22  C1  UNL     1      26.504   2.769  50.126  1.00  0.00     0.009 C 
ENDBRANCH  20  21
ENDBRANCH   1  20
BRANCH   6  23
HETATM   23  C16 UNL     1      27.731  -0.448  53.531  1.00  0.00     0.032 C 
BRANCH  23  24
HETATM   24  C17 UNL     1      28.650  -0.112  54.648  1.00  0.00     0.196 C 
BRANCH  24  25
HETATM   25  O4  UNL     1      28.463   1.227  54.976  1.00  0.00    -0.392 OA
HETATM   26  C18 UNL     1      29.230   2.043  54.167  1.00  0.00     0.201 C 
ENDBRANCH  24  25
ENDBRANCH  23  24
ENDBRANCH   6  23
TORSDOF 9
ENDMDL
MODEL 2
REMARK VINA RESULT:      -6.8      3.849      5.959
REMARK  9 active torsions:
REMARK  status: ('A' for Active; 'I' for Inactive)
REMARK    1  A    between atoms: C2_2  and  C3_3 
REMARK    2  A    between atoms: C3_3  and  C4_4 
REMARK    3  A    between atoms: C5_5  and  O1_6 
REMARK    4  A    between atoms: O1_6  and  C6_7 
REMARK    5  A    between atoms: C9_10  and  N1_11 
REMARK       I    between atoms: N1_11  and  C10_12 
REMARK    6  A    between atoms: C10_12  and  O3_14 
REMARK    7  A    between atoms: C15_21  and  C16_22 
REMARK    8  A    between atoms: C16_22  and  C17_23 
REMARK    9  A    between atoms: C17_23  and  O4_24 
ROOT
HETATM    1  C4  UNL     1      24.703   0.679  52.747  1.00  0.00     0.042 A 
HETATM    2  C5  UNL     1      24.235   1.898  52.315  1.00  0.00     0.183 A 
HETATM    3  N2  UNL     1      25.023   2.684  51.537  1.00  0.00    -0.217 NA
HETATM    4  C14 UNL     1      26.266   2.289  51.179  1.00  0.00     0.236 A 
HETATM    5  N3  UNL     1      26.694   1.101  51.613  1.00  0.00    -0.241 NA
HETATM    6  C15 UNL     1      25.967   0.285  52.379  1.00  0.00     0.070 A 
ENDROOT
BRANCH   2   7
HETATM    7  O1  UNL     1      22.971   2.349  52.653  1.00  0.00    -0.291 OA
BRANCH   7   8
HETATM    8  C6  UNL     1      21.832   2.022  51.934  1.00  0.00     0.078 A 
HETATM    9  C7  UNL     1      21.902   1.371  50.720  1.00  0.00     0.039 A 
HETATM   10  C8  UNL     1      20.763   1.051  50.016  1.00  0.00     0.032 A 
HETATM   11  C9  UNL     1      19.507   1.361  50.485  1.00  0.00     0.037 A 
HETATM   12  C12 UNL     1      19.491   2.006  51.694  1.00  0.00     0.032 A 
HETATM   13  C13 UNL     1      20.593   2.352  52.443  1.00  0.00     0.039 A 
BRANCH  11  14
HETATM   14  N1  UNL     1      18.396   0.993  49.693  1.00  0.00    -0.303 N 
HETATM   15  C10 UNL     1      17.354   0.085  49.994  1.00  0.00     0.364 C 
HETATM   16  O2  UNL     1      17.340  -0.513  51.082  1.00  0.00    -0.238 OA
HETATM   17  H9  UNL     1      18.262   1.409  48.747  1.00  0.00     0.171 HD
BRANCH  15  18
HETATM   18  O3  UNL     1      16.299  -0.221  49.163  1.00  0.00    -0.309 OA
HETATM   19  C11 UNL     1      15.432  -1.334  49.432  1.00  0.00     0.215 C 
ENDBRANCH  15  18
ENDBRANCH  11  14
ENDBRANCH   7   8
ENDBRANCH   2   7
BRANCH   1  20
HETATM   20  C3  UNL     1      23.995  -0.136  53.503  1.00  0.00    -0.009 C 
BRANCH  20  21
HETATM   21  C2  UNL     1      22.858  -1.051  53.370  1.00  0.00     0.023 C 
HETATM   22  C1  UNL     1      21.789  -0.800  54.432  1.00  0.00     0.009 C 
ENDBRANCH  20  21
ENDBRANCH   1  20
BRANCH   6  23
HETATM   23  C16 UNL     1      26.571  -0.852  52.705  1.00  0.00     0.032 C 
BRANCH  23  24
HETATM   24  C17 UNL     1      27.965  -0.935  53.210  1.00  0.00     0.196 C 
BRANCH  24  25
HETATM   25  O4  UNL     1      27.963  -0.567  54.552  1.00  0.00    -0.392 OA
HETATM   26  C18 UNL     1      28.784   0.524  54.763  1.00  0.00     0.201 C 
ENDBRANCH  24  25
ENDBRANCH  23  24
ENDBRANCH   6  23
TORSDOF 9
ENDMDL
MODEL 3
REMARK VINA RESULT:      -6.7      4.495      8.564
REMARK  9 active torsions:
REMARK  status: ('A' for Active; 'I' for Inactive)
REMARK    1  A    between atoms: C2_2  and  C3_3 
REMARK    2  A    between atoms: C3_3  and  C4_4 
REMARK    3  A    between atoms: C5_5  and  O1_6 
REMARK    4  A    between atoms: O1_6  and  C6_7 
REMARK    5  A    between atoms: C9_10  and  N1_11 
REMARK       I    between atoms: N1_11  and  C10_12 
REMARK    6  A    between atoms: C10_12  and  O3_14 
REMARK    7  A    between atoms: C15_21  and  C16_22 
REMARK    8  A    between atoms: C16_22  and  C17_23 
REMARK    9  A    between atoms: C17_23  and  O4_24 
ROOT
HETATM    1  C4  UNL     1      18.851   0.591  52.075  1.00  0.00     0.042 A 
HETATM    2  C5  UNL     1      19.953   0.777  52.875  1.00  0.00     0.183 A 
HETATM    3  N2  UNL     1      20.562   1.990  52.910  1.00  0.00    -0.217 NA
HETATM    4  C14 UNL     1      20.103   3.023  52.167  1.00  0.00     0.236 A 
HETATM    5  N3  UNL     1      19.032   2.813  51.399  1.00  0.00    -0.241 NA
HETATM    6  C15 UNL     1      18.390   1.645  51.323  1.00  0.00     0.070 A 
ENDROOT
BRANCH   2   7
HETATM    7  O1  UNL     1      20.463  -0.246  53.655  1.00  0.00    -0.291 OA
BRANCH   7   8
HETATM    8  C6  UNL     1      21.820  -0.425  53.878  1.00  0.00     0.078 A 
HETATM    9  C7  UNL     1      22.764  -0.044  52.947  1.00  0.00     0.039 A 
HETATM   10  C8  UNL     1      24.109  -0.227  53.181  1.00  0.00     0.032 A 
HETATM   11  C9  UNL     1      24.575  -0.794  54.345  1.00  0.00     0.037 A 
HETATM   12  C12 UNL     1      23.598  -1.155  55.236  1.00  0.00     0.032 A 
HETATM   13  C13 UNL     1      22.242  -0.997  55.060  1.00  0.00     0.039 A 
BRANCH  11  14
HETATM   14  N1  UNL     1      25.971  -0.941  54.496  1.00  0.00    -0.303 N 
HETATM   15  C10 UNL     1      26.938   0.041  54.813  1.00  0.00     0.364 C 
HETATM   16  O2  UNL     1      26.595   1.220  54.999  1.00  0.00    -0.238 OA
HETATM   17  H9  UNL     1      26.419  -1.875  54.372  1.00  0.00     0.171 HD
BRANCH  15  18
HETATM   18  O3  UNL     1      28.291  -0.185  54.943  1.00  0.00    -0.309 OA
HETATM   19  C11 UNL     1      29.244   0.457  54.082  1.00  0.00     0.215 C 
ENDBRANCH  15  18
ENDBRANCH  11  14
ENDBRANCH   7   8
ENDBRANCH   2   7
BRANCH   1  20
HETATM   20  C3  UNL     1      18.209  -0.558  51.991  1.00  0.00    -0.009 C 
BRANCH  20  21
HETATM   21  C2  UNL     1      17.184  -1.301  52.730  1.00  0.00     0.023 C 
HETATM   22  C1  UNL     1      17.779  -2.454  53.536  1.00  0.00     0.009 C 
ENDBRANCH  20  21
ENDBRANCH   1  20
BRANCH   6  23
HETATM   23  C16 UNL     1      17.346   1.638  50.502  1.00  0.00     0.032 C 
BRANCH  23  24
HETATM   24  C17 UNL     1      16.060   2.325  50.790  1.00  0.00     0.196 C 
BRANCH  24  25
HETATM   25  O4  UNL     1      15.632   1.930  52.053  1.00  0.00    -0.392 OA
HETATM   26  C18 UNL     1      14.909   2.935  52.664  1.00  0.00     0.201 C 
ENDBRANCH  24  25
ENDBRANCH  23  24
ENDBRANCH   6  23
TORSDOF 9
ENDMDL
MODEL 4
REMARK VINA RESULT:      -6.7      3.092      4.392
REMARK  9 active torsions:
REMARK  status: ('A' for Active; 'I' for Inactive)
REMARK    1  A    between atoms: C2_2  and  C3_3 
REMARK    2  A    between atoms: C3_3  and  C4_4 
REMARK    3  A    between atoms: C5_5  and  O1_6 
REMARK    4  A    between atoms: O1_6  and  C6_7 
REMARK    5  A    between atoms: C9_10  and  N1_11 
REMARK       I    between atoms: N1_11  and  C10_12 
REMARK    6  A    between atoms: C10_12  and  O3_14 
REMARK    7  A    between atoms: C15_21  and  C16_22 
REMARK    8  A    between atoms: C16_22  and  C17_23 
REMARK    9  A    between atoms: C17_23  and  O4_24 
ROOT
HETATM    1  C4  UNL     1      22.365   1.744  51.798  1.00  0.00     0.042 A 
HETATM    2  C5  UNL     1      21.782   2.690  50.988  1.00  0.00     0.183 A 
HETATM    3  N2  UNL     1      20.492   3.056  51.203  1.00  0.00    -0.217 NA
HETATM    4  C14 UNL     1      19.768   2.505  52.203  1.00  0.00     0.236 A 
HETATM    5  N3  UNL     1      20.360   1.589  52.973  1.00  0.00    -0.241 NA
HETATM    6  C15 UNL     1      21.623   1.189  52.812  1.00  0.00     0.070 A 
ENDROOT
BRANCH   2   7
HETATM    7  O1  UNL     1      22.478   3.284  49.951  1.00  0.00    -0.291 OA
BRANCH   7   8
HETATM    8  C6  UNL     1      23.379   4.321  50.139  1.00  0.00     0.078 A 
HETATM    9  C7  UNL     1      24.588   4.360  49.476  1.00  0.00     0.039 A 
HETATM   10  C8  UNL     1      25.475   5.396  49.672  1.00  0.00     0.032 A 
HETATM   11  C9  UNL     1      25.201   6.436  50.531  1.00  0.00     0.037 A 
HETATM   12  C12 UNL     1      23.988   6.350  51.164  1.00  0.00     0.032 A 
HETATM   13  C13 UNL     1      23.062   5.343  51.010  1.00  0.00     0.039 A 
BRANCH  11  14
HETATM   14  N1  UNL     1      26.171   7.454  50.668  1.00  0.00    -0.303 N 
HETATM   15  C10 UNL     1      26.191   8.744  50.088  1.00  0.00     0.364 C 
HETATM   16  O2  UNL     1      25.267   9.109  49.343  1.00  0.00    -0.238 OA
HETATM   17  H9  UNL     1      27.013   7.303  51.264  1.00  0.00     0.171 HD
BRANCH  15  18
HETATM   18  O3  UNL     1      27.180   9.685  50.272  1.00  0.00    -0.309 OA
HETATM   19  C11 UNL     1      28.429   9.607  49.568  1.00  0.00     0.215 C 
ENDBRANCH  15  18
ENDBRANCH  11  14
ENDBRANCH   7   8
ENDBRANCH   2   7
BRANCH   1  20
HETATM   20  C3  UNL     1      23.611   1.340  51.649  1.00  0.00    -0.009 C 
BRANCH  20  21
HETATM   21  C2  UNL     1      24.943   1.669  52.165  1.00  0.00     0.023 C 
HETATM   22  C1  UNL     1      24.897   2.779  53.213  1.00  0.00     0.009 C 
ENDBRANCH  20  21
ENDBRANCH   1  20
BRANCH   6  23
HETATM   23  C16 UNL     1      22.028   0.269  53.681  1.00  0.00     0.032 C 
BRANCH  23  24
HETATM   24  C17 UNL     1      21.145  -0.353  54.702  1.00  0.00     0.196 C 
BRANCH  24  25
HETATM   25  O4  UNL     1      21.725  -1.552  55.103  1.00  0.00    -0.392 OA
HETATM   26  C18 UNL     1      23.065  -1.378  55.391  1.00  0.00     0.201 C 
ENDBRANCH  24  25
ENDBRANCH  23  24
ENDBRANCH   6  23
TORSDOF 9
ENDMDL
MODEL 5
REMARK VINA RESULT:      -6.7      3.546      4.650
REMARK  9 active torsions:
REMARK  status: ('A' for Active; 'I' for Inactive)
REMARK    1  A    between atoms: C2_2  and  C3_3 
REMARK    2  A    between atoms: C3_3  and  C4_4 
REMARK    3  A    between atoms: C5_5  and  O1_6 
REMARK    4  A    between atoms: O1_6  and  C6_7 
REMARK    5  A    between atoms: C9_10  and  N1_11 
REMARK       I    between atoms: N1_11  and  C10_12 
REMARK    6  A    between atoms: C10_12  and  O3_14 
REMARK    7  A    between atoms: C15_21  and  C16_22 
REMARK    8  A    between atoms: C16_22  and  C17_23 
REMARK    9  A    between atoms: C17_23  and  O4_24 
ROOT
HETATM    1  C4  UNL     1      25.087  -0.052  53.519  1.00  0.00     0.042 A 
HETATM    2  C5  UNL     1      23.914  -0.743  53.711  1.00  0.00     0.183 A 
HETATM    3  N2  UNL     1      23.667  -1.328  54.912  1.00  0.00    -0.217 NA
HETATM    4  C14 UNL     1      24.559  -1.242  55.926  1.00  0.00     0.236 A 
HETATM    5  N3  UNL     1      25.688  -0.565  55.710  1.00  0.00    -0.241 NA
HETATM    6  C15 UNL     1      25.987   0.030  54.554  1.00  0.00     0.070 A 
ENDROOT
BRANCH   2   7
HETATM    7  O1  UNL     1      22.969  -0.860  52.707  1.00  0.00    -0.291 OA
BRANCH   7   8
HETATM    8  C6  UNL     1      22.001   0.101  52.462  1.00  0.00     0.078 A 
HETATM    9  C7  UNL     1      21.326   0.729  53.488  1.00  0.00     0.039 A 
HETATM   10  C8  UNL     1      20.366   1.683  53.231  1.00  0.00     0.032 A 
HETATM   11  C9  UNL     1      20.035   2.054  51.948  1.00  0.00     0.037 A 
HETATM   12  C12 UNL     1      20.733   1.402  50.965  1.00  0.00     0.032 A 
HETATM   13  C13 UNL     1      21.702   0.443  51.159  1.00  0.00     0.039 A 
BRANCH  11  14
HETATM   14  N1  UNL     1      19.038   3.041  51.782  1.00  0.00    -0.303 N 
HETATM   15  C10 UNL     1      17.666   2.874  51.480  1.00  0.00     0.364 C 
HETATM   16  O2  UNL     1      17.193   1.736  51.325  1.00  0.00    -0.238 OA
HETATM   17  H9  UNL     1      19.274   4.052  51.880  1.00  0.00     0.171 HD
BRANCH  15  18
HETATM   18  O3  UNL     1      16.753   3.895  51.333  1.00  0.00    -0.309 OA
HETATM   19  C11 UNL     1      15.855   4.255  52.395  1.00  0.00     0.215 C 
ENDBRANCH  15  18
ENDBRANCH  11  14
ENDBRANCH   7   8
ENDBRANCH   2   7
BRANCH   1  20
HETATM   20  C3  UNL     1      25.393   0.541  52.382  1.00  0.00    -0.009 C 
BRANCH  20  21
HETATM   21  C2  UNL     1      25.128   1.809  51.695  1.00  0.00     0.023 C 
HETATM   22  C1  UNL     1      24.460   2.831  52.612  1.00  0.00     0.009 C 
ENDBRANCH  20  21
ENDBRANCH   1  20
BRANCH   6  23
HETATM   23  C16 UNL     1      27.160   0.655  54.539  1.00  0.00     0.032 C 
BRANCH  23  24
HETATM   24  C17 UNL     1      28.471  -0.041  54.596  1.00  0.00     0.196 C 
BRANCH  24  25
HETATM   25  O4  UNL     1      28.388  -1.186  53.809  1.00  0.00    -0.392 OA
HETATM   26  C18 UNL     1      29.645  -1.607  53.422  1.00  0.00     0.201 C 
ENDBRANCH  24  25
ENDBRANCH  23  24
ENDBRANCH   6  23
TORSDOF 9
ENDMDL
MODEL 6
REMARK VINA RESULT:      -6.6      1.786      2.141
REMARK  9 active torsions:
REMARK  status: ('A' for Active; 'I' for Inactive)
REMARK    1  A    between atoms: C2_2  and  C3_3 
REMARK    2  A    between atoms: C3_3  and  C4_4 
REMARK    3  A    between atoms: C5_5  and  O1_6 
REMARK    4  A    between atoms: O1_6  and  C6_7 
REMARK    5  A    between atoms: C9_10  and  N1_11 
REMARK       I    between atoms: N1_11  and  C10_12 
REMARK    6  A    between atoms: C10_12  and  O3_14 
REMARK    7  A    between atoms: C15_21  and  C16_22 
REMARK    8  A    between atoms: C16_22  and  C17_23 
REMARK    9  A    between atoms: C17_23  and  O4_24 
ROOT
HETATM    1  C4  UNL     1      25.760   0.700  52.487  1.00  0.00     0.042 A 
HETATM    2  C5  UNL     1      24.402   0.492  52.555  1.00  0.00     0.183 A 
HETATM    3  N2  UNL     1      23.879  -0.197  53.602  1.00  0.00    -0.217 NA
HETATM    4  C14 UNL     1      24.673  -0.685  54.582  1.00  0.00     0.236 A 
HETATM    5  N3  UNL     1      25.986  -0.468  54.490  1.00  0.00    -0.241 NA
HETATM    6  C15 UNL     1      26.559   0.201  53.487  1.00  0.00     0.070 A 
ENDROOT
BRANCH   2   7
HETATM    7  O1  UNL     1      23.546   0.970  51.579  1.00  0.00    -0.291 OA
BRANCH   7   8
HETATM    8  C6  UNL     1      23.193   2.306  51.468  1.00  0.00     0.078 A 
HETATM    9  C7  UNL     1      23.194   3.149  52.559  1.00  0.00     0.039 A 
HETATM   10  C8  UNL     1      22.841   4.476  52.436  1.00  0.00     0.032 A 
HETATM   11  C9  UNL     1      22.475   5.021  51.228  1.00  0.00     0.037 A 
HETATM   12  C12 UNL     1      22.491   4.143  50.175  1.00  0.00     0.032 A 
HETATM   13  C13 UNL     1      22.833   2.811  50.235  1.00  0.00     0.039 A 
BRANCH  11  14
HETATM   14  N1  UNL     1      22.129   6.390  51.198  1.00  0.00    -0.303 N 
HETATM   15  C10 UNL     1      21.105   7.031  50.462  1.00  0.00     0.364 C 
HETATM   16  O2  UNL     1      20.363   6.370  49.716  1.00  0.00    -0.238 OA
HETATM   17  H9  UNL     1      22.659   7.081  51.773  1.00  0.00     0.171 HD
BRANCH  15  18
HETATM   18  O3  UNL     1      20.830   8.380  50.488  1.00  0.00    -0.309 OA
HETATM   19  C11 UNL     1      19.631   8.912  49.902  1.00  0.00     0.215 C 
ENDBRANCH  15  18
ENDBRANCH  11  14
ENDBRANCH   7   8
ENDBRANCH   2   7
BRANCH   1  20
HETATM   20  C3  UNL     1      26.337   1.360  51.502  1.00  0.00    -0.009 C 
BRANCH  20  21
HETATM   21  C2  UNL     1      26.705   2.739  51.168  1.00  0.00     0.023 C 
HETATM   22  C1  UNL     1      26.493   3.049  49.688  1.00  0.00     0.009 C 
ENDBRANCH  20  21
ENDBRANCH   1  20
BRANCH   6  23
HETATM   23  C16 UNL     1      27.880   0.311  53.577  1.00  0.00     0.032 C 
BRANCH  23  24
HETATM   24  C17 UNL     1      28.631   0.262  54.858  1.00  0.00     0.196 C 
BRANCH  24  25
HETATM   25  O4  UNL     1      29.158   1.527  55.100  1.00  0.00    -0.392 OA
HETATM   26  C18 UNL     1      29.072   2.318  53.972  1.00  0.00     0.201 C 
ENDBRANCH  24  25
ENDBRANCH  23  24
ENDBRANCH   6  23
TORSDOF 9
ENDMDL
MODEL 7
REMARK VINA RESULT:      -6.6      2.853      4.802
REMARK  9 active torsions:
REMARK  status: ('A' for Active; 'I' for Inactive)
REMARK    1  A    between atoms: C2_2  and  C3_3 
REMARK    2  A    between atoms: C3_3  and  C4_4 
REMARK    3  A    between atoms: C5_5  and  O1_6 
REMARK    4  A    between atoms: O1_6  and  C6_7 
REMARK    5  A    between atoms: C9_10  and  N1_11 
REMARK       I    between atoms: N1_11  and  C10_12 
REMARK    6  A    between atoms: C10_12  and  O3_14 
REMARK    7  A    between atoms: C15_21  and  C16_22 
REMARK    8  A    between atoms: C16_22  and  C17_23 
REMARK    9  A    between atoms: C17_23  and  O4_24 
ROOT
HETATM    1  C4  UNL     1      24.769   2.410  51.193  1.00  0.00     0.042 A 
HETATM    2  C5  UNL     1      25.971   2.778  50.637  1.00  0.00     0.183 A 
HETATM    3  N2  UNL     1      27.122   2.570  51.327  1.00  0.00    -0.217 NA
HETATM    4  C14 UNL     1      27.107   2.006  52.556  1.00  0.00     0.236 A 
HETATM    5  N3  UNL     1      25.925   1.659  53.070  1.00  0.00    -0.241 NA
HETATM    6  C15 UNL     1      24.761   1.837  52.441  1.00  0.00     0.070 A 
ENDROOT
BRANCH   2   7
HETATM    7  O1  UNL     1      26.042   3.359  49.384  1.00  0.00    -0.291 OA
BRANCH   7   8
HETATM    8  C6  UNL     1      26.352   4.696  49.184  1.00  0.00     0.078 A 
HETATM    9  C7  UNL     1      27.541   5.086  48.604  1.00  0.00     0.039 A 
HETATM   10  C8  UNL     1      27.837   6.418  48.410  1.00  0.00     0.032 A 
HETATM   11  C9  UNL     1      26.969   7.417  48.783  1.00  0.00     0.037 A 
HETATM   12  C12 UNL     1      25.802   6.978  49.354  1.00  0.00     0.032 A 
HETATM   13  C13 UNL     1      25.450   5.665  49.573  1.00  0.00     0.039 A 
BRANCH  11  14
HETATM   14  N1  UNL     1      27.358   8.754  48.546  1.00  0.00    -0.303 N 
HETATM   15  C10 UNL     1      27.534   9.805  49.476  1.00  0.00     0.364 C 
HETATM   16  O2  UNL     1      27.341   9.608  50.687  1.00  0.00    -0.238 OA
HETATM   17  H9  UNL     1      27.559   9.081  47.577  1.00  0.00     0.171 HD
BRANCH  15  18
HETATM   18  O3  UNL     1      27.918  11.090  49.163  1.00  0.00    -0.309 OA
HETATM   19  C11 UNL     1      28.012  11.533  47.800  1.00  0.00     0.215 C 
ENDBRANCH  15  18
ENDBRANCH  11  14
ENDBRANCH   7   8
ENDBRANCH   2   7
BRANCH   1  20
HETATM   20  C3  UNL     1      23.613   2.580  50.582  1.00  0.00    -0.009 C 
BRANCH  20  21
HETATM   21  C2  UNL     1      22.819   1.938  49.530  1.00  0.00     0.023 C 
HETATM   22  C1  UNL     1      21.645   1.143  50.099  1.00  0.00     0.009 C 
ENDBRANCH  20  21
ENDBRANCH   1  20
BRANCH   6  23
HETATM   23  C16 UNL     1      23.696   1.425  53.120  1.00  0.00     0.032 C 
BRANCH  23  24
HETATM   24  C17 UNL     1      23.474   0.017  53.539  1.00  0.00     0.196 C 
BRANCH  24  25
HETATM   25  O4  UNL     1      22.116  -0.260  53.422  1.00  0.00    -0.392 OA
HETATM   26  C18 UNL     1      21.535  -0.404  54.667  1.00  0.00     0.201 C 
ENDBRANCH  24  25
ENDBRANCH  23  24
ENDBRANCH   6  23
TORSDOF 9
ENDMDL
MODEL 8
REMARK VINA RESULT:      -6.4      3.529      7.649
REMARK  9 active torsions:
REMARK  status: ('A' for Active; 'I' for Inactive)
REMARK    1  A    between atoms: C2_2  and  C3_3 
REMARK    2  A    between atoms: C3_3  and  C4_4 
REMARK    3  A    between atoms: C5_5  and  O1_6 
REMARK    4  A    between atoms: O1_6  and  C6_7 
REMARK    5  A    between atoms: C9_10  and  N1_11 
REMARK       I    between atoms: N1_11  and  C10_12 
REMARK    6  A    between atoms: C10_12  and  O3_14 
REMARK    7  A    between atoms: C15_21  and  C16_22 
REMARK    8  A    between atoms: C16_22  and  C17_23 
REMARK    9  A    between atoms: C17_23  and  O4_24 
ROOT
HETATM    1  C4  UNL     1      20.617   1.544  51.752  1.00  0.00     0.042 A 
HETATM    2  C5  UNL     1      21.489   2.409  51.134  1.00  0.00     0.183 A 
HETATM    3  N2  UNL     1      21.423   2.585  49.789  1.00  0.00    -0.217 NA
HETATM    4  C14 UNL     1      20.511   1.920  49.044  1.00  0.00     0.236 A 
HETATM    5  N3  UNL     1      19.678   1.087  49.670  1.00  0.00    -0.241 NA
HETATM    6  C15 UNL     1      19.694   0.873  50.988  1.00  0.00     0.070 A 
ENDROOT
BRANCH   2   7
HETATM    7  O1  UNL     1      22.441   3.113  51.851  1.00  0.00    -0.291 OA
BRANCH   7   8
HETATM    8  C6  UNL     1      23.666   2.576  52.216  1.00  0.00     0.078 A 
HETATM    9  C7  UNL     1      24.340   3.005  53.340  1.00  0.00     0.039 A 
HETATM   10  C8  UNL     1      25.556   2.462  53.692  1.00  0.00     0.032 A 
HETATM   11  C9  UNL     1      26.155   1.474  52.946  1.00  0.00     0.037 A 
HETATM   12  C12 UNL     1      25.446   1.083  51.840  1.00  0.00     0.032 A 
HETATM   13  C13 UNL     1      24.229   1.585  51.438  1.00  0.00     0.039 A 
BRANCH  11  14
HETATM   14  N1  UNL     1      27.403   0.978  53.384  1.00  0.00    -0.303 N 
HETATM   15  C10 UNL     1      27.673  -0.010  54.360  1.00  0.00     0.364 C 
HETATM   16  O2  UNL     1      26.739  -0.567  54.961  1.00  0.00    -0.238 OA
HETATM   17  H9  UNL     1      28.289   1.346  52.975  1.00  0.00     0.171 HD
BRANCH  15  18
HETATM   18  O3  UNL     1      28.927  -0.440  54.733  1.00  0.00    -0.309 OA
HETATM   19  C11 UNL     1      29.877  -0.910  53.763  1.00  0.00     0.215 C 
ENDBRANCH  15  18
ENDBRANCH  11  14
ENDBRANCH   7   8
ENDBRANCH   2   7
BRANCH   1  20
HETATM   20  C3  UNL     1      20.623   1.325  53.052  1.00  0.00    -0.009 C 
BRANCH  20  21
HETATM   21  C2  UNL     1      21.141   0.332  53.998  1.00  0.00     0.023 C 
HETATM   22  C1  UNL     1      22.095  -0.657  53.330  1.00  0.00     0.009 C 
ENDBRANCH  20  21
ENDBRANCH   1  20
BRANCH   6  23
HETATM   23  C16 UNL     1      18.784   0.007  51.420  1.00  0.00     0.032 C 
BRANCH  23  24
HETATM   24  C17 UNL     1      17.319   0.196  51.260  1.00  0.00     0.196 C 
BRANCH  24  25
HETATM   25  O4  UNL     1      16.998   1.480  51.690  1.00  0.00    -0.392 OA
HETATM   26  C18 UNL     1      16.110   2.081  50.820  1.00  0.00     0.201 C 
ENDBRANCH  24  25
ENDBRANCH  23  24
ENDBRANCH   6  23
TORSDOF 9
ENDMDL
MODEL 9
REMARK VINA RESULT:      -6.4      3.683      4.820
REMARK  9 active torsions:
REMARK  status: ('A' for Active; 'I' for Inactive)
REMARK    1  A    between atoms: C2_2  and  C3_3 
REMARK    2  A    between atoms: C3_3  and  C4_4 
REMARK    3  A    between atoms: C5_5  and  O1_6 
REMARK    4  A    between atoms: O1_6  and  C6_7 
REMARK    5  A    between atoms: C9_10  and  N1_11 
REMARK       I    between atoms: N1_11  and  C10_12 
REMARK    6  A    between atoms: C10_12  and  O3_14 
REMARK    7  A    between atoms: C15_21  and  C16_22 
REMARK    8  A    between atoms: C16_22  and  C17_23 
REMARK    9  A    between atoms: C17_23  and  O4_24 
ROOT
HETATM    1  C4  UNL     1      24.648   0.634  52.651  1.00  0.00     0.042 A 
HETATM    2  C5  UNL     1      24.222   1.823  52.108  1.00  0.00     0.183 A 
HETATM    3  N2  UNL     1      25.091   2.588  51.398  1.00  0.00    -0.217 NA
HETATM    4  C14 UNL     1      26.373   2.199  51.215  1.00  0.00     0.236 A 
HETATM    5  N3  UNL     1      26.759   1.041  51.753  1.00  0.00    -0.241 NA
HETATM    6  C15 UNL     1      25.952   0.246  52.461  1.00  0.00     0.070 A 
ENDROOT
BRANCH   2   7
HETATM    7  O1  UNL     1      22.921   2.266  52.266  1.00  0.00    -0.291 OA
BRANCH   7   8
HETATM    8  C6  UNL     1      22.006   2.318  51.225  1.00  0.00     0.078 A 
HETATM    9  C7  UNL     1      21.965   1.347  50.246  1.00  0.00     0.039 A 
HETATM   10  C8  UNL     1      21.051   1.410  49.217  1.00  0.00     0.032 A 
HETATM   11  C9  UNL     1      20.140   2.435  49.115  1.00  0.00     0.037 A 
HETATM   12  C12 UNL     1      20.221   3.374  50.111  1.00  0.00     0.032 A 
HETATM   13  C13 UNL     1      21.110   3.365  51.163  1.00  0.00     0.039 A 
BRANCH  11  14
HETATM   14  N1  UNL     1      19.242   2.416  48.026  1.00  0.00    -0.303 N 
HETATM   15  C10 UNL     1      19.297   3.149  46.817  1.00  0.00     0.364 C 
HETATM   16  O2  UNL     1      20.231   3.940  46.607  1.00  0.00    -0.238 OA
HETATM   17  H9  UNL     1      18.401   1.800  48.046  1.00  0.00     0.171 HD
BRANCH  15  18
HETATM   18  O3  UNL     1      18.375   3.074  45.797  1.00  0.00    -0.309 OA
HETATM   19  C11 UNL     1      18.680   3.545  44.474  1.00  0.00     0.215 C 
ENDBRANCH  15  18
ENDBRANCH  11  14
ENDBRANCH   7   8
ENDBRANCH   2   7
BRANCH   1  20
HETATM   20  C3  UNL     1      23.861  -0.160  53.351  1.00  0.00    -0.009 C 
BRANCH  20  21
HETATM   21  C2  UNL     1      22.642  -0.951  53.157  1.00  0.00     0.023 C 
HETATM   22  C1  UNL     1      21.500  -0.477  54.053  1.00  0.00     0.009 C 
ENDBRANCH  20  21
ENDBRANCH   1  20
BRANCH   6  23
HETATM   23  C16 UNL     1      26.525  -0.864  52.912  1.00  0.00     0.032 C 
BRANCH  23  24
HETATM   24  C17 UNL     1      27.964  -0.972  53.263  1.00  0.00     0.196 C 
BRANCH  24  25
HETATM   25  O4  UNL     1      28.128  -0.513  54.566  1.00  0.00    -0.392 OA
HETATM   26  C18 UNL     1      29.003   0.554  54.606  1.00  0.00     0.201 C 
ENDBRANCH  24  25
ENDBRANCH  23  24
ENDBRANCH   6  23
TORSDOF 9
ENDMDL
