MODEL 1
REMARK VINA RESULT:      -9.1      0.000      0.000
REMARK  2 active torsions:
REMARK  status: ('A' for Active; 'I' for Inactive)
REMARK    1  A    between atoms: C3_4  and  N1_5 
REMARK    2  A    between atoms: N1_5  and  C4_6 
ROOT
HETATM    1  C4  UNL     1      23.435   3.432  51.822  1.00  0.00     0.144 A 
HETATM    2  N2  UNL     1      22.648   4.388  51.301  1.00  0.00    -0.223 NA
HETATM    3  C5  UNL     1      21.343   4.168  51.277  1.00  0.00     0.235 A 
HETATM    4  N3  UNL     1      20.908   3.036  51.761  1.00  0.00    -0.245 NA
HETATM    5  C6  UNL     1      21.656   2.060  52.288  1.00  0.00     0.058 A 
HETATM    6  C7  UNL     1      23.023   2.200  52.355  1.00  0.00     0.069 A 
HETATM    7  C8  UNL     1      24.175   1.634  52.717  1.00  0.00     0.117 C 
HETATM    8  O1  UNL     1      25.447   2.117  52.606  1.00  0.00    -0.347 OA
HETATM    9  C9  UNL     1      26.453   1.762  53.520  1.00  0.00     0.201 C 
HETATM   10  C10 UNL     1      26.815   0.313  53.265  1.00  0.00     0.198 C 
HETATM   11  O2  UNL     1      25.646  -0.256  52.714  1.00  0.00    -0.353 OA
HETATM   12  C11 UNL     1      24.549   0.344  53.340  1.00  0.00     0.318 C 
HETATM   13  O3  UNL     1      23.520  -0.566  53.286  1.00  0.00    -0.353 OA
HETATM   14  C12 UNL     1      23.009  -0.790  54.569  1.00  0.00     0.197 C 
HETATM   15  C13 UNL     1      21.727  -1.637  54.399  1.00  0.00     0.194 C 
HETATM   16  O4  UNL     1      20.858  -0.898  53.586  1.00  0.00    -0.381 OA
HETATM   17  C14 UNL     1      19.518  -0.861  53.445  1.00  0.00     0.151 C 
HETATM   18  C15 UNL     1      19.912   0.328  52.931  1.00  0.00     0.014 C 
HETATM   19  C16 UNL     1      21.297   0.870  52.808  1.00  0.00     0.082 C 
ENDROOT
BRANCH   1  20
HETATM   20  N1  UNL     1      24.754   3.997  51.691  1.00  0.00    -0.339 N 
HETATM   21  H4  UNL     1      25.334   4.147  52.538  1.00  0.00     0.167 HD
BRANCH  20  22
HETATM   22  C3  UNL     1      25.243   4.341  50.380  1.00  0.00     0.051 C 
HETATM   23  C2  UNL     1      24.697   5.357  49.774  1.00  0.00     0.036 C 
HETATM   24  S1  UNL     1      25.782   6.412  49.211  1.00  0.00    -0.183 SA
HETATM   25  C1  UNL     1      26.049   7.877  50.277  1.00  0.00     0.084 C 
HETATM   26  C19 UNL     1      27.297   5.585  48.605  1.00  0.00     0.095 C 
HETATM   27  C18 UNL     1      27.184   4.171  48.986  1.00  0.00    -0.015 C 
HETATM   28  C17 UNL     1      26.304   3.573  49.760  1.00  0.00     0.027 C 
ENDBRANCH  20  22
ENDBRANCH   1  20
TORSDOF 2
ENDMDL
MODEL 2
REMARK VINA RESULT:      -9.0      2.105      4.556
REMARK  2 active torsions:
REMARK  status: ('A' for Active; 'I' for Inactive)
REMARK    1  A    between atoms: C3_4  and  N1_5 
REMARK    2  A    between atoms: N1_5  and  C4_6 
ROOT
HETATM    1  C4  UNL     1      24.538   3.005  49.991  1.00  0.00     0.144 A 
HETATM    2  N2  UNL     1      25.286   3.808  49.217  1.00  0.00    -0.223 NA
HETATM    3  C5  UNL     1      26.563   3.956  49.533  1.00  0.00     0.235 A 
HETATM    4  N3  UNL     1      27.009   3.311  50.577  1.00  0.00    -0.245 NA
HETATM    5  C6  UNL     1      26.300   2.503  51.372  1.00  0.00     0.058 A 
HETATM    6  C7  UNL     1      24.965   2.290  51.122  1.00  0.00     0.069 A 
HETATM    7  C8  UNL     1      23.851   1.673  51.520  1.00  0.00     0.117 C 
HETATM    8  O1  UNL     1      22.599   1.715  50.975  1.00  0.00    -0.347 OA
HETATM    9  C9  UNL     1      21.718   0.625  51.069  1.00  0.00     0.201 C 
HETATM   10  C10 UNL     1      21.257   0.529  52.509  1.00  0.00     0.198 C 
HETATM   11  O2  UNL     1      22.309   1.099  53.259  1.00  0.00    -0.353 OA
HETATM   12  C11 UNL     1      23.510   0.756  52.631  1.00  0.00     0.318 C 
HETATM   13  O3  UNL     1      24.478   0.756  53.607  1.00  0.00    -0.353 OA
HETATM   14  C12 UNL     1      25.156  -0.469  53.612  1.00  0.00     0.197 C 
HETATM   15  C13 UNL     1      26.360  -0.310  54.567  1.00  0.00     0.194 C 
HETATM   16  O4  UNL     1      27.138   0.742  54.068  1.00  0.00    -0.381 OA
HETATM   17  C14 UNL     1      28.445   1.060  54.159  1.00  0.00     0.151 C 
HETATM   18  C15 UNL     1      28.037   1.751  53.068  1.00  0.00     0.014 C 
HETATM   19  C16 UNL     1      26.675   1.801  52.460  1.00  0.00     0.082 C 
ENDROOT
BRANCH   1  20
HETATM   20  N1  UNL     1      23.241   3.077  49.367  1.00  0.00    -0.339 N 
HETATM   21  H4  UNL     1      22.719   2.203  49.169  1.00  0.00     0.167 HD
BRANCH  20  22
HETATM   22  C3  UNL     1      22.693   4.368  49.034  1.00  0.00     0.051 C 
HETATM   23  C2  UNL     1      22.298   5.132  50.013  1.00  0.00     0.036 C 
HETATM   24  S1  UNL     1      22.899   6.628  49.927  1.00  0.00    -0.183 SA
HETATM   25  C1  UNL     1      24.357   6.928  50.994  1.00  0.00     0.084 C 
HETATM   26  C19 UNL     1      23.045   7.213  48.200  1.00  0.00     0.095 C 
HETATM   27  C18 UNL     1      22.750   6.060  47.340  1.00  0.00    -0.015 C 
HETATM   28  C17 UNL     1      22.586   4.793  47.654  1.00  0.00     0.027 C 
ENDBRANCH  20  22
ENDBRANCH   1  20
TORSDOF 2
ENDMDL
MODEL 3
REMARK VINA RESULT:      -8.9      3.160      5.125
REMARK  2 active torsions:
REMARK  status: ('A' for Active; 'I' for Inactive)
REMARK    1  A    between atoms: C3_4  and  N1_5 
REMARK    2  A    between atoms: N1_5  and  C4_6 
ROOT
HETATM    1  C4  UNL     1      23.719   0.077  53.849  1.00  0.00     0.144 A 
HETATM    2  N2  UNL     1      24.173  -0.723  54.827  1.00  0.00    -0.223 NA
HETATM    3  C5  UNL     1      23.321  -1.578  55.370  1.00  0.00     0.235 A 
HETATM    4  N3  UNL     1      22.095  -1.584  54.920  1.00  0.00    -0.245 NA
HETATM    5  C6  UNL     1      21.604  -0.806  53.950  1.00  0.00     0.058 A 
HETATM    6  C7  UNL     1      22.415   0.113  53.326  1.00  0.00     0.069 A 
HETATM    7  C8  UNL     1      22.493   1.073  52.404  1.00  0.00     0.117 C 
HETATM    8  O1  UNL     1      23.563   1.840  52.042  1.00  0.00    -0.347 OA
HETATM    9  C9  UNL     1      23.709   2.333  50.735  1.00  0.00     0.201 C 
HETATM   10  C10 UNL     1      22.668   3.415  50.533  1.00  0.00     0.198 C 
HETATM   11  O2  UNL     1      21.622   3.074  51.418  1.00  0.00    -0.353 OA
HETATM   12  C11 UNL     1      21.535   1.679  51.451  1.00  0.00     0.318 C 
HETATM   13  O3  UNL     1      20.234   1.375  51.773  1.00  0.00    -0.353 OA
HETATM   14  C12 UNL     1      19.694   0.504  50.820  1.00  0.00     0.197 C 
HETATM   15  C13 UNL     1      18.326   0.034  51.366  1.00  0.00     0.194 C 
HETATM   16  O4  UNL     1      18.572  -0.588  52.596  1.00  0.00    -0.381 OA
HETATM   17  C14 UNL     1      17.930  -1.536  53.306  1.00  0.00     0.151 C 
HETATM   18  C15 UNL     1      19.185  -1.573  53.812  1.00  0.00     0.014 C 
HETATM   19  C16 UNL     1      20.364  -0.745  53.423  1.00  0.00     0.082 C 
ENDROOT
BRANCH   1  20
HETATM   20  N1  UNL     1      24.885   0.850  53.500  1.00  0.00    -0.339 N 
HETATM   21  H4  UNL     1      24.900   1.869  53.691  1.00  0.00     0.167 HD
BRANCH  20  22
HETATM   22  C3  UNL     1      26.011   0.185  52.895  1.00  0.00     0.051 C 
HETATM   23  C2  UNL     1      27.066   0.900  52.623  1.00  0.00     0.036 C 
HETATM   24  S1  UNL     1      28.432   0.249  53.185  1.00  0.00    -0.183 SA
HETATM   25  C1  UNL     1      29.021   0.957  54.768  1.00  0.00     0.084 C 
HETATM   26  C19 UNL     1      28.413  -1.578  53.092  1.00  0.00     0.095 C 
HETATM   27  C18 UNL     1      27.051  -1.964  52.701  1.00  0.00    -0.015 C 
HETATM   28  C17 UNL     1      25.963  -1.232  52.598  1.00  0.00     0.027 C 
ENDBRANCH  20  22
ENDBRANCH   1  20
TORSDOF 2
ENDMDL
MODEL 4
REMARK VINA RESULT:      -8.6      2.711      5.230
REMARK  2 active torsions:
REMARK  status: ('A' for Active; 'I' for Inactive)
REMARK    1  A    between atoms: C3_4  and  N1_5 
REMARK    2  A    between atoms: N1_5  and  C4_6 
ROOT
HETATM    1  C4  UNL     1      25.351   1.860  51.382  1.00  0.00     0.144 A 
HETATM    2  N2  UNL     1      26.391   2.476  50.799  1.00  0.00    -0.223 NA
HETATM    3  C5  UNL     1      26.144   3.565  50.088  1.00  0.00     0.235 A 
HETATM    4  N3  UNL     1      24.904   3.966  50.001  1.00  0.00    -0.245 NA
HETATM    5  C6  UNL     1      23.841   3.382  50.565  1.00  0.00     0.058 A 
HETATM    6  C7  UNL     1      24.001   2.246  51.322  1.00  0.00     0.069 A 
HETATM    7  C8  UNL     1      23.393   1.305  52.047  1.00  0.00     0.117 C 
HETATM    8  O1  UNL     1      23.931   0.230  52.694  1.00  0.00    -0.347 OA
HETATM    9  C9  UNL     1      23.351  -0.293  53.862  1.00  0.00     0.201 C 
HETATM   10  C10 UNL     1      22.060  -0.980  53.467  1.00  0.00     0.198 C 
HETATM   11  O2  UNL     1      21.644  -0.311  52.294  1.00  0.00    -0.353 OA
HETATM   12  C11 UNL     1      21.989   1.036  52.432  1.00  0.00     0.318 C 
HETATM   13  O3  UNL     1      21.102   1.749  51.660  1.00  0.00    -0.353 OA
HETATM   14  C12 UNL     1      20.484   2.741  52.429  1.00  0.00     0.197 C 
HETATM   15  C13 UNL     1      19.685   3.633  51.452  1.00  0.00     0.194 C 
HETATM   16  O4  UNL     1      20.604   4.150  50.530  1.00  0.00    -0.381 OA
HETATM   17  C14 UNL     1      20.635   5.261  49.767  1.00  0.00     0.151 C 
HETATM   18  C15 UNL     1      21.937   4.892  49.824  1.00  0.00     0.014 C 
HETATM   19  C16 UNL     1      22.538   3.723  50.531  1.00  0.00     0.082 C 
ENDROOT
BRANCH   1  20
HETATM   20  N1  UNL     1      25.974   0.748  52.056  1.00  0.00    -0.339 N 
HETATM   21  H4  UNL     1      25.787  -0.219  51.730  1.00  0.00     0.167 HD
BRANCH  20  22
HETATM   22  C3  UNL     1      26.851   1.006  53.170  1.00  0.00     0.051 C 
HETATM   23  C2  UNL     1      27.069   0.034  54.011  1.00  0.00     0.036 C 
HETATM   24  S1  UNL     1      28.638  -0.213  54.296  1.00  0.00    -0.183 SA
HETATM   25  C1  UNL     1      29.381  -1.588  53.343  1.00  0.00     0.084 C 
HETATM   26  C19 UNL     1      29.590   1.349  54.307  1.00  0.00     0.095 C 
HETATM   27  C18 UNL     1      28.674   2.402  53.851  1.00  0.00    -0.015 C 
HETATM   28  C17 UNL     1      27.464   2.307  53.345  1.00  0.00     0.027 C 
ENDBRANCH  20  22
ENDBRANCH   1  20
TORSDOF 2
ENDMDL
MODEL 5
REMARK VINA RESULT:      -8.6      2.323      4.648
REMARK  2 active torsions:
REMARK  status: ('A' for Active; 'I' for Inactive)
REMARK    1  A    between atoms: C3_4  and  N1_5 
REMARK    2  A    between atoms: N1_5  and  C4_6 
ROOT
HETATM    1  C4  UNL     1      22.799   2.936  50.475  1.00  0.00     0.144 A 
HETATM    2  N2  UNL     1      21.542   2.520  50.695  1.00  0.00    -0.223 NA
HETATM    3  C5  UNL     1      21.366   1.489  51.507  1.00  0.00     0.235 A 
HETATM    4  N3  UNL     1      22.427   0.946  52.039  1.00  0.00    -0.245 NA
HETATM    5  C6  UNL     1      23.694   1.329  51.847  1.00  0.00     0.058 A 
HETATM    6  C7  UNL     1      23.974   2.391  51.020  1.00  0.00     0.069 A 
HETATM    7  C8  UNL     1      24.929   3.151  50.481  1.00  0.00     0.117 C 
HETATM    8  O1  UNL     1      24.813   4.201  49.616  1.00  0.00    -0.347 OA
HETATM    9  C9  UNL     1      25.740   5.256  49.609  1.00  0.00     0.201 C 
HETATM   10  C10 UNL     1      27.037   4.725  49.034  1.00  0.00     0.198 C 
HETATM   11  O2  UNL     1      27.018   3.344  49.327  1.00  0.00    -0.353 OA
HETATM   12  C11 UNL     1      26.406   3.184  50.574  1.00  0.00     0.318 C 
HETATM   13  O3  UNL     1      26.910   2.024  51.112  1.00  0.00    -0.353 OA
HETATM   14  C12 UNL     1      27.432   2.273  52.387  1.00  0.00     0.197 C 
HETATM   15  C13 UNL     1      27.767   0.899  53.011  1.00  0.00     0.194 C 
HETATM   16  O4  UNL     1      26.573   0.167  53.043  1.00  0.00    -0.381 OA
HETATM   17  C14 UNL     1      26.117  -0.839  53.816  1.00  0.00     0.151 C 
HETATM   18  C15 UNL     1      24.982  -0.316  53.293  1.00  0.00     0.014 C 
HETATM   19  C16 UNL     1      24.841   0.834  52.352  1.00  0.00     0.082 C 
ENDROOT
BRANCH   1  20
HETATM   20  N1  UNL     1      22.616   4.045  49.572  1.00  0.00    -0.339 N 
HETATM   21  H4  UNL     1      23.148   4.073  48.682  1.00  0.00     0.167 HD
BRANCH  20  22
HETATM   22  C3  UNL     1      21.692   5.092  49.927  1.00  0.00     0.051 C 
HETATM   23  C2  UNL     1      22.017   5.884  50.909  1.00  0.00     0.036 C 
HETATM   24  S1  UNL     1      21.880   7.447  50.531  1.00  0.00    -0.183 SA
HETATM   25  C1  UNL     1      23.452   8.262  50.064  1.00  0.00     0.084 C 
HETATM   26  C19 UNL     1      20.461   7.765  49.421  1.00  0.00     0.095 C 
HETATM   27  C18 UNL     1      19.943   6.452  49.016  1.00  0.00    -0.015 C 
HETATM   28  C17 UNL     1      20.442   5.251  49.212  1.00  0.00     0.027 C 
ENDBRANCH  20  22
ENDBRANCH   1  20
TORSDOF 2
ENDMDL
MODEL 6
REMARK VINA RESULT:      -8.4      2.030      4.007
REMARK  2 active torsions:
REMARK  status: ('A' for Active; 'I' for Inactive)
REMARK    1  A    between atoms: C3_4  and  N1_5 
REMARK    2  A    between atoms: N1_5  and  C4_6 
ROOT
HETATM    1  C4  UNL     1      24.034   2.912  50.861  1.00  0.00     0.144 A 
HETATM    2  N2  UNL     1      25.361   2.884  50.660  1.00  0.00    -0.223 NA
HETATM    3  C5  UNL     1      26.073   2.017  51.363  1.00  0.00     0.235 A 
HETATM    4  N3  UNL     1      25.437   1.249  52.205  1.00  0.00    -0.245 NA
HETATM    5  C6  UNL     1      24.119   1.245  52.435  1.00  0.00     0.058 A 
HETATM    6  C7  UNL     1      23.299   2.112  51.751  1.00  0.00     0.069 A 
HETATM    7  C8  UNL     1      22.049   2.542  51.572  1.00  0.00     0.117 C 
HETATM    8  O1  UNL     1      21.581   3.515  50.737  1.00  0.00    -0.347 OA
HETATM    9  C9  UNL     1      20.288   3.460  50.193  1.00  0.00     0.201 C 
HETATM   10  C10 UNL     1      19.305   3.733  51.314  1.00  0.00     0.198 C 
HETATM   11  O2  UNL     1      19.973   3.311  52.484  1.00  0.00    -0.353 OA
HETATM   12  C11 UNL     1      20.735   2.186  52.154  1.00  0.00     0.318 C 
HETATM   13  O3  UNL     1      20.869   1.450  53.307  1.00  0.00    -0.353 OA
HETATM   14  C12 UNL     1      20.446   0.134  53.089  1.00  0.00     0.197 C 
HETATM   15  C13 UNL     1      20.836  -0.675  54.347  1.00  0.00     0.194 C 
HETATM   16  O4  UNL     1      22.225  -0.565  54.486  1.00  0.00    -0.381 OA
HETATM   17  C14 UNL     1      23.170  -1.339  55.055  1.00  0.00     0.151 C 
HETATM   18  C15 UNL     1      23.881  -0.569  54.198  1.00  0.00     0.014 C 
HETATM   19  C16 UNL     1      23.382   0.494  53.276  1.00  0.00     0.082 C 
ENDROOT
BRANCH   1  20
HETATM   20  N1  UNL     1      23.595   3.941  49.951  1.00  0.00    -0.339 N 
HETATM   21  H4  UNL     1      22.832   3.738  49.278  1.00  0.00     0.167 HD
BRANCH  20  22
HETATM   22  C3  UNL     1      24.225   5.235  49.999  1.00  0.00     0.051 C 
HETATM   23  C2  UNL     1      24.933   5.606  48.970  1.00  0.00     0.036 C 
HETATM   24  S1  UNL     1      24.541   7.076  48.431  1.00  0.00    -0.183 SA
HETATM   25  C1  UNL     1      23.418   7.086  46.985  1.00  0.00     0.084 C 
HETATM   26  C19 UNL     1      24.091   8.211  49.793  1.00  0.00     0.095 C 
HETATM   27  C18 UNL     1      24.022   7.396  51.013  1.00  0.00    -0.015 C 
HETATM   28  C17 UNL     1      24.076   6.090  51.159  1.00  0.00     0.027 C 
ENDBRANCH  20  22
ENDBRANCH   1  20
TORSDOF 2
ENDMDL
MODEL 7
REMARK VINA RESULT:      -8.3      3.129      5.282
REMARK  2 active torsions:
REMARK  status: ('A' for Active; 'I' for Inactive)
REMARK    1  A    between atoms: C3_4  and  N1_5 
REMARK    2  A    between atoms: N1_5  and  C4_6 
ROOT
HETATM    1  C4  UNL     1      22.953   1.674  52.747  1.00  0.00     0.144 A 
HETATM    2  N2  UNL     1      23.241   0.536  53.398  1.00  0.00    -0.223 NA
HETATM    3  C5  UNL     1      22.368  -0.457  53.319  1.00  0.00     0.235 A 
HETATM    4  N3  UNL     1      21.286  -0.261  52.615  1.00  0.00    -0.245 NA
HETATM    5  C6  UNL     1      20.963   0.855  51.954  1.00  0.00     0.058 A 
HETATM    6  C7  UNL     1      21.809   1.939  51.978  1.00  0.00     0.069 A 
HETATM    7  C8  UNL     1      22.009   3.194  51.573  1.00  0.00     0.117 C 
HETATM    8  O1  UNL     1      23.058   4.029  51.830  1.00  0.00    -0.347 OA
HETATM    9  C9  UNL     1      23.456   5.016  50.914  1.00  0.00     0.201 C 
HETATM   10  C10 UNL     1      22.395   6.098  50.915  1.00  0.00     0.198 C 
HETATM   11  O2  UNL     1      21.209   5.434  51.296  1.00  0.00    -0.353 OA
HETATM   12  C11 UNL     1      21.245   4.152  50.741  1.00  0.00     0.318 C 
HETATM   13  O3  UNL     1      19.938   3.758  50.578  1.00  0.00    -0.353 OA
HETATM   14  C12 UNL     1      19.715   3.366  49.253  1.00  0.00     0.197 C 
HETATM   15  C13 UNL     1      18.308   2.730  49.204  1.00  0.00     0.194 C 
HETATM   16  O4  UNL     1      18.319   1.652  50.097  1.00  0.00    -0.381 OA
HETATM   17  C14 UNL     1      17.620   0.502  50.180  1.00  0.00     0.151 C 
HETATM   18  C15 UNL     1      18.723   0.243  50.922  1.00  0.00     0.014 C 
HETATM   19  C16 UNL     1      19.878   1.144  51.207  1.00  0.00     0.082 C 
ENDROOT
BRANCH   1  20
HETATM   20  N1  UNL     1      24.093   2.507  53.042  1.00  0.00    -0.339 N 
HETATM   21  H4  UNL     1      23.946   3.496  53.319  1.00  0.00     0.167 HD
BRANCH  20  22
HETATM   22  C3  UNL     1      25.416   1.944  52.947  1.00  0.00     0.051 C 
HETATM   23  C2  UNL     1      26.159   1.954  54.018  1.00  0.00     0.036 C 
HETATM   24  S1  UNL     1      26.801   0.511  54.353  1.00  0.00    -0.183 SA
HETATM   25  C1  UNL     1      25.907  -0.445  55.633  1.00  0.00     0.084 C 
HETATM   26  C19 UNL     1      27.245  -0.413  52.838  1.00  0.00     0.095 C 
HETATM   27  C18 UNL     1      26.703   0.350  51.707  1.00  0.00    -0.015 C 
HETATM   28  C17 UNL     1      25.898   1.391  51.699  1.00  0.00     0.027 C 
ENDBRANCH  20  22
ENDBRANCH   1  20
TORSDOF 2
ENDMDL
MODEL 8
REMARK VINA RESULT:      -8.2      2.783      4.754
REMARK  2 active torsions:
REMARK  status: ('A' for Active; 'I' for Inactive)
REMARK    1  A    between atoms: C3_4  and  N1_5 
REMARK    2  A    between atoms: N1_5  and  C4_6 
ROOT
HETATM    1  C4  UNL     1      23.623   3.730  50.289  1.00  0.00     0.144 A 
HETATM    2  N2  UNL     1      24.798   4.154  49.795  1.00  0.00    -0.223 NA
HETATM    3  C5  UNL     1      25.898   3.551  50.217  1.00  0.00     0.235 A 
HETATM    4  N3  UNL     1      25.767   2.585  51.085  1.00  0.00    -0.245 NA
HETATM    5  C6  UNL     1      24.619   2.133  51.601  1.00  0.00     0.058 A 
HETATM    6  C7  UNL     1      23.424   2.699  51.222  1.00  0.00     0.069 A 
HETATM    7  C8  UNL     1      22.100   2.692  51.377  1.00  0.00     0.117 C 
HETATM    8  O1  UNL     1      21.156   3.482  50.786  1.00  0.00    -0.347 OA
HETATM    9  C9  UNL     1      19.854   3.017  50.541  1.00  0.00     0.201 C 
HETATM   10  C10 UNL     1      19.146   2.906  51.877  1.00  0.00     0.198 C 
HETATM   11  O2  UNL     1      20.183   2.690  52.812  1.00  0.00    -0.353 OA
HETATM   12  C11 UNL     1      21.153   1.897  52.192  1.00  0.00     0.318 C 
HETATM   13  O3  UNL     1      21.795   1.208  53.193  1.00  0.00    -0.353 OA
HETATM   14  C12 UNL     1      21.769  -0.165  52.925  1.00  0.00     0.197 C 
HETATM   15  C13 UNL     1      22.694  -0.842  53.961  1.00  0.00     0.194 C 
HETATM   16  O4  UNL     1      23.966  -0.278  53.799  1.00  0.00    -0.381 OA
HETATM   17  C14 UNL     1      25.217  -0.711  54.050  1.00  0.00     0.151 C 
HETATM   18  C15 UNL     1      25.412   0.282  53.150  1.00  0.00     0.014 C 
HETATM   19  C16 UNL     1      24.391   1.149  52.493  1.00  0.00     0.082 C 
ENDROOT
BRANCH   1  20
HETATM   20  N1  UNL     1      22.670   4.584  49.625  1.00  0.00    -0.339 N 
HETATM   21  H4  UNL     1      21.993   5.131  50.189  1.00  0.00     0.167 HD
BRANCH  20  22
HETATM   22  C3  UNL     1      22.682   4.663  48.187  1.00  0.00     0.051 C 
HETATM   23  C2  UNL     1      22.390   3.584  47.516  1.00  0.00     0.036 C 
HETATM   24  S1  UNL     1      21.262   3.829  46.387  1.00  0.00    -0.183 SA
HETATM   25  C1  UNL     1      19.569   3.337  46.878  1.00  0.00     0.084 C 
HETATM   26  C19 UNL     1      21.415   5.478  45.609  1.00  0.00     0.095 C 
HETATM   27  C18 UNL     1      22.424   6.214  46.380  1.00  0.00    -0.015 C 
HETATM   28  C17 UNL     1      23.013   5.902  47.515  1.00  0.00     0.027 C 
ENDBRANCH  20  22
ENDBRANCH   1  20
TORSDOF 2
ENDMDL
MODEL 9
REMARK VINA RESULT:      -8.0      1.946      2.528
REMARK  2 active torsions:
REMARK  status: ('A' for Active; 'I' for Inactive)
REMARK    1  A    between atoms: C3_4  and  N1_5 
REMARK    2  A    between atoms: N1_5  and  C4_6 
ROOT
HETATM    1  C4  UNL     1      22.495   2.528  49.901  1.00  0.00     0.144 A 
HETATM    2  N2  UNL     1      21.844   3.035  48.842  1.00  0.00    -0.223 NA
HETATM    3  C5  UNL     1      20.579   2.685  48.668  1.00  0.00     0.235 A 
HETATM    4  N3  UNL     1      20.050   1.868  49.538  1.00  0.00    -0.245 NA
HETATM    5  C6  UNL     1      20.662   1.341  50.604  1.00  0.00     0.058 A 
HETATM    6  C7  UNL     1      21.977   1.648  50.865  1.00  0.00     0.069 A 
HETATM    7  C8  UNL     1      23.019   1.449  51.674  1.00  0.00     0.117 C 
HETATM    8  O1  UNL     1      24.281   1.964  51.600  1.00  0.00    -0.347 OA
HETATM    9  C9  UNL     1      25.053   2.191  52.751  1.00  0.00     0.201 C 
HETATM   10  C10 UNL     1      25.469   0.841  53.299  1.00  0.00     0.198 C 
HETATM   11  O2  UNL     1      24.458  -0.046  52.868  1.00  0.00    -0.353 OA
HETATM   12  C11 UNL     1      23.246   0.649  52.899  1.00  0.00     0.318 C 
HETATM   13  O3  UNL     1      22.260  -0.291  53.085  1.00  0.00    -0.353 OA
HETATM   14  C12 UNL     1      21.470   0.053  54.188  1.00  0.00     0.197 C 
HETATM   15  C13 UNL     1      20.264  -0.913  54.194  1.00  0.00     0.194 C 
HETATM   16  O4  UNL     1      19.600  -0.741  52.974  1.00  0.00    -0.381 OA
HETATM   17  C14 UNL     1      18.327  -0.925  52.569  1.00  0.00     0.151 C 
HETATM   18  C15 UNL     1      18.823  -0.076  51.638  1.00  0.00     0.014 C 
HETATM   19  C16 UNL     1      20.198   0.498  51.548  1.00  0.00     0.082 C 
ENDROOT
BRANCH   1  20
HETATM   20  N1  UNL     1      23.808   3.111  49.779  1.00  0.00    -0.339 N 
HETATM   21  H4  UNL     1      24.628   2.496  49.620  1.00  0.00     0.167 HD
BRANCH  20  22
HETATM   22  C3  UNL     1      23.951   4.541  49.879  1.00  0.00     0.051 C 
HETATM   23  C2  UNL     1      24.525   5.165  48.889  1.00  0.00     0.036 C 
HETATM   24  S1  UNL     1      23.669   6.428  48.360  1.00  0.00    -0.183 SA
HETATM   25  C1  UNL     1      22.664   6.098  46.866  1.00  0.00     0.084 C 
HETATM   26  C19 UNL     1      22.807   7.294  49.721  1.00  0.00     0.095 C 
HETATM   27  C18 UNL     1      22.980   6.466  50.921  1.00  0.00    -0.015 C 
HETATM   28  C17 UNL     1      23.476   5.254  51.046  1.00  0.00     0.027 C 
ENDBRANCH  20  22
ENDBRANCH   1  20
TORSDOF 2
ENDMDL
