MODEL 1
REMARK VINA RESULT:      -9.3      0.000      0.000
REMARK  1 active torsions:
REMARK  status: ('A' for Active; 'I' for Inactive)
REMARK    1  A    between atoms: N1_1  and  C1_2 
REMARK       I    between atoms: C5_7  and  N3_8 
ROOT
HETATM    1  C1  UNL     1      22.154   1.692  50.164  1.00  0.00     0.003 C 
HETATM    2  C2  UNL     1      23.056   2.564  49.874  1.00  0.00     0.003 C 
HETATM    3  C3  UNL     1      23.462   3.712  49.074  1.00  0.00     0.076 C 
HETATM    4  C4  UNL     1      23.780   4.901  49.941  1.00  0.00     0.113 C 
HETATM    5  N2  UNL     1      24.216   5.021  51.175  1.00  0.00    -0.079 NA
HETATM    6  C5  UNL     1      24.448   3.776  51.874  1.00  0.00     0.720 C 
HETATM    7  N3  UNL     1      25.597   3.385  51.085  1.00  0.00    -0.231 N 
HETATM    8  N4  UNL     1      24.055   3.004  52.860  1.00  0.00    -0.065 NA
HETATM    9  C6  UNL     1      24.767   1.750  53.060  1.00  0.00     0.084 C 
HETATM   10  C7  UNL     1      24.141   0.577  53.028  1.00  0.00     0.065 C 
HETATM   11  N5  UNL     1      24.908  -0.647  53.225  1.00  0.00    -0.384 N 
HETATM   12  C8  UNL     1      26.316  -1.072  53.180  1.00  0.00     0.147 C 
HETATM   13  C9  UNL     1      27.126  -0.063  52.496  1.00  0.00    -0.011 C 
HETATM   14  C10 UNL     1      27.136   1.243  52.500  1.00  0.00    -0.023 C 
HETATM   15  C11 UNL     1      26.196   2.055  53.311  1.00  0.00     0.089 C 
HETATM   16  C12 UNL     1      22.737   0.177  52.886  1.00  0.00    -0.001 A 
HETATM   17  C13 UNL     1      22.526  -0.413  54.160  1.00  0.00     0.014 A 
HETATM   18  C14 UNL     1      21.360  -1.010  54.689  1.00  0.00     0.001 A 
HETATM   19  C15 UNL     1      20.288  -1.007  53.825  1.00  0.00     0.001 A 
HETATM   20  C16 UNL     1      20.483  -0.436  52.585  1.00  0.00     0.008 A 
HETATM   21  C17 UNL     1      21.639   0.161  52.049  1.00  0.00    -0.040 A 
HETATM   22  C18 UNL     1      21.294   0.645  50.696  1.00  0.00     0.095 C 
HETATM   23  H7  UNL     1      25.911   2.700  50.342  1.00  0.00     0.174 HD
HETATM   24  H8  UNL     1      26.600   3.541  50.841  1.00  0.00     0.174 HD
HETATM   25  H9  UNL     1      24.318  -1.506  53.472  1.00  0.00     0.160 HD
ENDROOT
BRANCH   1  26
HETATM   26  N1  UNL     1      21.471   2.443  49.120  1.00  0.00    -0.402 N 
HETATM   27  H1  UNL     1      21.187   3.399  48.781  1.00  0.00     0.156 HD
HETATM   28  H2  UNL     1      20.982   2.979  48.371  1.00  0.00     0.156 HD
ENDBRANCH   1  26
TORSDOF 1
ENDMDL
MODEL 2
REMARK VINA RESULT:      -8.5      1.545      4.608
REMARK  1 active torsions:
REMARK  status: ('A' for Active; 'I' for Inactive)
REMARK    1  A    between atoms: N1_1  and  C1_2 
REMARK       I    between atoms: C5_7  and  N3_8 
ROOT
HETATM    1  C1  UNL     1      23.597   4.041  52.800  1.00  0.00     0.003 C 
HETATM    2  C2  UNL     1      22.528   4.348  52.150  1.00  0.00     0.003 C 
HETATM    3  C3  UNL     1      21.739   5.364  51.467  1.00  0.00     0.076 C 
HETATM    4  C4  UNL     1      21.510   5.003  50.023  1.00  0.00     0.113 C 
HETATM    5  N2  UNL     1      21.438   3.856  49.386  1.00  0.00    -0.079 NA
HETATM    6  C5  UNL     1      21.609   2.678  50.208  1.00  0.00     0.720 C 
HETATM    7  N3  UNL     1      20.353   2.818  50.915  1.00  0.00    -0.231 N 
HETATM    8  N4  UNL     1      22.383   1.652  50.472  1.00  0.00    -0.065 NA
HETATM    9  C6  UNL     1      21.958   0.739  51.525  1.00  0.00     0.084 C 
HETATM   10  C7  UNL     1      22.718   0.496  52.588  1.00  0.00     0.065 C 
HETATM   11  N5  UNL     1      22.235  -0.420  53.615  1.00  0.00    -0.384 N 
HETATM   12  C8  UNL     1      20.955  -1.014  54.033  1.00  0.00     0.147 C 
HETATM   13  C9  UNL     1      19.839  -0.286  53.429  1.00  0.00    -0.011 C 
HETATM   14  C10 UNL     1      19.634   0.238  52.251  1.00  0.00    -0.023 C 
HETATM   15  C11 UNL     1      20.634   0.182  51.157  1.00  0.00     0.089 C 
HETATM   16  C12 UNL     1      24.064   0.913  52.995  1.00  0.00    -0.001 A 
HETATM   17  C13 UNL     1      24.722  -0.345  52.972  1.00  0.00     0.014 A 
HETATM   18  C14 UNL     1      26.067  -0.658  53.268  1.00  0.00     0.001 A 
HETATM   19  C15 UNL     1      26.829   0.431  53.627  1.00  0.00     0.001 A 
HETATM   20  C16 UNL     1      26.199   1.657  53.652  1.00  0.00     0.008 A 
HETATM   21  C17 UNL     1      24.861   1.979  53.358  1.00  0.00    -0.040 A 
HETATM   22  C18 UNL     1      24.722   3.443  53.504  1.00  0.00     0.095 C 
HETATM   23  H7  UNL     1      19.945   3.071  51.858  1.00  0.00     0.174 HD
HETATM   24  H8  UNL     1      19.312   2.761  50.892  1.00  0.00     0.174 HD
HETATM   25  H9  UNL     1      22.994  -0.787  54.275  1.00  0.00     0.160 HD
ENDROOT
BRANCH   1  26
HETATM   26  N1  UNL     1      23.826   5.461  52.568  1.00  0.00    -0.402 N 
HETATM   27  H1  UNL     1      23.491   6.439  52.768  1.00  0.00     0.156 HD
HETATM   28  H2  UNL     1      23.991   6.476  52.401  1.00  0.00     0.156 HD
ENDBRANCH   1  26
TORSDOF 1
ENDMDL
MODEL 3
REMARK VINA RESULT:      -8.2      1.923      4.209
REMARK  1 active torsions:
REMARK  status: ('A' for Active; 'I' for Inactive)
REMARK    1  A    between atoms: N1_1  and  C1_2 
REMARK       I    between atoms: C5_7  and  N3_8 
ROOT
HETATM    1  C1  UNL     1      22.151   0.217  52.383  1.00  0.00     0.003 C 
HETATM    2  C2  UNL     1      21.350   1.029  51.786  1.00  0.00     0.003 C 
HETATM    3  C3  UNL     1      19.987   1.367  51.397  1.00  0.00     0.076 C 
HETATM    4  C4  UNL     1      19.564   2.692  51.973  1.00  0.00     0.113 C 
HETATM    5  N2  UNL     1      20.226   3.773  52.320  1.00  0.00    -0.079 NA
HETATM    6  C5  UNL     1      21.658   3.712  52.122  1.00  0.00     0.720 C 
HETATM    7  N3  UNL     1      21.599   3.732  50.676  1.00  0.00    -0.231 N 
HETATM    8  N4  UNL     1      22.827   3.686  52.716  1.00  0.00    -0.065 NA
HETATM    9  C6  UNL     1      24.011   3.607  51.872  1.00  0.00     0.084 C 
HETATM   10  C7  UNL     1      24.887   2.614  51.987  1.00  0.00     0.065 C 
HETATM   11  N5  UNL     1      26.050   2.582  51.107  1.00  0.00    -0.384 N 
HETATM   12  C8  UNL     1      26.477   3.197  49.840  1.00  0.00     0.147 C 
HETATM   13  C9  UNL     1      25.326   3.782  49.150  1.00  0.00    -0.011 C 
HETATM   14  C10 UNL     1      24.277   4.450  49.548  1.00  0.00    -0.023 C 
HETATM   15  C11 UNL     1      24.025   4.785  50.972  1.00  0.00     0.089 C 
HETATM   16  C12 UNL     1      25.016   1.470  52.896  1.00  0.00    -0.001 A 
HETATM   17  C13 UNL     1      26.223   1.823  53.556  1.00  0.00     0.014 A 
HETATM   18  C14 UNL     1      26.923   1.135  54.572  1.00  0.00     0.001 A 
HETATM   19  C15 UNL     1      26.328  -0.044  54.961  1.00  0.00     0.001 A 
HETATM   20  C16 UNL     1      25.156  -0.395  54.326  1.00  0.00     0.008 A 
HETATM   21  C17 UNL     1      24.451   0.282  53.315  1.00  0.00    -0.040 A 
HETATM   22  C18 UNL     1      23.239  -0.511  53.019  1.00  0.00     0.095 C 
HETATM   23  H7  UNL     1      21.740   3.121  49.822  1.00  0.00     0.174 HD
HETATM   24  H8  UNL     1      21.410   4.271  49.803  1.00  0.00     0.174 HD
HETATM   25  H9  UNL     1      26.840   1.941  51.438  1.00  0.00     0.160 HD
ENDROOT
BRANCH   1  26
HETATM   26  N1  UNL     1      20.879  -0.458  52.601  1.00  0.00    -0.402 N 
HETATM   27  H1  UNL     1      19.836  -0.341  52.679  1.00  0.00     0.156 HD
HETATM   28  H2  UNL     1      19.969  -0.942  52.757  1.00  0.00     0.156 HD
ENDBRANCH   1  26
TORSDOF 1
ENDMDL
MODEL 4
REMARK VINA RESULT:      -7.9      2.703      6.252
REMARK  1 active torsions:
REMARK  status: ('A' for Active; 'I' for Inactive)
REMARK    1  A    between atoms: N1_1  and  C1_2 
REMARK       I    between atoms: C5_7  and  N3_8 
ROOT
HETATM    1  C1  UNL     1      23.526   7.203  50.063  1.00  0.00     0.003 C 
HETATM    2  C2  UNL     1      22.374   6.683  50.309  1.00  0.00     0.003 C 
HETATM    3  C3  UNL     1      20.928   6.848  50.386  1.00  0.00     0.076 C 
HETATM    4  C4  UNL     1      20.217   5.916  49.442  1.00  0.00     0.113 C 
HETATM    5  N2  UNL     1      20.521   4.737  48.945  1.00  0.00    -0.079 NA
HETATM    6  C5  UNL     1      21.793   4.195  49.371  1.00  0.00     0.720 C 
HETATM    7  N3  UNL     1      21.390   3.955  50.741  1.00  0.00    -0.231 N 
HETATM    8  N4  UNL     1      23.003   3.859  48.991  1.00  0.00    -0.065 NA
HETATM    9  C6  UNL     1      23.903   3.321  50.002  1.00  0.00     0.084 C 
HETATM   10  C7  UNL     1      25.072   3.893  50.273  1.00  0.00     0.065 C 
HETATM   11  N5  UNL     1      25.927   3.314  51.302  1.00  0.00    -0.384 N 
HETATM   12  C8  UNL     1      25.798   2.376  52.428  1.00  0.00     0.147 C 
HETATM   13  C9  UNL     1      24.387   2.183  52.765  1.00  0.00    -0.011 C 
HETATM   14  C10 UNL     1      23.297   2.060  52.057  1.00  0.00    -0.023 C 
HETATM   15  C11 UNL     1      23.289   2.099  50.573  1.00  0.00     0.089 C 
HETATM   16  C12 UNL     1      25.805   5.030  49.706  1.00  0.00    -0.001 A 
HETATM   17  C13 UNL     1      26.931   4.348  49.174  1.00  0.00     0.014 A 
HETATM   18  C14 UNL     1      28.047   4.866  48.481  1.00  0.00     0.001 A 
HETATM   19  C15 UNL     1      28.014   6.232  48.309  1.00  0.00     0.001 A 
HETATM   20  C16 UNL     1      26.924   6.903  48.821  1.00  0.00     0.008 A 
HETATM   21  C17 UNL     1      25.808   6.396  49.511  1.00  0.00    -0.040 A 
HETATM   22  C18 UNL     1      24.918   7.540  49.802  1.00  0.00     0.095 C 
HETATM   23  H7  UNL     1      21.528   4.306  51.730  1.00  0.00     0.174 HD
HETATM   24  H8  UNL     1      20.822   3.394  51.413  1.00  0.00     0.174 HD
HETATM   25  H9  UNL     1      26.947   3.639  51.266  1.00  0.00     0.160 HD
ENDROOT
BRANCH   1  26
HETATM   26  N1  UNL     1      22.661   8.351  49.824  1.00  0.00    -0.402 N 
HETATM   27  H1  UNL     1      22.608   9.400  49.766  1.00  0.00     0.156 HD
HETATM   28  H2  UNL     1      22.042   9.171  49.654  1.00  0.00     0.156 HD
ENDBRANCH   1  26
TORSDOF 1
ENDMDL
MODEL 5
REMARK VINA RESULT:      -7.8      2.153      3.453
REMARK  1 active torsions:
REMARK  status: ('A' for Active; 'I' for Inactive)
REMARK    1  A    between atoms: N1_1  and  C1_2 
REMARK       I    between atoms: C5_7  and  N3_8 
ROOT
HETATM    1  C1  UNL     1      21.138   2.296  48.430  1.00  0.00     0.003 C 
HETATM    2  C2  UNL     1      21.351   3.423  47.845  1.00  0.00     0.003 C 
HETATM    3  C3  UNL     1      20.918   4.420  46.874  1.00  0.00     0.076 C 
HETATM    4  C4  UNL     1      20.676   5.754  47.527  1.00  0.00     0.113 C 
HETATM    5  N2  UNL     1      21.178   6.337  48.593  1.00  0.00    -0.079 NA
HETATM    6  C5  UNL     1      22.169   5.566  49.311  1.00  0.00     0.720 C 
HETATM    7  N3  UNL     1      23.190   5.664  48.289  1.00  0.00    -0.231 N 
HETATM    8  N4  UNL     1      22.438   4.928  50.426  1.00  0.00    -0.065 NA
HETATM    9  C6  UNL     1      23.742   4.291  50.541  1.00  0.00     0.084 C 
HETATM   10  C7  UNL     1      23.865   2.987  50.770  1.00  0.00     0.065 C 
HETATM   11  N5  UNL     1      25.197   2.402  50.866  1.00  0.00    -0.384 N 
HETATM   12  C8  UNL     1      26.576   2.761  50.497  1.00  0.00     0.147 C 
HETATM   13  C9  UNL     1      26.571   3.873  49.546  1.00  0.00    -0.011 C 
HETATM   14  C10 UNL     1      25.864   4.966  49.437  1.00  0.00    -0.023 C 
HETATM   15  C11 UNL     1      24.788   5.330  50.391  1.00  0.00     0.089 C 
HETATM   16  C12 UNL     1      22.910   1.903  51.028  1.00  0.00    -0.001 A 
HETATM   17  C13 UNL     1      23.277   1.571  52.359  1.00  0.00     0.014 A 
HETATM   18  C14 UNL     1      22.740   0.587  53.217  1.00  0.00     0.001 A 
HETATM   19  C15 UNL     1      21.713  -0.141  52.660  1.00  0.00     0.001 A 
HETATM   20  C16 UNL     1      21.348   0.175  51.369  1.00  0.00     0.008 A 
HETATM   21  C17 UNL     1      21.877   1.152  50.506  1.00  0.00    -0.040 A 
HETATM   22  C18 UNL     1      21.098   1.094  49.251  1.00  0.00     0.095 C 
HETATM   23  H7  UNL     1      23.695   5.098  47.551  1.00  0.00     0.174 HD
HETATM   24  H8  UNL     1      23.884   6.256  47.784  1.00  0.00     0.174 HD
HETATM   25  H9  UNL     1      25.227   1.437  51.328  1.00  0.00     0.160 HD
ENDROOT
BRANCH   1  26
HETATM   26  N1  UNL     1      19.990   2.351  47.536  1.00  0.00    -0.402 N 
HETATM   27  H1  UNL     1      19.408   2.963  46.906  1.00  0.00     0.156 HD
HETATM   28  H2  UNL     1      19.167   2.390  46.897  1.00  0.00     0.156 HD
ENDBRANCH   1  26
TORSDOF 1
ENDMDL
MODEL 6
REMARK VINA RESULT:      -7.7      3.363      7.786
REMARK  1 active torsions:
REMARK  status: ('A' for Active; 'I' for Inactive)
REMARK    1  A    between atoms: N1_1  and  C1_2 
REMARK       I    between atoms: C5_7  and  N3_8 
ROOT
HETATM    1  C1  UNL     1      26.021   3.537  50.037  1.00  0.00     0.003 C 
HETATM    2  C2  UNL     1      24.953   3.358  50.735  1.00  0.00     0.003 C 
HETATM    3  C3  UNL     1      24.258   2.605  51.770  1.00  0.00     0.076 C 
HETATM    4  C4  UNL     1      23.857   3.490  52.919  1.00  0.00     0.113 C 
HETATM    5  N2  UNL     1      23.570   4.770  53.009  1.00  0.00    -0.079 NA
HETATM    6  C5  UNL     1      23.646   5.510  51.768  1.00  0.00     0.720 C 
HETATM    7  N3  UNL     1      22.487   4.886  51.163  1.00  0.00    -0.231 N 
HETATM    8  N4  UNL     1      24.288   6.444  51.109  1.00  0.00    -0.065 NA
HETATM    9  C6  UNL     1      23.832   6.754  49.761  1.00  0.00     0.084 C 
HETATM   10  C7  UNL     1      24.640   6.654  48.709  1.00  0.00     0.065 C 
HETATM   11  N5  UNL     1      24.125   6.968  47.382  1.00  0.00    -0.384 N 
HETATM   12  C8  UNL     1      22.815   7.117  46.726  1.00  0.00     0.147 C 
HETATM   13  C9  UNL     1      21.764   6.535  47.560  1.00  0.00    -0.011 C 
HETATM   14  C10 UNL     1      21.532   6.522  48.846  1.00  0.00    -0.023 C 
HETATM   15  C11 UNL     1      22.417   7.190  49.832  1.00  0.00     0.089 C 
HETATM   16  C12 UNL     1      26.061   6.331  48.544  1.00  0.00    -0.001 A 
HETATM   17  C13 UNL     1      26.533   7.574  48.043  1.00  0.00     0.014 A 
HETATM   18  C14 UNL     1      27.841   7.950  47.668  1.00  0.00     0.001 A 
HETATM   19  C15 UNL     1      28.776   6.950  47.820  1.00  0.00     0.001 A 
HETATM   20  C16 UNL     1      28.328   5.740  48.305  1.00  0.00     0.008 A 
HETATM   21  C17 UNL     1      27.028   5.356  48.682  1.00  0.00    -0.040 A 
HETATM   22  C18 UNL     1      27.108   3.963  49.168  1.00  0.00     0.095 C 
HETATM   23  H7  UNL     1      22.202   4.201  50.409  1.00  0.00     0.174 HD
HETATM   24  H8  UNL     1      21.450   4.777  51.140  1.00  0.00     0.174 HD
HETATM   25  H9  UNL     1      24.879   7.146  46.643  1.00  0.00     0.160 HD
ENDROOT
BRANCH   1  26
HETATM   26  N1  UNL     1      26.425   2.400  50.854  1.00  0.00    -0.402 N 
HETATM   27  H1  UNL     1      26.605   2.054  51.832  1.00  0.00     0.156 HD
HETATM   28  H2  UNL     1      26.714   1.586  51.437  1.00  0.00     0.156 HD
ENDBRANCH   1  26
TORSDOF 1
ENDMDL
MODEL 7
REMARK VINA RESULT:      -7.5      2.088      4.949
REMARK  1 active torsions:
REMARK  status: ('A' for Active; 'I' for Inactive)
REMARK    1  A    between atoms: N1_1  and  C1_2 
REMARK       I    between atoms: C5_7  and  N3_8 
ROOT
HETATM    1  C1  UNL     1      22.464   4.957  51.951  1.00  0.00     0.003 C 
HETATM    2  C2  UNL     1      21.517   5.151  51.100  1.00  0.00     0.003 C 
HETATM    3  C3  UNL     1      20.801   6.073  50.228  1.00  0.00     0.076 C 
HETATM    4  C4  UNL     1      20.873   5.636  48.789  1.00  0.00     0.113 C 
HETATM    5  N2  UNL     1      21.003   4.462  48.213  1.00  0.00    -0.079 NA
HETATM    6  C5  UNL     1      21.100   3.336  49.115  1.00  0.00     0.720 C 
HETATM    7  N3  UNL     1      19.727   3.404  49.570  1.00  0.00    -0.231 N 
HETATM    8  N4  UNL     1      21.880   2.386  49.574  1.00  0.00    -0.065 NA
HETATM    9  C6  UNL     1      21.330   1.486  50.578  1.00  0.00     0.084 C 
HETATM   10  C7  UNL     1      21.892   1.347  51.775  1.00  0.00     0.065 C 
HETATM   11  N5  UNL     1      21.291   0.438  52.744  1.00  0.00    -0.384 N 
HETATM   12  C8  UNL     1      20.000  -0.238  52.951  1.00  0.00     0.147 C 
HETATM   13  C9  UNL     1      18.969   0.374  52.113  1.00  0.00    -0.011 C 
HETATM   14  C10 UNL     1      18.952   0.831  50.890  1.00  0.00    -0.023 C 
HETATM   15  C11 UNL     1      20.142   0.811  50.003  1.00  0.00     0.089 C 
HETATM   16  C12 UNL     1      23.105   1.886  52.399  1.00  0.00    -0.001 A 
HETATM   17  C13 UNL     1      23.843   0.684  52.567  1.00  0.00     0.014 A 
HETATM   18  C14 UNL     1      25.127   0.492  53.123  1.00  0.00     0.001 A 
HETATM   19  C15 UNL     1      25.729   1.651  53.556  1.00  0.00     0.001 A 
HETATM   20  C16 UNL     1      25.021   2.824  53.397  1.00  0.00     0.008 A 
HETATM   21  C17 UNL     1      23.743   3.026  52.845  1.00  0.00    -0.040 A 
HETATM   22  C18 UNL     1      23.475   4.479  52.882  1.00  0.00     0.095 C 
HETATM   23  H7  UNL     1      19.132   3.662  50.407  1.00  0.00     0.174 HD
HETATM   24  H8  UNL     1      18.715   3.264  49.359  1.00  0.00     0.174 HD
HETATM   25  H9  UNL     1      21.936   0.160  53.551  1.00  0.00     0.160 HD
ENDROOT
BRANCH   1  26
HETATM   26  N1  UNL     1      22.632   6.380  51.688  1.00  0.00    -0.402 N 
HETATM   27  H1  UNL     1      22.693   7.124  50.947  1.00  0.00     0.156 HD
HETATM   28  H2  UNL     1      22.752   7.398  51.501  1.00  0.00     0.156 HD
ENDBRANCH   1  26
TORSDOF 1
ENDMDL
MODEL 8
REMARK VINA RESULT:      -7.4      7.775     11.217
REMARK  1 active torsions:
REMARK  status: ('A' for Active; 'I' for Inactive)
REMARK    1  A    between atoms: N1_1  and  C1_2 
REMARK       I    between atoms: C5_7  and  N3_8 
ROOT
HETATM    1  C1  UNL     1      28.982   6.019  48.201  1.00  0.00     0.003 C 
HETATM    2  C2  UNL     1      27.954   6.784  48.329  1.00  0.00     0.003 C 
HETATM    3  C3  UNL     1      26.547   6.923  48.681  1.00  0.00     0.076 C 
HETATM    4  C4  UNL     1      26.359   7.879  49.828  1.00  0.00     0.113 C 
HETATM    5  N2  UNL     1      27.045   8.915  50.254  1.00  0.00    -0.079 NA
HETATM    6  C5  UNL     1      28.232   9.230  49.489  1.00  0.00     0.720 C 
HETATM    7  N3  UNL     1      27.521   9.683  48.311  1.00  0.00    -0.231 N 
HETATM    8  N4  UNL     1      29.543   9.274  49.503  1.00  0.00    -0.065 NA
HETATM    9  C6  UNL     1      30.216   9.719  48.290  1.00  0.00     0.084 C 
HETATM   10  C7  UNL     1      31.102   8.953  47.662  1.00  0.00     0.065 C 
HETATM   11  N5  UNL     1      31.738   9.447  46.446  1.00  0.00    -0.384 N 
HETATM   12  C8  UNL     1      31.507  10.502  45.445  1.00  0.00     0.147 C 
HETATM   13  C9  UNL     1      30.139  11.008  45.552  1.00  0.00    -0.011 C 
HETATM   14  C10 UNL     1      29.350  11.277  46.558  1.00  0.00    -0.023 C 
HETATM   15  C11 UNL     1      29.754  11.091  47.973  1.00  0.00     0.089 C 
HETATM   16  C12 UNL     1      31.694   7.640  47.942  1.00  0.00    -0.001 A 
HETATM   17  C13 UNL     1      33.047   8.023  48.137  1.00  0.00     0.014 A 
HETATM   18  C14 UNL     1      34.168   7.222  48.446  1.00  0.00     0.001 A 
HETATM   19  C15 UNL     1      33.882   5.881  48.570  1.00  0.00     0.001 A 
HETATM   20  C16 UNL     1      32.571   5.500  48.382  1.00  0.00     0.008 A 
HETATM   21  C17 UNL     1      31.447   6.288  48.075  1.00  0.00    -0.040 A 
HETATM   22  C18 UNL     1      30.280   5.384  48.021  1.00  0.00     0.095 C 
HETATM   23  H7  UNL     1      27.292   9.413  47.314  1.00  0.00     0.174 HD
HETATM   24  H8  UNL     1      26.926  10.413  47.860  1.00  0.00     0.174 HD
HETATM   25  H9  UNL     1      32.627   8.922  46.164  1.00  0.00     0.160 HD
ENDROOT
BRANCH   1  26
HETATM   26  N1  UNL     1      27.988   5.052  48.644  1.00  0.00    -0.402 N 
HETATM   27  H1  UNL     1      27.042   4.630  48.454  1.00  0.00     0.156 HD
HETATM   28  H2  UNL     1      27.276   4.359  48.961  1.00  0.00     0.156 HD
ENDBRANCH   1  26
TORSDOF 1
ENDMDL
MODEL 9
REMARK VINA RESULT:      -7.3      9.244     12.017
REMARK  1 active torsions:
REMARK  status: ('A' for Active; 'I' for Inactive)
REMARK    1  A    between atoms: N1_1  and  C1_2 
REMARK       I    between atoms: C5_7  and  N3_8 
ROOT
HETATM    1  C1  UNL     1      30.173   6.043  47.854  1.00  0.00     0.003 C 
HETATM    2  C2  UNL     1      29.858   7.287  47.958  1.00  0.00     0.003 C 
HETATM    3  C3  UNL     1      28.917   8.294  48.431  1.00  0.00     0.076 C 
HETATM    4  C4  UNL     1      29.568   9.239  49.406  1.00  0.00     0.113 C 
HETATM    5  N2  UNL     1      30.806   9.652  49.566  1.00  0.00    -0.079 NA
HETATM    6  C5  UNL     1      31.766   9.107  48.632  1.00  0.00     0.720 C 
HETATM    7  N3  UNL     1      31.258   9.818  47.478  1.00  0.00    -0.231 N 
HETATM    8  N4  UNL     1      32.813   8.328  48.495  1.00  0.00    -0.065 NA
HETATM    9  C6  UNL     1      33.367   8.171  47.157  1.00  0.00     0.084 C 
HETATM   10  C7  UNL     1      33.473   6.978  46.580  1.00  0.00     0.065 C 
HETATM   11  N5  UNL     1      34.027   6.884  45.234  1.00  0.00    -0.384 N 
HETATM   12  C8  UNL     1      34.286   7.779  44.095  1.00  0.00     0.147 C 
HETATM   13  C9  UNL     1      33.548   9.032  44.260  1.00  0.00    -0.011 C 
HETATM   14  C10 UNL     1      33.292   9.803  45.283  1.00  0.00    -0.023 C 
HETATM   15  C11 UNL     1      33.770   9.507  46.656  1.00  0.00     0.089 C 
HETATM   16  C12 UNL     1      33.199   5.606  47.020  1.00  0.00    -0.001 A 
HETATM   17  C13 UNL     1      34.517   5.079  46.996  1.00  0.00     0.014 A 
HETATM   18  C14 UNL     1      34.968   3.779  47.316  1.00  0.00     0.001 A 
HETATM   19  C15 UNL     1      33.966   2.919  47.704  1.00  0.00     0.001 A 
HETATM   20  C16 UNL     1      32.683   3.422  47.731  1.00  0.00     0.008 A 
HETATM   21  C17 UNL     1      32.224   4.714  47.415  1.00  0.00    -0.040 A 
HETATM   22  C18 UNL     1      30.764   4.728  47.648  1.00  0.00     0.095 C 
HETATM   23  H7  UNL     1      30.724   9.679  46.575  1.00  0.00     0.174 HD
HETATM   24  H8  UNL     1      31.146  10.725  46.974  1.00  0.00     0.174 HD
HETATM   25  H9  UNL     1      34.347   5.902  44.953  1.00  0.00     0.160 HD
ENDROOT
BRANCH   1  26
HETATM   26  N1  UNL     1      28.907   5.936  48.566  1.00  0.00    -0.402 N 
HETATM   27  H1  UNL     1      28.342   6.272  49.388  1.00  0.00     0.156 HD
HETATM   28  H2  UNL     1      28.001   5.859  49.075  1.00  0.00     0.156 HD
ENDBRANCH   1  26
TORSDOF 1
ENDMDL
