MODEL 1
REMARK VINA RESULT:      -7.9      0.000      0.000
REMARK  5 active torsions:
REMARK  status: ('A' for Active; 'I' for Inactive)
REMARK    1  A    between atoms: C2_2  and  C22_28 
REMARK    2  A    between atoms: C3_3  and  C4_4 
REMARK    3  A    between atoms: C4_4  and  N1_5 
REMARK    4  A    between atoms: N1_5  and  C5_6 
REMARK    5  A    between atoms: C16_21  and  N4_22 
ROOT
HETATM    1  C5  UNL     1      24.205   2.914  52.200  1.00  0.00     0.232 C 
HETATM    2  N2  UNL     1      24.214   1.964  53.359  1.00  0.00    -0.275 NA
HETATM    3  C6  UNL     1      23.500   0.847  53.403  1.00  0.00     0.095 C 
HETATM    4  C7  UNL     1      22.374   0.786  52.583  1.00  0.00     0.055 C 
HETATM    5  C8  UNL     1      21.477  -0.155  51.970  1.00  0.00     0.019 C 
HETATM    6  C9  UNL     1      20.276   0.393  52.034  1.00  0.00     0.078 C 
HETATM    7  O1  UNL     1      19.711   1.612  52.613  1.00  0.00    -0.264 OA
HETATM    8  C10 UNL     1      20.190   2.607  51.604  1.00  0.00     0.371 C 
HETATM    9  O2  UNL     1      19.683   3.207  52.372  1.00  0.00    -0.238 OA
HETATM   10  N3  UNL     1      20.939   2.463  50.331  1.00  0.00    -0.303 N 
HETATM   11  C11 UNL     1      21.969   3.293  50.790  1.00  0.00     0.103 C 
HETATM   12  C12 UNL     1      23.004   2.818  51.487  1.00  0.00    -0.020 C 
HETATM   13  C13 UNL     1      23.059   1.402  51.276  1.00  0.00     0.053 C 
HETATM   14  C14 UNL     1      20.107   1.638  49.646  1.00  0.00     0.136 C 
HETATM   15  C15 UNL     1      18.888   1.032  50.235  1.00  0.00     0.052 C 
HETATM   16  C16 UNL     1      19.041  -0.076  51.355  1.00  0.00     0.138 C 
ENDROOT
BRANCH   1  17
HETATM   17  N1  UNL     1      25.386   2.638  51.477  1.00  0.00    -0.394 N 
HETATM   18  H7  UNL     1      25.401   2.890  50.493  1.00  0.00     0.155 HD
BRANCH  17  19
HETATM   19  C4  UNL     1      26.546   2.176  52.103  1.00  0.00     0.144 C 
BRANCH  19  20
HETATM   20  C3  UNL     1      26.900   0.771  51.945  1.00  0.00    -0.003 C 
HETATM   21  C2  UNL     1      27.165  -0.042  52.990  1.00  0.00    -0.058 C 
HETATM   22  C1  UNL     1      27.188   0.174  54.476  1.00  0.00     0.045 C 
BRANCH  21  23
HETATM   23  C22 UNL     1      27.539  -1.496  52.831  1.00  0.00     0.256 C 
HETATM   24  F1  UNL     1      26.639  -2.083  51.975  1.00  0.00    -0.251 F 
ENDBRANCH  21  23
ENDBRANCH  19  20
ENDBRANCH  17  19
ENDBRANCH   1  17
BRANCH  16  25
HETATM   25  N4  UNL     1      17.974  -0.142  52.174  1.00  0.00    -0.402 N 
HETATM   26  C17 UNL     1      18.005  -0.979  53.320  1.00  0.00     0.117 C 
HETATM   27  C18 UNL     1      17.317  -2.268  52.968  1.00  0.00     0.019 C 
HETATM   28  C19 UNL     1      15.958  -2.059  52.431  1.00  0.00     0.003 C 
HETATM   29  C20 UNL     1      15.587  -0.704  51.954  1.00  0.00     0.019 C 
HETATM   30  C21 UNL     1      16.692   0.320  51.935  1.00  0.00     0.117 C 
ENDBRANCH  16  25
TORSDOF 5
ENDMDL
MODEL 2
REMARK VINA RESULT:      -7.9      3.098      6.063
REMARK  5 active torsions:
REMARK  status: ('A' for Active; 'I' for Inactive)
REMARK    1  A    between atoms: C2_2  and  C22_28 
REMARK    2  A    between atoms: C3_3  and  C4_4 
REMARK    3  A    between atoms: C4_4  and  N1_5 
REMARK    4  A    between atoms: N1_5  and  C5_6 
REMARK    5  A    between atoms: C16_21  and  N4_22 
ROOT
HETATM    1  C5  UNL     1      22.943   0.770  53.437  1.00  0.00     0.232 C 
HETATM    2  N2  UNL     1      21.647   0.574  52.711  1.00  0.00    -0.275 NA
HETATM    3  C6  UNL     1      21.473   0.849  51.425  1.00  0.00     0.095 C 
HETATM    4  C7  UNL     1      22.350   1.769  50.853  1.00  0.00     0.055 C 
HETATM    5  C8  UNL     1      22.863   2.194  49.579  1.00  0.00     0.019 C 
HETATM    6  C9  UNL     1      22.975   3.509  49.653  1.00  0.00     0.078 C 
HETATM    7  O1  UNL     1      22.643   4.534  50.642  1.00  0.00    -0.264 OA
HETATM    8  C10 UNL     1      23.765   4.314  51.608  1.00  0.00     0.371 C 
HETATM    9  O2  UNL     1      23.143   5.091  52.073  1.00  0.00    -0.238 OA
HETATM   10  N3  UNL     1      24.941   3.409  51.589  1.00  0.00    -0.303 N 
HETATM   11  C11 UNL     1      24.552   2.802  52.790  1.00  0.00     0.103 C 
HETATM   12  C12 UNL     1      23.714   1.762  52.818  1.00  0.00    -0.020 C 
HETATM   13  C13 UNL     1      23.687   1.187  51.506  1.00  0.00     0.053 C 
HETATM   14  C14 UNL     1      25.540   3.805  50.437  1.00  0.00     0.136 C 
HETATM   15  C15 UNL     1      24.947   4.797  49.506  1.00  0.00     0.052 C 
HETATM   16  C16 UNL     1      23.654   4.406  48.683  1.00  0.00     0.138 C 
ENDROOT
BRANCH   1  17
HETATM   17  N1  UNL     1      23.525  -0.512  53.524  1.00  0.00    -0.394 N 
HETATM   18  H7  UNL     1      23.410  -1.132  52.728  1.00  0.00     0.155 HD
BRANCH  17  19
HETATM   19  C4  UNL     1      24.354  -0.879  54.588  1.00  0.00     0.144 C 
BRANCH  19  20
HETATM   20  C3  UNL     1      25.671  -0.265  54.677  1.00  0.00    -0.003 C 
HETATM   21  C2  UNL     1      26.641  -0.471  53.759  1.00  0.00    -0.058 C 
HETATM   22  C1  UNL     1      26.704  -1.286  52.500  1.00  0.00     0.045 C 
BRANCH  21  23
HETATM   23  C22 UNL     1      28.011   0.158  53.852  1.00  0.00     0.256 C 
HETATM   24  F1  UNL     1      28.577  -0.213  55.047  1.00  0.00    -0.251 F 
ENDBRANCH  21  23
ENDBRANCH  19  20
ENDBRANCH  17  19
ENDBRANCH   1  17
BRANCH  16  25
HETATM   25  N4  UNL     1      22.913   5.474  48.334  1.00  0.00    -0.402 N 
HETATM   26  C17 UNL     1      21.735   5.305  47.562  1.00  0.00     0.117 C 
HETATM   27  C18 UNL     1      22.083   5.575  46.125  1.00  0.00     0.019 C 
HETATM   28  C19 UNL     1      22.725   6.890  45.933  1.00  0.00     0.003 C 
HETATM   29  C20 UNL     1      23.283   7.584  47.119  1.00  0.00     0.019 C 
HETATM   30  C21 UNL     1      23.264   6.811  48.413  1.00  0.00     0.117 C 
ENDBRANCH  16  25
TORSDOF 5
ENDMDL
MODEL 3
REMARK VINA RESULT:      -7.8      2.018      3.306
REMARK  5 active torsions:
REMARK  status: ('A' for Active; 'I' for Inactive)
REMARK    1  A    between atoms: C2_2  and  C22_28 
REMARK    2  A    between atoms: C3_3  and  C4_4 
REMARK    3  A    between atoms: C4_4  and  N1_5 
REMARK    4  A    between atoms: N1_5  and  C5_6 
REMARK    5  A    between atoms: C16_21  and  N4_22 
ROOT
HETATM    1  C5  UNL     1      25.923   2.011  51.719  1.00  0.00     0.232 C 
HETATM    2  N2  UNL     1      25.623   3.204  50.863  1.00  0.00    -0.275 NA
HETATM    3  C6  UNL     1      24.528   3.943  50.987  1.00  0.00     0.095 C 
HETATM    4  C7  UNL     1      23.425   3.341  51.588  1.00  0.00     0.055 C 
HETATM    5  C8  UNL     1      22.194   3.660  52.259  1.00  0.00     0.019 C 
HETATM    6  C9  UNL     1      21.315   2.761  51.851  1.00  0.00     0.078 C 
HETATM    7  O1  UNL     1      21.313   1.660  50.888  1.00  0.00    -0.264 OA
HETATM    8  C10 UNL     1      22.088   0.648  51.673  1.00  0.00     0.371 C 
HETATM    9  O2  UNL     1      21.906   0.169  50.702  1.00  0.00    -0.238 OA
HETATM   10  N3  UNL     1      22.642   0.659  53.050  1.00  0.00    -0.303 N 
HETATM   11  C11 UNL     1      23.942   0.439  52.577  1.00  0.00     0.103 C 
HETATM   12  C12 UNL     1      24.743   1.445  52.215  1.00  0.00    -0.020 C 
HETATM   13  C13 UNL     1      24.220   2.648  52.789  1.00  0.00     0.053 C 
HETATM   14  C14 UNL     1      21.513   0.876  53.771  1.00  0.00     0.136 C 
HETATM   15  C15 UNL     1      20.190   1.149  53.157  1.00  0.00     0.052 C 
HETATM   16  C16 UNL     1      19.957   2.522  52.404  1.00  0.00     0.138 C 
ENDROOT
BRANCH   1  17
HETATM   17  N1  UNL     1      26.854   2.461  52.680  1.00  0.00    -0.394 N 
HETATM   18  H7  UNL     1      27.213   3.405  52.576  1.00  0.00     0.155 HD
BRANCH  17  19
HETATM   19  C4  UNL     1      27.167   1.710  53.816  1.00  0.00     0.144 C 
BRANCH  19  20
HETATM   20  C3  UNL     1      28.370   0.889  53.787  1.00  0.00    -0.003 C 
HETATM   21  C2  UNL     1      28.367  -0.405  53.399  1.00  0.00    -0.058 C 
HETATM   22  C1  UNL     1      27.283  -1.330  52.927  1.00  0.00     0.045 C 
BRANCH  21  23
HETATM   23  C22 UNL     1      29.610  -1.262  53.375  1.00  0.00     0.256 C 
HETATM   24  F1  UNL     1      29.257  -2.524  52.965  1.00  0.00    -0.251 F 
ENDBRANCH  21  23
ENDBRANCH  19  20
ENDBRANCH  17  19
ENDBRANCH   1  17
BRANCH  16  25
HETATM   25  N4  UNL     1      19.002   2.444  51.459  1.00  0.00    -0.402 N 
HETATM   26  C17 UNL     1      18.565   3.615  50.787  1.00  0.00     0.117 C 
HETATM   27  C18 UNL     1      17.307   4.089  51.458  1.00  0.00     0.019 C 
HETATM   28  C19 UNL     1      16.273   3.039  51.536  1.00  0.00     0.003 C 
HETATM   29  C20 UNL     1      16.682   1.628  51.329  1.00  0.00     0.019 C 
HETATM   30  C21 UNL     1      18.162   1.378  51.189  1.00  0.00     0.117 C 
ENDBRANCH  16  25
TORSDOF 5
ENDMDL
MODEL 4
REMARK VINA RESULT:      -7.7      2.531      3.216
REMARK  5 active torsions:
REMARK  status: ('A' for Active; 'I' for Inactive)
REMARK    1  A    between atoms: C2_2  and  C22_28 
REMARK    2  A    between atoms: C3_3  and  C4_4 
REMARK    3  A    between atoms: C4_4  and  N1_5 
REMARK    4  A    between atoms: N1_5  and  C5_6 
REMARK    5  A    between atoms: C16_21  and  N4_22 
ROOT
HETATM    1  C5  UNL     1      24.045   3.249  51.906  1.00  0.00     0.232 C 
HETATM    2  N2  UNL     1      24.161   2.347  53.097  1.00  0.00    -0.275 NA
HETATM    3  C6  UNL     1      23.523   1.189  53.210  1.00  0.00     0.095 C 
HETATM    4  C7  UNL     1      22.373   1.025  52.441  1.00  0.00     0.055 C 
HETATM    5  C8  UNL     1      21.515   0.007  51.901  1.00  0.00     0.019 C 
HETATM    6  C9  UNL     1      20.284   0.480  51.996  1.00  0.00     0.078 C 
HETATM    7  O1  UNL     1      19.665   1.681  52.555  1.00  0.00    -0.264 OA
HETATM    8  C10 UNL     1      20.037   2.666  51.492  1.00  0.00     0.371 C 
HETATM    9  O2  UNL     1      19.523   3.261  52.258  1.00  0.00    -0.238 OA
HETATM   10  N3  UNL     1      20.743   2.521  50.194  1.00  0.00    -0.303 N 
HETATM   11  C11 UNL     1      21.735   3.432  50.579  1.00  0.00     0.103 C 
HETATM   12  C12 UNL     1      22.825   3.050  51.249  1.00  0.00    -0.020 C 
HETATM   13  C13 UNL     1      22.963   1.633  51.086  1.00  0.00     0.053 C 
HETATM   14  C14 UNL     1      19.939   1.620  49.574  1.00  0.00     0.136 C 
HETATM   15  C15 UNL     1      18.787   0.960  50.236  1.00  0.00     0.052 C 
HETATM   16  C16 UNL     1      19.056  -0.092  51.387  1.00  0.00     0.138 C 
ENDROOT
BRANCH   1  17
HETATM   17  N1  UNL     1      25.211   3.022  51.145  1.00  0.00    -0.394 N 
HETATM   18  H7  UNL     1      25.900   2.380  51.526  1.00  0.00     0.155 HD
BRANCH  17  19
HETATM   19  C4  UNL     1      25.364   3.532  49.853  1.00  0.00     0.144 C 
BRANCH  19  20
HETATM   20  C3  UNL     1      26.712   3.819  49.382  1.00  0.00    -0.003 C 
HETATM   21  C2  UNL     1      27.067   5.010  48.853  1.00  0.00    -0.058 C 
HETATM   22  C1  UNL     1      26.314   6.283  48.597  1.00  0.00     0.045 C 
BRANCH  21  23
HETATM   23  C22 UNL     1      28.461   5.310  48.357  1.00  0.00     0.256 C 
HETATM   24  F1  UNL     1      28.744   6.626  48.629  1.00  0.00    -0.251 F 
ENDBRANCH  21  23
ENDBRANCH  19  20
ENDBRANCH  17  19
ENDBRANCH   1  17
BRANCH  16  25
HETATM   25  N4  UNL     1      18.029  -0.195  52.252  1.00  0.00    -0.402 N 
HETATM   26  C17 UNL     1      18.138  -1.033  53.392  1.00  0.00     0.117 C 
HETATM   27  C18 UNL     1      17.476  -2.343  53.065  1.00  0.00     0.019 C 
HETATM   28  C19 UNL     1      16.088  -2.176  52.590  1.00  0.00     0.003 C 
HETATM   29  C20 UNL     1      15.654  -0.832  52.136  1.00  0.00     0.019 C 
HETATM   30  C21 UNL     1      16.724   0.227  52.072  1.00  0.00     0.117 C 
ENDBRANCH  16  25
TORSDOF 5
ENDMDL
MODEL 5
REMARK VINA RESULT:      -7.7      2.005      2.692
REMARK  5 active torsions:
REMARK  status: ('A' for Active; 'I' for Inactive)
REMARK    1  A    between atoms: C2_2  and  C22_28 
REMARK    2  A    between atoms: C3_3  and  C4_4 
REMARK    3  A    between atoms: C4_4  and  N1_5 
REMARK    4  A    between atoms: N1_5  and  C5_6 
REMARK    5  A    between atoms: C16_21  and  N4_22 
ROOT
HETATM    1  C5  UNL     1      23.666   0.714  53.386  1.00  0.00     0.232 C 
HETATM    2  N2  UNL     1      22.682  -0.198  54.055  1.00  0.00    -0.275 NA
HETATM    3  C6  UNL     1      21.522  -0.553  53.518  1.00  0.00     0.095 C 
HETATM    4  C7  UNL     1      20.993   0.294  52.545  1.00  0.00     0.055 C 
HETATM    5  C8  UNL     1      20.058   0.309  51.453  1.00  0.00     0.019 C 
HETATM    6  C9  UNL     1      19.463   1.488  51.502  1.00  0.00     0.078 C 
HETATM    7  O1  UNL     1      19.498   2.643  52.399  1.00  0.00    -0.264 OA
HETATM    8  C10 UNL     1      20.803   3.241  51.975  1.00  0.00     0.371 C 
HETATM    9  O2  UNL     1      20.463   3.872  52.807  1.00  0.00    -0.238 OA
HETATM   10  N3  UNL     1      21.775   2.877  50.914  1.00  0.00    -0.303 N 
HETATM   11  C11 UNL     1      22.807   2.721  51.849  1.00  0.00     0.103 C 
HETATM   12  C12 UNL     1      23.019   1.565  52.482  1.00  0.00    -0.020 C 
HETATM   13  C13 UNL     1      22.354   0.533  51.743  1.00  0.00     0.053 C 
HETATM   14  C14 UNL     1      20.981   2.948  49.815  1.00  0.00     0.136 C 
HETATM   15  C15 UNL     1      19.520   3.199  49.877  1.00  0.00     0.052 C 
HETATM   16  C16 UNL     1      18.570   2.083  50.475  1.00  0.00     0.138 C 
ENDROOT
BRANCH   1  17
HETATM   17  N1  UNL     1      24.660  -0.132  52.850  1.00  0.00    -0.394 N 
HETATM   18  H7  UNL     1      24.406  -1.100  52.676  1.00  0.00     0.155 HD
BRANCH  17  19
HETATM   19  C4  UNL     1      25.900   0.357  52.430  1.00  0.00     0.144 C 
BRANCH  19  20
HETATM   20  C3  UNL     1      27.028  -0.564  52.402  1.00  0.00    -0.003 C 
HETATM   21  C2  UNL     1      27.970  -0.602  53.369  1.00  0.00    -0.058 C 
HETATM   22  C1  UNL     1      28.168   0.176  54.637  1.00  0.00     0.045 C 
BRANCH  21  23
HETATM   23  C22 UNL     1      29.145  -1.550  53.339  1.00  0.00     0.256 C 
HETATM   24  F1  UNL     1      30.299  -0.813  53.447  1.00  0.00    -0.251 F 
ENDBRANCH  21  23
ENDBRANCH  19  20
ENDBRANCH  17  19
ENDBRANCH   1  17
BRANCH  16  25
HETATM   25  N4  UNL     1      17.429   2.586  50.984  1.00  0.00    -0.402 N 
HETATM   26  C17 UNL     1      16.395   1.715  51.415  1.00  0.00     0.117 C 
HETATM   27  C18 UNL     1      15.388   1.612  50.304  1.00  0.00     0.019 C 
HETATM   28  C19 UNL     1      14.896   2.930  49.858  1.00  0.00     0.003 C 
HETATM   29  C20 UNL     1      15.671   4.137  50.234  1.00  0.00     0.019 C 
HETATM   30  C21 UNL     1      16.984   3.895  50.933  1.00  0.00     0.117 C 
ENDBRANCH  16  25
TORSDOF 5
ENDMDL
MODEL 6
REMARK VINA RESULT:      -7.5      3.473      4.762
REMARK  5 active torsions:
REMARK  status: ('A' for Active; 'I' for Inactive)
REMARK    1  A    between atoms: C2_2  and  C22_28 
REMARK    2  A    between atoms: C3_3  and  C4_4 
REMARK    3  A    between atoms: C4_4  and  N1_5 
REMARK    4  A    between atoms: N1_5  and  C5_6 
REMARK    5  A    between atoms: C16_21  and  N4_22 
ROOT
HETATM    1  C5  UNL     1      26.407   2.034  51.335  1.00  0.00     0.232 C 
HETATM    2  N2  UNL     1      26.757   2.875  50.145  1.00  0.00    -0.275 NA
HETATM    3  C6  UNL     1      26.026   3.898  49.724  1.00  0.00     0.095 C 
HETATM    4  C7  UNL     1      24.681   3.905  50.091  1.00  0.00     0.055 C 
HETATM    5  C8  UNL     1      23.559   4.791  50.239  1.00  0.00     0.019 C 
HETATM    6  C9  UNL     1      22.502   4.110  49.830  1.00  0.00     0.078 C 
HETATM    7  O1  UNL     1      22.270   2.791  49.241  1.00  0.00    -0.264 OA
HETATM    8  C10 UNL     1      22.431   1.945  50.465  1.00  0.00     0.371 C 
HETATM    9  O2  UNL     1      22.275   1.229  49.647  1.00  0.00    -0.238 OA
HETATM   10  N3  UNL     1      22.666   2.280  51.891  1.00  0.00    -0.303 N 
HETATM   11  C11 UNL     1      23.850   1.532  51.920  1.00  0.00     0.103 C 
HETATM   12  C12 UNL     1      25.027   2.057  51.571  1.00  0.00    -0.020 C 
HETATM   13  C13 UNL     1      24.900   3.484  51.617  1.00  0.00     0.053 C 
HETATM   14  C14 UNL     1      21.587   3.064  52.143  1.00  0.00     0.136 C 
HETATM   15  C15 UNL     1      20.616   3.479  51.101  1.00  0.00     0.052 C 
HETATM   16  C16 UNL     1      21.076   4.496  49.979  1.00  0.00     0.138 C 
ENDROOT
BRANCH   1  17
HETATM   17  N1  UNL     1      27.230   2.499  52.382  1.00  0.00    -0.394 N 
HETATM   18  H7  UNL     1      27.620   3.433  52.290  1.00  0.00     0.155 HD
BRANCH  17  19
HETATM   19  C4  UNL     1      27.395   1.782  53.570  1.00  0.00     0.144 C 
BRANCH  19  20
HETATM   20  C3  UNL     1      28.492   0.826  53.649  1.00  0.00    -0.003 C 
HETATM   21  C2  UNL     1      28.353  -0.480  53.332  1.00  0.00    -0.058 C 
HETATM   22  C1  UNL     1      27.190  -1.300  52.854  1.00  0.00     0.045 C 
BRANCH  21  23
HETATM   23  C22 UNL     1      29.485  -1.475  53.421  1.00  0.00     0.256 C 
HETATM   24  F1  UNL     1      29.006  -2.708  53.054  1.00  0.00    -0.251 F 
ENDBRANCH  21  23
ENDBRANCH  19  20
ENDBRANCH  17  19
ENDBRANCH   1  17
BRANCH  16  25
HETATM   25  N4  UNL     1      20.368   4.373  48.840  1.00  0.00    -0.402 N 
HETATM   26  C17 UNL     1      20.585   5.273  47.764  1.00  0.00     0.117 C 
HETATM   27  C18 UNL     1      19.531   6.342  47.838  1.00  0.00     0.019 C 
HETATM   28  C19 UNL     1      18.163   5.790  47.873  1.00  0.00     0.003 C 
HETATM   29  C20 UNL     1      17.988   4.356  48.211  1.00  0.00     0.019 C 
HETATM   30  C21 UNL     1      19.231   3.614  48.627  1.00  0.00     0.117 C 
ENDBRANCH  16  25
TORSDOF 5
ENDMDL
MODEL 7
REMARK VINA RESULT:      -7.4      3.662      8.201
REMARK  5 active torsions:
REMARK  status: ('A' for Active; 'I' for Inactive)
REMARK    1  A    between atoms: C2_2  and  C22_28 
REMARK    2  A    between atoms: C3_3  and  C4_4 
REMARK    3  A    between atoms: C4_4  and  N1_5 
REMARK    4  A    between atoms: N1_5  and  C5_6 
REMARK    5  A    between atoms: C16_21  and  N4_22 
ROOT
HETATM    1  C5  UNL     1      18.392   1.766  50.802  1.00  0.00     0.232 C 
HETATM    2  N2  UNL     1      18.566   0.334  51.209  1.00  0.00    -0.275 NA
HETATM    3  C6  UNL     1      19.469  -0.078  52.089  1.00  0.00     0.095 C 
HETATM    4  C7  UNL     1      20.579   0.743  52.285  1.00  0.00     0.055 C 
HETATM    5  C8  UNL     1      21.623   1.017  53.234  1.00  0.00     0.019 C 
HETATM    6  C9  UNL     1      22.707   1.265  52.519  1.00  0.00     0.078 C 
HETATM    7  O1  UNL     1      23.051   1.244  51.098  1.00  0.00    -0.264 OA
HETATM    8  C10 UNL     1      22.391   2.516  50.668  1.00  0.00     0.371 C 
HETATM    9  O2  UNL     1      22.791   2.081  49.742  1.00  0.00    -0.238 OA
HETATM   10  N3  UNL     1      21.666   3.572  51.418  1.00  0.00    -0.303 N 
HETATM   11  C11 UNL     1      20.509   3.387  50.651  1.00  0.00     0.103 C 
HETATM   12  C12 UNL     1      19.584   2.480  50.975  1.00  0.00    -0.020 C 
HETATM   13  C13 UNL     1      19.781   2.126  52.349  1.00  0.00     0.053 C 
HETATM   14  C14 UNL     1      22.625   3.953  52.300  1.00  0.00     0.136 C 
HETATM   15  C15 UNL     1      23.939   3.275  52.423  1.00  0.00     0.052 C 
HETATM   16  C16 UNL     1      23.999   1.807  53.012  1.00  0.00     0.138 C 
ENDROOT
BRANCH   1  17
HETATM   17  N1  UNL     1      17.272   2.230  51.524  1.00  0.00    -0.394 N 
HETATM   18  H7  UNL     1      17.024   1.730  52.372  1.00  0.00     0.155 HD
BRANCH  17  19
HETATM   19  C4  UNL     1      16.611   3.413  51.185  1.00  0.00     0.144 C 
BRANCH  19  20
HETATM   20  C3  UNL     1      15.922   4.142  52.241  1.00  0.00    -0.003 C 
HETATM   21  C2  UNL     1      14.735   3.749  52.752  1.00  0.00    -0.058 C 
HETATM   22  C1  UNL     1      13.829   2.588  52.460  1.00  0.00     0.045 C 
BRANCH  21  23
HETATM   23  C22 UNL     1      14.014   4.506  53.841  1.00  0.00     0.256 C 
HETATM   24  F1  UNL     1      12.808   4.936  53.343  1.00  0.00    -0.251 F 
ENDBRANCH  21  23
ENDBRANCH  19  20
ENDBRANCH  17  19
ENDBRANCH   1  17
BRANCH  16  25
HETATM   25  N4  UNL     1      25.069   1.113  52.580  1.00  0.00    -0.402 N 
HETATM   26  C17 UNL     1      25.272  -0.225  53.007  1.00  0.00     0.117 C 
HETATM   27  C18 UNL     1      26.246  -0.200  54.151  1.00  0.00     0.019 C 
HETATM   28  C19 UNL     1      27.499   0.504  53.817  1.00  0.00     0.003 C 
HETATM   29  C20 UNL     1      27.515   1.391  52.628  1.00  0.00     0.019 C 
HETATM   30  C21 UNL     1      26.192   1.602  51.937  1.00  0.00     0.117 C 
ENDBRANCH  16  25
TORSDOF 5
ENDMDL
MODEL 8
REMARK VINA RESULT:      -7.4      3.286      7.288
REMARK  5 active torsions:
REMARK  status: ('A' for Active; 'I' for Inactive)
REMARK    1  A    between atoms: C2_2  and  C22_28 
REMARK    2  A    between atoms: C3_3  and  C4_4 
REMARK    3  A    between atoms: C4_4  and  N1_5 
REMARK    4  A    between atoms: N1_5  and  C5_6 
REMARK    5  A    between atoms: C16_21  and  N4_22 
ROOT
HETATM    1  C5  UNL     1      22.284  -0.609  52.807  1.00  0.00     0.232 C 
HETATM    2  N2  UNL     1      23.740  -0.432  53.116  1.00  0.00    -0.275 NA
HETATM    3  C6  UNL     1      24.340   0.748  53.187  1.00  0.00     0.095 C 
HETATM    4  C7  UNL     1      23.737   1.804  52.507  1.00  0.00     0.055 C 
HETATM    5  C8  UNL     1      23.691   3.241  52.470  1.00  0.00     0.019 C 
HETATM    6  C9  UNL     1      23.608   3.569  51.193  1.00  0.00     0.078 C 
HETATM    7  O1  UNL     1      23.630   2.844  49.922  1.00  0.00    -0.264 OA
HETATM    8  C10 UNL     1      22.244   2.279  49.939  1.00  0.00     0.371 C 
HETATM    9  O2  UNL     1      22.704   1.867  49.031  1.00  0.00    -0.238 OA
HETATM   10  N3  UNL     1      21.109   2.437  50.882  1.00  0.00    -0.303 N 
HETATM   11  C11 UNL     1      21.056   1.058  51.121  1.00  0.00     0.103 C 
HETATM   12  C12 UNL     1      21.798   0.473  52.065  1.00  0.00    -0.020 C 
HETATM   13  C13 UNL     1      22.239   1.494  52.969  1.00  0.00     0.053 C 
HETATM   14  C14 UNL     1      20.941   3.783  50.845  1.00  0.00     0.136 C 
HETATM   15  C15 UNL     1      21.844   4.700  50.108  1.00  0.00     0.052 C 
HETATM   16  C16 UNL     1      23.323   4.914  50.631  1.00  0.00     0.138 C 
ENDROOT
BRANCH   1  17
HETATM   17  N1  UNL     1      21.660  -0.846  54.051  1.00  0.00    -0.394 N 
HETATM   18  H7  UNL     1      22.060  -0.393  54.867  1.00  0.00     0.155 HD
BRANCH  17  19
HETATM   19  C4  UNL     1      20.457  -1.550  54.154  1.00  0.00     0.144 C 
BRANCH  19  20
HETATM   20  C3  UNL     1      19.263  -0.959  53.566  1.00  0.00    -0.003 C 
HETATM   21  C2  UNL     1      18.116  -1.649  53.384  1.00  0.00    -0.058 C 
HETATM   22  C1  UNL     1      17.714  -3.065  53.677  1.00  0.00     0.045 C 
BRANCH  21  23
HETATM   23  C22 UNL     1      16.878  -1.043  52.768  1.00  0.00     0.256 C 
HETATM   24  F1  UNL     1      17.265  -0.026  51.931  1.00  0.00    -0.251 F 
ENDBRANCH  21  23
ENDBRANCH  19  20
ENDBRANCH  17  19
ENDBRANCH   1  17
BRANCH  16  25
HETATM   25  N4  UNL     1      24.175   5.277  49.654  1.00  0.00    -0.402 N 
HETATM   26  C17 UNL     1      25.538   5.533  49.955  1.00  0.00     0.117 C 
HETATM   27  C18 UNL     1      25.704   7.019  50.108  1.00  0.00     0.019 C 
HETATM   28  C19 UNL     1      25.212   7.770  48.937  1.00  0.00     0.003 C 
HETATM   29  C20 UNL     1      24.312   7.079  47.982  1.00  0.00     0.019 C 
HETATM   30  C21 UNL     1      23.866   5.693  48.371  1.00  0.00     0.117 C 
ENDBRANCH  16  25
TORSDOF 5
ENDMDL
MODEL 9
REMARK VINA RESULT:      -7.2      2.982      3.935
REMARK  5 active torsions:
REMARK  status: ('A' for Active; 'I' for Inactive)
REMARK    1  A    between atoms: C2_2  and  C22_28 
REMARK    2  A    between atoms: C3_3  and  C4_4 
REMARK    3  A    between atoms: C4_4  and  N1_5 
REMARK    4  A    between atoms: N1_5  and  C5_6 
REMARK    5  A    between atoms: C16_21  and  N4_22 
ROOT
HETATM    1  C5  UNL     1      24.501   1.645  53.047  1.00  0.00     0.232 C 
HETATM    2  N2  UNL     1      23.381   0.665  53.223  1.00  0.00    -0.275 NA
HETATM    3  C6  UNL     1      22.461   0.422  52.299  1.00  0.00     0.095 C 
HETATM    4  C7  UNL     1      22.246   1.417  51.346  1.00  0.00     0.055 C 
HETATM    5  C8  UNL     1      21.707   1.618  50.029  1.00  0.00     0.019 C 
HETATM    6  C9  UNL     1      21.096   2.789  50.062  1.00  0.00     0.078 C 
HETATM    7  O1  UNL     1      20.814   3.795  51.086  1.00  0.00    -0.264 OA
HETATM    8  C10 UNL     1      22.169   4.420  51.195  1.00  0.00     0.371 C 
HETATM    9  O2  UNL     1      21.565   4.926  51.959  1.00  0.00    -0.238 OA
HETATM   10  N3  UNL     1      23.437   4.198  50.456  1.00  0.00    -0.303 N 
HETATM   11  C11 UNL     1      24.122   3.880  51.636  1.00  0.00     0.103 C 
HETATM   12  C12 UNL     1      24.153   2.637  52.123  1.00  0.00    -0.020 C 
HETATM   13  C13 UNL     1      23.786   1.744  51.065  1.00  0.00     0.053 C 
HETATM   14  C14 UNL     1      23.033   4.452  49.186  1.00  0.00     0.136 C 
HETATM   15  C15 UNL     1      21.622   4.723  48.816  1.00  0.00     0.052 C 
HETATM   16  C16 UNL     1      20.561   3.552  48.905  1.00  0.00     0.138 C 
ENDROOT
BRANCH   1  17
HETATM   17  N1  UNL     1      25.637   0.868  52.735  1.00  0.00    -0.394 N 
HETATM   18  H7  UNL     1      26.347   1.295  52.148  1.00  0.00     0.155 HD
BRANCH  17  19
HETATM   19  C4  UNL     1      25.862  -0.382  53.318  1.00  0.00     0.144 C 
BRANCH  19  20
HETATM   20  C3  UNL     1      27.143  -1.032  53.076  1.00  0.00    -0.003 C 
HETATM   21  C2  UNL     1      28.284  -0.663  53.699  1.00  0.00    -0.058 C 
HETATM   22  C1  UNL     1      28.599   0.395  54.717  1.00  0.00     0.045 C 
BRANCH  21  23
HETATM   23  C22 UNL     1      29.615  -1.328  53.445  1.00  0.00     0.256 C 
HETATM   24  F1  UNL     1      29.382  -2.614  53.023  1.00  0.00    -0.251 F 
ENDBRANCH  21  23
ENDBRANCH  19  20
ENDBRANCH  17  19
ENDBRANCH   1  17
BRANCH  16  25
HETATM   25  N4  UNL     1      19.305   3.998  49.095  1.00  0.00    -0.402 N 
HETATM   26  C17 UNL     1      18.221   3.083  49.133  1.00  0.00     0.117 C 
HETATM   27  C18 UNL     1      17.586   3.064  47.771  1.00  0.00     0.019 C 
HETATM   28  C19 UNL     1      17.200   4.410  47.304  1.00  0.00     0.003 C 
HETATM   29  C20 UNL     1      17.789   5.589  47.985  1.00  0.00     0.019 C 
HETATM   30  C21 UNL     1      18.848   5.302  49.017  1.00  0.00     0.117 C 
ENDBRANCH  16  25
TORSDOF 5
ENDMDL
