MODEL 1
REMARK VINA RESULT:      -9.4      0.000      0.000
REMARK  4 active torsions:
REMARK  status: ('A' for Active; 'I' for Inactive)
REMARK    1  A    between atoms: O1_2  and  C2_3 
REMARK    2  A    between atoms: C8_11  and  N3_12 
REMARK    3  A    between atoms: N3_12  and  S1_13 
REMARK    4  A    between atoms: S1_13  and  C9_16 
ROOT
HETATM    1  C2  UNL     1      28.279   0.392  53.535  1.00  0.00     0.065 C 
HETATM    2  C3  UNL     1      27.438  -0.591  53.066  1.00  0.00     0.065 C 
HETATM    3  C4  UNL     1      26.014  -0.429  53.155  1.00  0.00     0.062 A 
HETATM    4  C5  UNL     1      24.717  -0.131  52.928  1.00  0.00     0.065 A 
HETATM    5  C6  UNL     1      23.424   0.026  53.059  1.00  0.00     0.087 A 
HETATM    6  N1  UNL     1      23.378  -0.464  54.304  1.00  0.00    -0.240 NA
HETATM    7  C7  UNL     1      24.528  -0.892  54.913  1.00  0.00     0.234 A 
HETATM    8  N2  UNL     1      25.786  -0.898  54.421  1.00  0.00    -0.242 NA
HETATM    9  C8  UNL     1      22.672   0.658  52.003  1.00  0.00     0.071 C 
HETATM   10  C15 UNL     1      23.167   1.546  51.166  1.00  0.00     0.033 C 
HETATM   11  C16 UNL     1      24.303   2.334  50.714  1.00  0.00     0.014 C 
HETATM   12  C17 UNL     1      25.586   2.488  51.106  1.00  0.00     0.006 C 
HETATM   13  C18 UNL     1      26.456   3.389  50.348  1.00  0.00     0.054 C 
HETATM   14  C19 UNL     1      26.447   2.242  52.300  1.00  0.00     0.247 C 
HETATM   15  O4  UNL     1      27.673   2.257  52.453  1.00  0.00    -0.268 OA
HETATM   16  N4  UNL     1      26.437   1.914  53.740  1.00  0.00    -0.351 N 
HETATM   17  C20 UNL     1      27.814   1.704  54.139  1.00  0.00     0.187 C 
HETATM   18  H18 UNL     1      25.668   1.862  54.424  1.00  0.00     0.163 HD
ENDROOT
BRANCH   9  19
HETATM   19  N3  UNL     1      21.432   0.075  52.180  1.00  0.00    -0.278 N 
HETATM   20  H7  UNL     1      21.295  -0.860  52.668  1.00  0.00     0.179 HD
BRANCH  19  21
HETATM   21  S1  UNL     1      20.034   0.887  51.584  1.00  0.00     0.263 S 
HETATM   22  O2  UNL     1      20.148   1.041  50.091  1.00  0.00    -0.200 OA
HETATM   23  O3  UNL     1      19.857   2.213  52.266  1.00  0.00    -0.200 OA
BRANCH  21  24
HETATM   24  C9  UNL     1      18.614  -0.076  51.900  1.00  0.00     0.079 A 
HETATM   25  C10 UNL     1      18.644  -0.929  53.010  1.00  0.00     0.025 A 
HETATM   26  C11 UNL     1      17.567  -1.725  53.334  1.00  0.00     0.002 A 
HETATM   27  C12 UNL     1      16.418  -1.690  52.553  1.00  0.00     0.000 A 
HETATM   28  C13 UNL     1      16.460  -0.835  51.486  1.00  0.00     0.002 A 
HETATM   29  C14 UNL     1      17.491  -0.010  51.093  1.00  0.00     0.025 A 
ENDBRANCH  21  24
ENDBRANCH  19  21
ENDBRANCH   9  19
BRANCH   1  30
HETATM   30  O1  UNL     1      29.594   0.018  53.362  1.00  0.00    -0.358 OA
HETATM   31  C1  UNL     1      30.169  -1.201  53.766  1.00  0.00     0.209 C 
ENDBRANCH   1  30
TORSDOF 4
ENDMDL
MODEL 2
REMARK VINA RESULT:      -9.1      4.770      7.939
REMARK  4 active torsions:
REMARK  status: ('A' for Active; 'I' for Inactive)
REMARK    1  A    between atoms: O1_2  and  C2_3 
REMARK    2  A    between atoms: C8_11  and  N3_12 
REMARK    3  A    between atoms: N3_12  and  S1_13 
REMARK    4  A    between atoms: S1_13  and  C9_16 
ROOT
HETATM    1  C2  UNL     1      26.141   9.218  49.244  1.00  0.00     0.065 C 
HETATM    2  C3  UNL     1      25.829   8.601  50.433  1.00  0.00     0.065 C 
HETATM    3  C4  UNL     1      25.130   7.346  50.436  1.00  0.00     0.062 A 
HETATM    4  C5  UNL     1      24.795   6.039  50.430  1.00  0.00     0.065 A 
HETATM    5  C6  UNL     1      24.122   4.916  50.404  1.00  0.00     0.087 A 
HETATM    6  N1  UNL     1      22.922   5.506  50.342  1.00  0.00    -0.240 NA
HETATM    7  C7  UNL     1      22.833   6.874  50.327  1.00  0.00     0.234 A 
HETATM    8  N2  UNL     1      23.834   7.780  50.370  1.00  0.00    -0.242 NA
HETATM    9  C8  UNL     1      24.831   3.661  50.365  1.00  0.00     0.071 C 
HETATM   10  C15 UNL     1      26.030   3.499  49.842  1.00  0.00     0.033 C 
HETATM   11  C16 UNL     1      27.183   4.076  49.168  1.00  0.00     0.014 C 
HETATM   12  C17 UNL     1      27.514   5.299  48.701  1.00  0.00     0.006 C 
HETATM   13  C18 UNL     1      28.828   5.489  48.085  1.00  0.00     0.054 C 
HETATM   14  C19 UNL     1      26.861   6.585  48.320  1.00  0.00     0.247 C 
HETATM   15  O4  UNL     1      27.320   7.708  48.084  1.00  0.00    -0.268 OA
HETATM   16  N4  UNL     1      25.566   7.234  48.026  1.00  0.00    -0.351 N 
HETATM   17  C20 UNL     1      25.825   8.651  47.873  1.00  0.00     0.187 C 
HETATM   18  H18 UNL     1      24.622   6.845  47.894  1.00  0.00     0.163 HD
ENDROOT
BRANCH   9  19
HETATM   19  N3  UNL     1      23.920   2.826  50.980  1.00  0.00    -0.278 N 
HETATM   20  H7  UNL     1      23.080   2.411  50.475  1.00  0.00     0.179 HD
BRANCH  19  21
HETATM   21  S1  UNL     1      24.138   2.432  52.643  1.00  0.00     0.263 S 
HETATM   22  O2  UNL     1      23.031   1.513  53.085  1.00  0.00    -0.200 OA
HETATM   23  O3  UNL     1      24.196   3.675  53.482  1.00  0.00    -0.200 OA
BRANCH  21  24
HETATM   24  C9  UNL     1      25.641   1.570  52.852  1.00  0.00     0.079 A 
HETATM   25  C10 UNL     1      25.728   0.280  52.313  1.00  0.00     0.025 A 
HETATM   26  C11 UNL     1      26.877  -0.472  52.430  1.00  0.00     0.002 A 
HETATM   27  C12 UNL     1      27.982   0.049  53.093  1.00  0.00     0.000 A 
HETATM   28  C13 UNL     1      27.825   1.312  53.593  1.00  0.00     0.002 A 
HETATM   29  C14 UNL     1      26.717   2.127  53.520  1.00  0.00     0.025 A 
ENDBRANCH  21  24
ENDBRANCH  19  21
ENDBRANCH   9  19
BRANCH   1  30
HETATM   30  O1  UNL     1      26.792  10.410  49.480  1.00  0.00    -0.358 OA
HETATM   31  C1  UNL     1      28.015  10.813  48.914  1.00  0.00     0.209 C 
ENDBRANCH   1  30
TORSDOF 4
ENDMDL
MODEL 3
REMARK VINA RESULT:      -9.0      7.430     11.950
REMARK  4 active torsions:
REMARK  status: ('A' for Active; 'I' for Inactive)
REMARK    1  A    between atoms: O1_2  and  C2_3 
REMARK    2  A    between atoms: C8_11  and  N3_12 
REMARK    3  A    between atoms: N3_12  and  S1_13 
REMARK    4  A    between atoms: S1_13  and  C9_16 
ROOT
HETATM    1  C2  UNL     1      24.128   8.486  49.625  1.00  0.00     0.065 C 
HETATM    2  C3  UNL     1      24.909   8.753  48.524  1.00  0.00     0.065 C 
HETATM    3  C4  UNL     1      26.329   8.540  48.575  1.00  0.00     0.062 A 
HETATM    4  C5  UNL     1      27.574   8.024  48.513  1.00  0.00     0.065 A 
HETATM    5  C6  UNL     1      28.870   7.859  48.601  1.00  0.00     0.087 A 
HETATM    6  N1  UNL     1      29.102   9.071  49.118  1.00  0.00    -0.240 NA
HETATM    7  C7  UNL     1      28.058   9.930  49.342  1.00  0.00     0.234 A 
HETATM    8  N2  UNL     1      26.743   9.732  49.106  1.00  0.00    -0.242 NA
HETATM    9  C8  UNL     1      29.452   6.587  48.247  1.00  0.00     0.071 C 
HETATM   10  C15 UNL     1      28.827   5.431  48.336  1.00  0.00     0.033 C 
HETATM   11  C16 UNL     1      27.625   4.689  48.682  1.00  0.00     0.014 C 
HETATM   12  C17 UNL     1      26.409   5.002  49.178  1.00  0.00     0.006 C 
HETATM   13  C18 UNL     1      25.424   3.935  49.366  1.00  0.00     0.054 C 
HETATM   14  C19 UNL     1      25.732   6.110  49.914  1.00  0.00     0.247 C 
HETATM   15  O4  UNL     1      24.540   6.346  50.140  1.00  0.00    -0.268 OA
HETATM   16  N4  UNL     1      25.954   7.350  50.686  1.00  0.00    -0.351 N 
HETATM   17  C20 UNL     1      24.651   7.934  50.937  1.00  0.00     0.187 C 
HETATM   18  H18 UNL     1      26.813   7.779  51.058  1.00  0.00     0.163 HD
ENDROOT
BRANCH   9  19
HETATM   19  N3  UNL     1      30.714   6.980  47.846  1.00  0.00    -0.278 N 
HETATM   20  H7  UNL     1      30.885   7.624  47.015  1.00  0.00     0.179 HD
BRANCH  19  21
HETATM   21  S1  UNL     1      32.084   6.409  48.720  1.00  0.00     0.263 S 
HETATM   22  O2  UNL     1      31.650   5.967  50.091  1.00  0.00    -0.200 OA
HETATM   23  O3  UNL     1      33.151   7.463  48.788  1.00  0.00    -0.200 OA
BRANCH  21  24
HETATM   24  C9  UNL     1      32.756   5.014  47.914  1.00  0.00     0.079 A 
HETATM   25  C10 UNL     1      34.114   4.740  48.119  1.00  0.00     0.025 A 
HETATM   26  C11 UNL     1      34.727   3.659  47.523  1.00  0.00     0.002 A 
HETATM   27  C12 UNL     1      33.993   2.812  46.700  1.00  0.00     0.000 A 
HETATM   28  C13 UNL     1      32.675   3.141  46.546  1.00  0.00     0.002 A 
HETATM   29  C14 UNL     1      31.988   4.197  47.102  1.00  0.00     0.025 A 
ENDBRANCH  21  24
ENDBRANCH  19  21
ENDBRANCH   9  19
BRANCH   1  30
HETATM   30  O1  UNL     1      22.808   8.778  49.355  1.00  0.00    -0.358 OA
HETATM   31  C1  UNL     1      21.953   8.046  48.511  1.00  0.00     0.209 C 
ENDBRANCH   1  30
TORSDOF 4
ENDMDL
MODEL 4
REMARK VINA RESULT:      -8.9      1.577      2.221
REMARK  4 active torsions:
REMARK  status: ('A' for Active; 'I' for Inactive)
REMARK    1  A    between atoms: O1_2  and  C2_3 
REMARK    2  A    between atoms: C8_11  and  N3_12 
REMARK    3  A    between atoms: N3_12  and  S1_13 
REMARK    4  A    between atoms: S1_13  and  C9_16 
ROOT
HETATM    1  C2  UNL     1      27.152   0.649  52.772  1.00  0.00     0.065 C 
HETATM    2  C3  UNL     1      26.067   0.030  52.195  1.00  0.00     0.065 C 
HETATM    3  C4  UNL     1      24.812   0.721  52.087  1.00  0.00     0.062 A 
HETATM    4  C5  UNL     1      23.766   1.471  51.683  1.00  0.00     0.065 A 
HETATM    5  C6  UNL     1      22.624   2.110  51.635  1.00  0.00     0.087 A 
HETATM    6  N1  UNL     1      22.239   1.744  52.863  1.00  0.00    -0.240 NA
HETATM    7  C7  UNL     1      23.054   0.949  53.626  1.00  0.00     0.234 A 
HETATM    8  N2  UNL     1      24.266   0.443  53.311  1.00  0.00    -0.242 NA
HETATM    9  C8  UNL     1      22.309   2.920  50.483  1.00  0.00     0.071 C 
HETATM   10  C15 UNL     1      23.205   3.508  49.718  1.00  0.00     0.033 C 
HETATM   11  C16 UNL     1      24.603   3.785  49.424  1.00  0.00     0.014 C 
HETATM   12  C17 UNL     1      25.788   3.465  49.989  1.00  0.00     0.006 C 
HETATM   13  C18 UNL     1      27.022   3.930  49.354  1.00  0.00     0.054 C 
HETATM   14  C19 UNL     1      26.333   2.981  51.290  1.00  0.00     0.247 C 
HETATM   15  O4  UNL     1      27.442   2.541  51.610  1.00  0.00    -0.268 OA
HETATM   16  N4  UNL     1      26.017   2.761  52.717  1.00  0.00    -0.351 N 
HETATM   17  C20 UNL     1      27.149   2.070  53.302  1.00  0.00     0.187 C 
HETATM   18  H18 UNL     1      25.207   3.040  53.288  1.00  0.00     0.163 HD
ENDROOT
BRANCH   9  19
HETATM   19  N3  UNL     1      20.929   2.857  50.490  1.00  0.00    -0.278 N 
HETATM   20  H7  UNL     1      20.322   3.486  51.098  1.00  0.00     0.179 HD
BRANCH  19  21
HETATM   21  S1  UNL     1      20.140   1.712  49.473  1.00  0.00     0.263 S 
HETATM   22  O2  UNL     1      21.162   0.764  48.906  1.00  0.00    -0.200 OA
HETATM   23  O3  UNL     1      19.365   2.405  48.391  1.00  0.00    -0.200 OA
BRANCH  21  24
HETATM   24  C9  UNL     1      19.019   0.762  50.416  1.00  0.00     0.079 A 
HETATM   25  C10 UNL     1      17.724   0.599  49.910  1.00  0.00     0.025 A 
HETATM   26  C11 UNL     1      16.775  -0.136  50.588  1.00  0.00     0.002 A 
HETATM   27  C12 UNL     1      17.097  -0.735  51.799  1.00  0.00     0.000 A 
HETATM   28  C13 UNL     1      18.378  -0.534  52.231  1.00  0.00     0.002 A 
HETATM   29  C14 UNL     1      19.383   0.183  51.620  1.00  0.00     0.025 A 
ENDBRANCH  21  24
ENDBRANCH  19  21
ENDBRANCH   9  19
BRANCH   1  30
HETATM   30  O1  UNL     1      28.237  -0.202  52.783  1.00  0.00    -0.358 OA
HETATM   31  C1  UNL     1      29.108  -0.419  53.865  1.00  0.00     0.209 C 
ENDBRANCH   1  30
TORSDOF 4
ENDMDL
MODEL 5
REMARK VINA RESULT:      -8.9      3.908      7.722
REMARK  4 active torsions:
REMARK  status: ('A' for Active; 'I' for Inactive)
REMARK    1  A    between atoms: O1_2  and  C2_3 
REMARK    2  A    between atoms: C8_11  and  N3_12 
REMARK    3  A    between atoms: N3_12  and  S1_13 
REMARK    4  A    between atoms: S1_13  and  C9_16 
ROOT
HETATM    1  C2  UNL     1      22.988   6.439  49.557  1.00  0.00     0.065 C 
HETATM    2  C3  UNL     1      23.170   6.330  50.916  1.00  0.00     0.065 C 
HETATM    3  C4  UNL     1      23.307   5.038  51.528  1.00  0.00     0.062 A 
HETATM    4  C5  UNL     1      23.771   3.878  52.038  1.00  0.00     0.065 A 
HETATM    5  C6  UNL     1      23.852   2.686  52.574  1.00  0.00     0.087 A 
HETATM    6  N1  UNL     1      22.529   2.526  52.691  1.00  0.00    -0.240 NA
HETATM    7  C7  UNL     1      21.680   3.517  52.271  1.00  0.00     0.234 A 
HETATM    8  N2  UNL     1      21.992   4.710  51.720  1.00  0.00    -0.242 NA
HETATM    9  C8  UNL     1      25.142   2.058  52.723  1.00  0.00     0.071 C 
HETATM   10  C15 UNL     1      26.179   2.291  51.945  1.00  0.00     0.033 C 
HETATM   11  C16 UNL     1      26.749   2.999  50.808  1.00  0.00     0.014 C 
HETATM   12  C17 UNL     1      26.293   3.889  49.900  1.00  0.00     0.006 C 
HETATM   13  C18 UNL     1      27.218   4.406  48.890  1.00  0.00     0.054 C 
HETATM   14  C19 UNL     1      25.000   4.387  49.346  1.00  0.00     0.247 C 
HETATM   15  O4  UNL     1      24.724   5.361  48.639  1.00  0.00    -0.268 OA
HETATM   16  N4  UNL     1      23.548   4.125  49.265  1.00  0.00    -0.351 N 
HETATM   17  C20 UNL     1      22.947   5.263  48.599  1.00  0.00     0.187 C 
HETATM   18  H18 UNL     1      22.983   3.314  49.553  1.00  0.00     0.163 HD
ENDROOT
BRANCH   9  19
HETATM   19  N3  UNL     1      24.913   1.246  53.816  1.00  0.00    -0.278 N 
HETATM   20  H7  UNL     1      24.376   1.569  54.677  1.00  0.00     0.179 HD
BRANCH  19  21
HETATM   21  S1  UNL     1      25.520  -0.367  53.801  1.00  0.00     0.263 S 
HETATM   22  O2  UNL     1      25.087  -1.048  52.531  1.00  0.00    -0.200 OA
HETATM   23  O3  UNL     1      25.063  -1.119  55.018  1.00  0.00    -0.200 OA
BRANCH  21  24
HETATM   24  C9  UNL     1      27.265  -0.339  53.808  1.00  0.00     0.079 A 
HETATM   25  C10 UNL     1      27.930  -1.368  53.131  1.00  0.00     0.025 A 
HETATM   26  C11 UNL     1      29.307  -1.425  53.084  1.00  0.00     0.002 A 
HETATM   27  C12 UNL     1      30.063  -0.444  53.716  1.00  0.00     0.000 A 
HETATM   28  C13 UNL     1      29.346   0.528  54.356  1.00  0.00     0.002 A 
HETATM   29  C14 UNL     1      27.978   0.658  54.451  1.00  0.00     0.025 A 
ENDBRANCH  21  24
ENDBRANCH  19  21
ENDBRANCH   9  19
BRANCH   1  30
HETATM   30  O1  UNL     1      22.866   7.763  49.196  1.00  0.00    -0.358 OA
HETATM   31  C1  UNL     1      21.737   8.576  49.398  1.00  0.00     0.209 C 
ENDBRANCH   1  30
TORSDOF 4
ENDMDL
MODEL 6
REMARK VINA RESULT:      -8.9      1.972      3.500
REMARK  4 active torsions:
REMARK  status: ('A' for Active; 'I' for Inactive)
REMARK    1  A    between atoms: O1_2  and  C2_3 
REMARK    2  A    between atoms: C8_11  and  N3_12 
REMARK    3  A    between atoms: N3_12  and  S1_13 
REMARK    4  A    between atoms: S1_13  and  C9_16 
ROOT
HETATM    1  C2  UNL     1      26.603   1.095  53.754  1.00  0.00     0.065 C 
HETATM    2  C3  UNL     1      25.808   2.213  53.855  1.00  0.00     0.065 C 
HETATM    3  C4  UNL     1      24.590   2.306  53.099  1.00  0.00     0.062 A 
HETATM    4  C5  UNL     1      23.312   2.245  52.672  1.00  0.00     0.065 A 
HETATM    5  C6  UNL     1      22.227   2.320  51.941  1.00  0.00     0.087 A 
HETATM    6  N1  UNL     1      22.853   2.805  50.863  1.00  0.00    -0.240 NA
HETATM    7  C7  UNL     1      24.206   3.019  50.895  1.00  0.00     0.234 A 
HETATM    8  N2  UNL     1      25.065   2.803  51.916  1.00  0.00    -0.242 NA
HETATM    9  C8  UNL     1      20.976   1.835  52.471  1.00  0.00     0.071 C 
HETATM   10  C15 UNL     1      20.868   0.877  53.368  1.00  0.00     0.033 C 
HETATM   11  C16 UNL     1      21.515  -0.099  54.233  1.00  0.00     0.014 C 
HETATM   12  C17 UNL     1      22.789  -0.479  54.472  1.00  0.00     0.006 C 
HETATM   13  C18 UNL     1      23.041  -1.517  55.473  1.00  0.00     0.054 C 
HETATM   14  C19 UNL     1      24.138  -0.395  53.840  1.00  0.00     0.247 C 
HETATM   15  O4  UNL     1      25.271  -0.628  54.275  1.00  0.00    -0.268 OA
HETATM   16  N4  UNL     1      24.862  -0.077  52.593  1.00  0.00    -0.351 N 
HETATM   17  C20 UNL     1      26.278  -0.116  52.900  1.00  0.00     0.187 C 
HETATM   18  H18 UNL     1      24.527   0.108  51.637  1.00  0.00     0.163 HD
ENDROOT
BRANCH   9  19
HETATM   19  N3  UNL     1      20.077   2.628  51.785  1.00  0.00    -0.278 N 
HETATM   20  H7  UNL     1      19.957   3.669  51.977  1.00  0.00     0.179 HD
BRANCH  19  21
HETATM   21  S1  UNL     1      19.097   1.914  50.562  1.00  0.00     0.263 S 
HETATM   22  O2  UNL     1      19.942   0.996  49.721  1.00  0.00    -0.200 OA
HETATM   23  O3  UNL     1      18.429   2.971  49.730  1.00  0.00    -0.200 OA
BRANCH  21  24
HETATM   24  C9  UNL     1      17.850   0.941  51.300  1.00  0.00     0.079 A 
HETATM   25  C10 UNL     1      16.613   1.549  51.542  1.00  0.00     0.025 A 
HETATM   26  C11 UNL     1      15.572   0.855  52.121  1.00  0.00     0.002 A 
HETATM   27  C12 UNL     1      15.739  -0.479  52.474  1.00  0.00     0.000 A 
HETATM   28  C13 UNL     1      16.972  -1.006  52.208  1.00  0.00     0.002 A 
HETATM   29  C14 UNL     1      18.061  -0.385  51.636  1.00  0.00     0.025 A 
ENDBRANCH  21  24
ENDBRANCH  19  21
ENDBRANCH   9  19
BRANCH   1  30
HETATM   30  O1  UNL     1      27.721   1.230  54.549  1.00  0.00    -0.358 OA
HETATM   31  C1  UNL     1      28.660   0.223  54.835  1.00  0.00     0.209 C 
ENDBRANCH   1  30
TORSDOF 4
ENDMDL
MODEL 7
REMARK VINA RESULT:      -8.8      2.993      4.372
REMARK  4 active torsions:
REMARK  status: ('A' for Active; 'I' for Inactive)
REMARK    1  A    between atoms: O1_2  and  C2_3 
REMARK    2  A    between atoms: C8_11  and  N3_12 
REMARK    3  A    between atoms: N3_12  and  S1_13 
REMARK    4  A    between atoms: S1_13  and  C9_16 
ROOT
HETATM    1  C2  UNL     1      27.284   0.684  52.885  1.00  0.00     0.065 C 
HETATM    2  C3  UNL     1      26.272  -0.049  52.309  1.00  0.00     0.065 C 
HETATM    3  C4  UNL     1      24.963   0.523  52.151  1.00  0.00     0.062 A 
HETATM    4  C5  UNL     1      23.865   1.162  51.698  1.00  0.00     0.065 A 
HETATM    5  C6  UNL     1      22.672   1.694  51.603  1.00  0.00     0.087 A 
HETATM    6  N1  UNL     1      22.292   1.338  52.836  1.00  0.00    -0.240 NA
HETATM    7  C7  UNL     1      23.156   0.646  53.644  1.00  0.00     0.234 A 
HETATM    8  N2  UNL     1      24.415   0.240  53.373  1.00  0.00    -0.242 NA
HETATM    9  C8  UNL     1      22.313   2.432  50.416  1.00  0.00     0.071 C 
HETATM   10  C15 UNL     1      23.171   3.071  49.649  1.00  0.00     0.033 C 
HETATM   11  C16 UNL     1      24.546   3.460  49.373  1.00  0.00     0.014 C 
HETATM   12  C17 UNL     1      25.740   3.268  49.973  1.00  0.00     0.006 C 
HETATM   13  C18 UNL     1      26.944   3.819  49.346  1.00  0.00     0.054 C 
HETATM   14  C19 UNL     1      26.296   2.880  51.302  1.00  0.00     0.247 C 
HETATM   15  O4  UNL     1      27.432   2.553  51.660  1.00  0.00    -0.268 OA
HETATM   16  N4  UNL     1      25.968   2.683  52.729  1.00  0.00    -0.351 N 
HETATM   17  C20 UNL     1      27.143   2.117  53.362  1.00  0.00     0.187 C 
HETATM   18  H18 UNL     1      25.123   2.908  53.273  1.00  0.00     0.163 HD
ENDROOT
BRANCH   9  19
HETATM   19  N3  UNL     1      20.944   2.246  50.397  1.00  0.00    -0.278 N 
HETATM   20  H7  UNL     1      20.487   1.330  50.105  1.00  0.00     0.179 HD
BRANCH  19  21
HETATM   21  S1  UNL     1      19.918   3.549  50.861  1.00  0.00     0.263 S 
HETATM   22  O2  UNL     1      19.742   3.534  52.356  1.00  0.00    -0.200 OA
HETATM   23  O3  UNL     1      18.600   3.469  50.147  1.00  0.00    -0.200 OA
BRANCH  21  24
HETATM   24  C9  UNL     1      20.668   5.068  50.442  1.00  0.00     0.079 A 
HETATM   25  C10 UNL     1      20.405   5.590  49.170  1.00  0.00     0.025 A 
HETATM   26  C11 UNL     1      20.955   6.784  48.755  1.00  0.00     0.002 A 
HETATM   27  C12 UNL     1      21.788   7.498  49.609  1.00  0.00     0.000 A 
HETATM   28  C13 UNL     1      21.999   6.928  50.834  1.00  0.00     0.002 A 
HETATM   29  C14 UNL     1      21.492   5.745  51.325  1.00  0.00     0.025 A 
ENDBRANCH  21  24
ENDBRANCH  19  21
ENDBRANCH   9  19
BRANCH   1  30
HETATM   30  O1  UNL     1      28.439  -0.065  52.949  1.00  0.00    -0.358 OA
HETATM   31  C1  UNL     1      29.567   0.218  53.739  1.00  0.00     0.209 C 
ENDBRANCH   1  30
TORSDOF 4
ENDMDL
MODEL 8
REMARK VINA RESULT:      -8.8      4.747      7.411
REMARK  4 active torsions:
REMARK  status: ('A' for Active; 'I' for Inactive)
REMARK    1  A    between atoms: O1_2  and  C2_3 
REMARK    2  A    between atoms: C8_11  and  N3_12 
REMARK    3  A    between atoms: N3_12  and  S1_13 
REMARK    4  A    between atoms: S1_13  and  C9_16 
ROOT
HETATM    1  C2  UNL     1      26.757   9.559  49.254  1.00  0.00     0.065 C 
HETATM    2  C3  UNL     1      26.461   8.916  50.434  1.00  0.00     0.065 C 
HETATM    3  C4  UNL     1      25.696   7.700  50.424  1.00  0.00     0.062 A 
HETATM    4  C5  UNL     1      25.291   6.414  50.388  1.00  0.00     0.065 A 
HETATM    5  C6  UNL     1      24.557   5.329  50.352  1.00  0.00     0.087 A 
HETATM    6  N1  UNL     1      23.390   5.983  50.361  1.00  0.00    -0.240 NA
HETATM    7  C7  UNL     1      23.374   7.353  50.397  1.00  0.00     0.234 A 
HETATM    8  N2  UNL     1      24.423   8.204  50.428  1.00  0.00    -0.242 NA
HETATM    9  C8  UNL     1      25.196   4.040  50.239  1.00  0.00     0.071 C 
HETATM   10  C15 UNL     1      26.361   3.835  49.661  1.00  0.00     0.033 C 
HETATM   11  C16 UNL     1      27.516   4.374  48.958  1.00  0.00     0.014 C 
HETATM   12  C17 UNL     1      27.893   5.595  48.519  1.00  0.00     0.006 C 
HETATM   13  C18 UNL     1      29.189   5.739  47.854  1.00  0.00     0.054 C 
HETATM   14  C19 UNL     1      27.295   6.927  48.211  1.00  0.00     0.247 C 
HETATM   15  O4  UNL     1      27.804   8.031  47.994  1.00  0.00    -0.268 OA
HETATM   16  N4  UNL     1      26.026   7.652  47.995  1.00  0.00    -0.351 N 
HETATM   17  C20 UNL     1      26.355   9.059  47.879  1.00  0.00     0.187 C 
HETATM   18  H18 UNL     1      25.058   7.319  47.890  1.00  0.00     0.163 HD
ENDROOT
BRANCH   9  19
HETATM   19  N3  UNL     1      24.267   3.233  50.864  1.00  0.00    -0.278 N 
HETATM   20  H7  UNL     1      23.378   2.893  50.386  1.00  0.00     0.179 HD
BRANCH  19  21
HETATM   21  S1  UNL     1      24.544   2.746  52.493  1.00  0.00     0.263 S 
HETATM   22  O2  UNL     1      24.080   3.835  53.422  1.00  0.00    -0.200 OA
HETATM   23  O3  UNL     1      25.991   2.410  52.710  1.00  0.00    -0.200 OA
BRANCH  21  24
HETATM   24  C9  UNL     1      23.600   1.322  52.851  1.00  0.00     0.079 A 
HETATM   25  C10 UNL     1      22.209   1.419  52.728  1.00  0.00     0.025 A 
HETATM   26  C11 UNL     1      21.387   0.345  52.990  1.00  0.00     0.002 A 
HETATM   27  C12 UNL     1      21.937  -0.870  53.384  1.00  0.00     0.000 A 
HETATM   28  C13 UNL     1      23.301  -0.891  53.483  1.00  0.00     0.002 A 
HETATM   29  C14 UNL     1      24.191   0.132  53.241  1.00  0.00     0.025 A 
ENDBRANCH  21  24
ENDBRANCH  19  21
ENDBRANCH   9  19
BRANCH   1  30
HETATM   30  O1  UNL     1      27.481  10.705  49.503  1.00  0.00    -0.358 OA
HETATM   31  C1  UNL     1      28.478  11.251  48.677  1.00  0.00     0.209 C 
ENDBRANCH   1  30
TORSDOF 4
ENDMDL
MODEL 9
REMARK VINA RESULT:      -8.6      4.411      6.732
REMARK  4 active torsions:
REMARK  status: ('A' for Active; 'I' for Inactive)
REMARK    1  A    between atoms: O1_2  and  C2_3 
REMARK    2  A    between atoms: C8_11  and  N3_12 
REMARK    3  A    between atoms: N3_12  and  S1_13 
REMARK    4  A    between atoms: S1_13  and  C9_16 
ROOT
HETATM    1  C2  UNL     1      25.529   8.730  48.893  1.00  0.00     0.065 C 
HETATM    2  C3  UNL     1      25.138   8.601  50.205  1.00  0.00     0.065 C 
HETATM    3  C4  UNL     1      24.162   7.614  50.576  1.00  0.00     0.062 A 
HETATM    4  C5  UNL     1      23.528   6.489  50.965  1.00  0.00     0.065 A 
HETATM    5  C6  UNL     1      22.607   5.608  51.268  1.00  0.00     0.087 A 
HETATM    6  N1  UNL     1      21.580   6.420  50.993  1.00  0.00    -0.240 NA
HETATM    7  C7  UNL     1      21.816   7.697  50.554  1.00  0.00     0.234 A 
HETATM    8  N2  UNL     1      23.004   8.305  50.343  1.00  0.00    -0.242 NA
HETATM    9  C8  UNL     1      22.996   4.269  51.639  1.00  0.00     0.071 C 
HETATM   10  C15 UNL     1      24.095   3.672  51.226  1.00  0.00     0.033 C 
HETATM   11  C16 UNL     1      25.318   3.719  50.439  1.00  0.00     0.014 C 
HETATM   12  C17 UNL     1      25.906   4.623  49.626  1.00  0.00     0.006 C 
HETATM   13  C18 UNL     1      27.197   4.295  49.018  1.00  0.00     0.054 C 
HETATM   14  C19 UNL     1      25.559   5.849  48.848  1.00  0.00     0.247 C 
HETATM   15  O4  UNL     1      26.259   6.700  48.289  1.00  0.00    -0.268 OA
HETATM   16  N4  UNL     1      24.442   6.667  48.333  1.00  0.00    -0.351 N 
HETATM   17  C20 UNL     1      25.022   7.863  47.755  1.00  0.00     0.187 C 
HETATM   18  H18 UNL     1      23.427   6.495  48.300  1.00  0.00     0.163 HD
ENDROOT
BRANCH   9  19
HETATM   19  N3  UNL     1      21.944   3.907  52.456  1.00  0.00    -0.278 N 
HETATM   20  H7  UNL     1      21.683   4.444  53.338  1.00  0.00     0.179 HD
BRANCH  19  21
HETATM   21  S1  UNL     1      21.002   2.525  52.044  1.00  0.00     0.263 S 
HETATM   22  O2  UNL     1      21.155   2.241  50.575  1.00  0.00    -0.200 OA
HETATM   23  O3  UNL     1      19.564   2.728  52.424  1.00  0.00    -0.200 OA
BRANCH  21  24
HETATM   24  C9  UNL     1      21.596   1.129  52.907  1.00  0.00     0.079 A 
HETATM   25  C10 UNL     1      20.833   0.661  53.983  1.00  0.00     0.025 A 
HETATM   26  C11 UNL     1      21.226  -0.436  54.720  1.00  0.00     0.002 A 
HETATM   27  C12 UNL     1      22.403  -1.102  54.398  1.00  0.00     0.000 A 
HETATM   28  C13 UNL     1      23.096  -0.589  53.337  1.00  0.00     0.002 A 
HETATM   29  C14 UNL     1      22.775   0.497  52.552  1.00  0.00     0.025 A 
ENDBRANCH  21  24
ENDBRANCH  19  21
ENDBRANCH   9  19
BRANCH   1  30
HETATM   30  O1  UNL     1      26.455   9.744  48.767  1.00  0.00    -0.358 OA
HETATM   31  C1  UNL     1      27.601   9.922  49.562  1.00  0.00     0.209 C 
ENDBRANCH   1  30
TORSDOF 4
ENDMDL
