MODEL 1
REMARK VINA RESULT:      -7.8      0.000      0.000
REMARK  5 active torsions:
REMARK  status: ('A' for Active; 'I' for Inactive)
REMARK    1  A    between atoms: N1_1  and  C1_2 
REMARK    2  A    between atoms: N2_5  and  C4_6 
REMARK    3  A    between atoms: C4_6  and  C5_7 
REMARK    4  A    between atoms: C9_14  and  N6_15 
REMARK    5  A    between atoms: N6_15  and  C10_16 
ROOT
HETATM    1  C5  UNL     1      24.164   1.001  52.311  1.00  0.00    -0.007 A 
HETATM    2  C6  UNL     1      22.788   0.767  52.113  1.00  0.00     0.030 A 
HETATM    3  C7  UNL     1      22.237  -0.075  53.055  1.00  0.00     0.119 A 
HETATM    4  N3  UNL     1      23.274  -0.375  53.857  1.00  0.00    -0.240 N 
HETATM    5  N4  UNL     1      23.316  -1.135  54.939  1.00  0.00    -0.161 NA
HETATM    6  C8  UNL     1      24.442  -1.320  55.647  1.00  0.00     0.258 A 
HETATM    7  N5  UNL     1      25.593  -0.704  55.246  1.00  0.00    -0.220 NA
HETATM    8  C9  UNL     1      25.531   0.053  54.159  1.00  0.00     0.159 A 
HETATM    9  C14 UNL     1      24.382   0.249  53.422  1.00  0.00     0.112 A 
ENDROOT
BRANCH   1  10
HETATM   10  C4  UNL     1      25.008   1.825  51.428  1.00  0.00     0.158 C 
BRANCH  10  11
HETATM   11  N2  UNL     1      24.550   3.150  51.377  1.00  0.00    -0.408 N 
HETATM   12  C3  UNL     1      24.990   4.080  50.449  1.00  0.00     0.119 C 
HETATM   13  C2  UNL     1      23.967   5.209  50.311  1.00  0.00     0.055 C 
HETATM   14  C1  UNL     1      23.397   5.681  51.598  1.00  0.00     0.221 C 
HETATM   15  C16 UNL     1      23.035   4.545  52.547  1.00  0.00     0.055 C 
HETATM   16  C15 UNL     1      24.298   3.722  52.697  1.00  0.00     0.119 C 
BRANCH  14  17
HETATM   17  N1  UNL     1      24.269   6.630  52.236  1.00  0.00     0.083 N 
HETATM   18  H1  UNL     1      23.804   7.510  52.473  1.00  0.00     0.313 HD
HETATM   19  H2  UNL     1      25.167   6.784  51.738  1.00  0.00     0.313 HD
ENDBRANCH  14  17
ENDBRANCH  10  11
ENDBRANCH   1  10
BRANCH   8  20
HETATM   20  N6  UNL     1      26.753   0.678  53.794  1.00  0.00    -0.339 N 
HETATM   21  H13 UNL     1      27.215   1.573  53.548  1.00  0.00     0.167 HD
BRANCH  20  22
HETATM   22  C10 UNL     1      27.926  -0.136  53.668  1.00  0.00     0.033 A 
HETATM   23  C11 UNL     1      29.100   0.198  54.200  1.00  0.00     0.029 A 
HETATM   24  C12 UNL     1      29.800  -1.003  53.719  1.00  0.00     0.004 A 
HETATM   25  C13 UNL     1      28.620  -1.340  53.183  1.00  0.00     0.029 A 
ENDBRANCH  20  22
ENDBRANCH   8  20
TORSDOF 5
ENDMDL
MODEL 2
REMARK VINA RESULT:      -7.6      2.170      5.783
REMARK  5 active torsions:
REMARK  status: ('A' for Active; 'I' for Inactive)
REMARK    1  A    between atoms: N1_1  and  C1_2 
REMARK    2  A    between atoms: N2_5  and  C4_6 
REMARK    3  A    between atoms: C4_6  and  C5_7 
REMARK    4  A    between atoms: C9_14  and  N6_15 
REMARK    5  A    between atoms: N6_15  and  C10_16 
ROOT
HETATM    1  C5  UNL     1      22.936   1.272  51.996  1.00  0.00    -0.007 A 
HETATM    2  C6  UNL     1      21.902   0.314  51.983  1.00  0.00     0.030 A 
HETATM    3  C7  UNL     1      21.241   0.241  50.775  1.00  0.00     0.119 A 
HETATM    4  N3  UNL     1      21.864   1.160  50.017  1.00  0.00    -0.240 N 
HETATM    5  N4  UNL     1      21.652   1.504  48.758  1.00  0.00    -0.161 NA
HETATM    6  C8  UNL     1      22.383   2.440  48.132  1.00  0.00     0.258 A 
HETATM    7  N5  UNL     1      23.389   3.067  48.811  1.00  0.00    -0.220 NA
HETATM    8  C9  UNL     1      23.586   2.709  50.073  1.00  0.00     0.159 A 
HETATM    9  C14 UNL     1      22.840   1.751  50.727  1.00  0.00     0.112 A 
ENDROOT
BRANCH   1  10
HETATM   10  C4  UNL     1      23.771   1.587  53.168  1.00  0.00     0.158 C 
BRANCH  10  11
HETATM   11  N2  UNL     1      24.957   0.838  53.163  1.00  0.00    -0.408 N 
HETATM   12  C3  UNL     1      25.019  -0.507  53.495  1.00  0.00     0.119 C 
HETATM   13  C2  UNL     1      26.279  -1.137  52.903  1.00  0.00     0.055 C 
HETATM   14  C1  UNL     1      27.500  -0.301  53.029  1.00  0.00     0.221 C 
HETATM   15  C16 UNL     1      27.258   1.169  52.709  1.00  0.00     0.055 C 
HETATM   16  C15 UNL     1      26.120   1.599  53.611  1.00  0.00     0.119 C 
BRANCH  14  17
HETATM   17  N1  UNL     1      28.104  -0.455  54.325  1.00  0.00     0.083 N 
HETATM   18  H1  UNL     1      27.577   0.003  55.073  1.00  0.00     0.313 HD
HETATM   19  H2  UNL     1      29.114  -0.215  54.354  1.00  0.00     0.313 HD
ENDBRANCH  14  17
ENDBRANCH  10  11
ENDBRANCH   1  10
BRANCH   8  20
HETATM   20  N6  UNL     1      24.651   3.383  50.727  1.00  0.00    -0.339 N 
HETATM   21  H13 UNL     1      25.082   3.615  51.641  1.00  0.00     0.167 HD
BRANCH  20  22
HETATM   22  C10 UNL     1      25.608   4.088  49.926  1.00  0.00     0.033 A 
HETATM   23  C11 UNL     1      26.757   3.548  49.528  1.00  0.00     0.029 A 
HETATM   24  C12 UNL     1      27.209   4.742  48.797  1.00  0.00     0.004 A 
HETATM   25  C13 UNL     1      26.053   5.286  49.197  1.00  0.00     0.029 A 
ENDBRANCH  20  22
ENDBRANCH   8  20
TORSDOF 5
ENDMDL
MODEL 3
REMARK VINA RESULT:      -7.3      2.379      5.927
REMARK  5 active torsions:
REMARK  status: ('A' for Active; 'I' for Inactive)
REMARK    1  A    between atoms: N1_1  and  C1_2 
REMARK    2  A    between atoms: N2_5  and  C4_6 
REMARK    3  A    between atoms: C4_6  and  C5_7 
REMARK    4  A    between atoms: C9_14  and  N6_15 
REMARK    5  A    between atoms: N6_15  and  C10_16 
ROOT
HETATM    1  C5  UNL     1      23.421   0.376  53.020  1.00  0.00    -0.007 A 
HETATM    2  C6  UNL     1      23.501  -0.674  53.956  1.00  0.00     0.030 A 
HETATM    3  C7  UNL     1      22.274  -1.222  54.267  1.00  0.00     0.119 A 
HETATM    4  N3  UNL     1      21.411  -0.511  53.520  1.00  0.00    -0.240 N 
HETATM    5  N4  UNL     1      20.098  -0.619  53.410  1.00  0.00    -0.161 NA
HETATM    6  C8  UNL     1      19.374   0.166  52.594  1.00  0.00     0.258 A 
HETATM    7  N5  UNL     1      20.010   1.114  51.843  1.00  0.00    -0.220 NA
HETATM    8  C9  UNL     1      21.327   1.207  51.968  1.00  0.00     0.159 A 
HETATM    9  C14 UNL     1      22.079   0.409  52.803  1.00  0.00     0.112 A 
ENDROOT
BRANCH   1  10
HETATM   10  C4  UNL     1      24.572   1.164  52.546  1.00  0.00     0.158 C 
BRANCH  10  11
HETATM   11  N2  UNL     1      25.775   0.682  53.086  1.00  0.00    -0.408 N 
HETATM   12  C3  UNL     1      26.440   1.287  54.141  1.00  0.00     0.119 C 
HETATM   13  C2  UNL     1      27.372   0.283  54.819  1.00  0.00     0.055 C 
HETATM   14  C1  UNL     1      28.134  -0.579  53.879  1.00  0.00     0.221 C 
HETATM   15  C16 UNL     1      27.286  -1.105  52.727  1.00  0.00     0.055 C 
HETATM   16  C15 UNL     1      26.672   0.120  52.081  1.00  0.00     0.119 C 
BRANCH  14  17
HETATM   17  N1  UNL     1      29.308   0.093  53.392  1.00  0.00     0.083 N 
HETATM   18  H1  UNL     1      30.046   0.176  54.096  1.00  0.00     0.313 HD
HETATM   19  H2  UNL     1      29.115   0.997  52.919  1.00  0.00     0.313 HD
ENDBRANCH  14  17
ENDBRANCH  10  11
ENDBRANCH   1  10
BRANCH   8  20
HETATM   20  N6  UNL     1      21.936   2.200  51.156  1.00  0.00    -0.339 N 
HETATM   21  H13 UNL     1      22.392   3.131  51.142  1.00  0.00     0.167 HD
BRANCH  20  22
HETATM   22  C10 UNL     1      22.030   1.966  49.744  1.00  0.00     0.033 A 
HETATM   23  C11 UNL     1      22.819   2.679  48.943  1.00  0.00     0.029 A 
HETATM   24  C12 UNL     1      22.445   1.949  47.722  1.00  0.00     0.004 A 
HETATM   25  C13 UNL     1      21.651   1.232  48.527  1.00  0.00     0.029 A 
ENDBRANCH  20  22
ENDBRANCH   8  20
TORSDOF 5
ENDMDL
MODEL 4
REMARK VINA RESULT:      -7.2      2.254      5.730
REMARK  5 active torsions:
REMARK  status: ('A' for Active; 'I' for Inactive)
REMARK    1  A    between atoms: N1_1  and  C1_2 
REMARK    2  A    between atoms: N2_5  and  C4_6 
REMARK    3  A    between atoms: C4_6  and  C5_7 
REMARK    4  A    between atoms: C9_14  and  N6_15 
REMARK    5  A    between atoms: N6_15  and  C10_16 
ROOT
HETATM    1  C5  UNL     1      23.862   2.693  51.255  1.00  0.00    -0.007 A 
HETATM    2  C6  UNL     1      24.406   3.134  50.032  1.00  0.00     0.030 A 
HETATM    3  C7  UNL     1      23.593   2.877  48.949  1.00  0.00     0.119 A 
HETATM    4  N3  UNL     1      22.524   2.268  49.493  1.00  0.00    -0.240 N 
HETATM    5  N4  UNL     1      21.423   1.815  48.917  1.00  0.00    -0.161 NA
HETATM    6  C8  UNL     1      20.428   1.242  49.612  1.00  0.00     0.258 A 
HETATM    7  N5  UNL     1      20.545   1.118  50.968  1.00  0.00    -0.220 NA
HETATM    8  C9  UNL     1      21.657   1.578  51.527  1.00  0.00     0.159 A 
HETATM    9  C14 UNL     1      22.686   2.166  50.823  1.00  0.00     0.112 A 
ENDROOT
BRANCH   1  10
HETATM   10  C4  UNL     1      24.538   2.802  52.560  1.00  0.00     0.158 C 
BRANCH  10  11
HETATM   11  N2  UNL     1      25.538   1.827  52.697  1.00  0.00    -0.408 N 
HETATM   12  C3  UNL     1      25.317   0.470  52.525  1.00  0.00     0.119 C 
HETATM   13  C2  UNL     1      26.635  -0.243  52.221  1.00  0.00     0.055 C 
HETATM   14  C1  UNL     1      27.781   0.207  53.051  1.00  0.00     0.221 C 
HETATM   15  C16 UNL     1      27.847   1.720  53.215  1.00  0.00     0.055 C 
HETATM   16  C15 UNL     1      26.493   2.129  53.759  1.00  0.00     0.119 C 
BRANCH  14  17
HETATM   17  N1  UNL     1      27.789  -0.453  54.329  1.00  0.00     0.083 N 
HETATM   18  H1  UNL     1      26.956  -1.025  54.492  1.00  0.00     0.313 HD
HETATM   19  H2  UNL     1      27.995   0.175  55.129  1.00  0.00     0.313 HD
ENDBRANCH  14  17
ENDBRANCH  10  11
ENDBRANCH   1  10
BRANCH   8  20
HETATM   20  N6  UNL     1      21.720   1.433  52.938  1.00  0.00    -0.339 N 
HETATM   21  H13 UNL     1      21.747   1.931  53.848  1.00  0.00     0.167 HD
BRANCH  20  22
HETATM   22  C10 UNL     1      21.783   0.111  53.488  1.00  0.00     0.033 A 
HETATM   23  C11 UNL     1      21.180  -0.229  54.625  1.00  0.00     0.029 A 
HETATM   24  C12 UNL     1      21.628  -1.630  54.588  1.00  0.00     0.004 A 
HETATM   25  C13 UNL     1      22.235  -1.288  53.444  1.00  0.00     0.029 A 
ENDBRANCH  20  22
ENDBRANCH   8  20
TORSDOF 5
ENDMDL
MODEL 5
REMARK VINA RESULT:      -7.1      1.575      3.902
REMARK  5 active torsions:
REMARK  status: ('A' for Active; 'I' for Inactive)
REMARK    1  A    between atoms: N1_1  and  C1_2 
REMARK    2  A    between atoms: N2_5  and  C4_6 
REMARK    3  A    between atoms: C4_6  and  C5_7 
REMARK    4  A    between atoms: C9_14  and  N6_15 
REMARK    5  A    between atoms: N6_15  and  C10_16 
ROOT
HETATM    1  C5  UNL     1      25.951   1.767  52.098  1.00  0.00    -0.007 A 
HETATM    2  C6  UNL     1      27.185   2.438  52.217  1.00  0.00     0.030 A 
HETATM    3  C7  UNL     1      27.909   2.058  53.328  1.00  0.00     0.119 A 
HETATM    4  N3  UNL     1      27.124   1.137  53.916  1.00  0.00    -0.240 N 
HETATM    5  N4  UNL     1      27.329   0.426  55.012  1.00  0.00    -0.161 NA
HETATM    6  C8  UNL     1      26.445  -0.478  55.463  1.00  0.00     0.258 A 
HETATM    7  N5  UNL     1      25.286  -0.681  54.769  1.00  0.00    -0.220 NA
HETATM    8  C9  UNL     1      25.098   0.042  53.673  1.00  0.00     0.159 A 
HETATM    9  C14 UNL     1      25.998   0.974  53.202  1.00  0.00     0.112 A 
ENDROOT
BRANCH   1  10
HETATM   10  C4  UNL     1      24.964   2.012  51.033  1.00  0.00     0.158 C 
BRANCH  10  11
HETATM   11  N2  UNL     1      24.553   3.354  51.020  1.00  0.00    -0.408 N 
HETATM   12  C3  UNL     1      25.187   4.345  50.287  1.00  0.00     0.119 C 
HETATM   13  C2  UNL     1      24.236   5.521  50.060  1.00  0.00     0.055 C 
HETATM   14  C1  UNL     1      23.433   5.899  51.251  1.00  0.00     0.221 C 
HETATM   15  C16 UNL     1      22.867   4.698  52.000  1.00  0.00     0.055 C 
HETATM   16  C15 UNL     1      24.058   3.816  52.313  1.00  0.00     0.119 C 
BRANCH  14  17
HETATM   17  N1  UNL     1      24.182   6.752  52.134  1.00  0.00     0.083 N 
HETATM   18  H1  UNL     1      25.023   7.142  51.700  1.00  0.00     0.313 HD
HETATM   19  H2  UNL     1      24.379   6.333  53.063  1.00  0.00     0.313 HD
ENDBRANCH  14  17
ENDBRANCH  10  11
ENDBRANCH   1  10
BRANCH   8  20
HETATM   20  N6  UNL     1      23.882  -0.219  52.985  1.00  0.00    -0.339 N 
HETATM   21  H13 UNL     1      23.451  -0.456  52.073  1.00  0.00     0.167 HD
BRANCH  20  22
HETATM   22  C10 UNL     1      22.654  -0.162  53.723  1.00  0.00     0.033 A 
HETATM   23  C11 UNL     1      21.710   0.746  53.489  1.00  0.00     0.029 A 
HETATM   24  C12 UNL     1      20.799   0.249  54.531  1.00  0.00     0.004 A 
HETATM   25  C13 UNL     1      21.749  -0.665  54.768  1.00  0.00     0.029 A 
ENDBRANCH  20  22
ENDBRANCH   8  20
TORSDOF 5
ENDMDL
MODEL 6
REMARK VINA RESULT:      -7.0      2.046      5.760
REMARK  5 active torsions:
REMARK  status: ('A' for Active; 'I' for Inactive)
REMARK    1  A    between atoms: N1_1  and  C1_2 
REMARK    2  A    between atoms: N2_5  and  C4_6 
REMARK    3  A    between atoms: C4_6  and  C5_7 
REMARK    4  A    between atoms: C9_14  and  N6_15 
REMARK    5  A    between atoms: N6_15  and  C10_16 
ROOT
HETATM    1  C5  UNL     1      23.919   2.052  51.985  1.00  0.00    -0.007 A 
HETATM    2  C6  UNL     1      24.601   3.285  51.971  1.00  0.00     0.030 A 
HETATM    3  C7  UNL     1      23.757   4.376  51.978  1.00  0.00     0.119 A 
HETATM    4  N3  UNL     1      22.530   3.825  51.996  1.00  0.00    -0.240 N 
HETATM    5  N4  UNL     1      21.342   4.406  52.025  1.00  0.00    -0.161 NA
HETATM    6  C8  UNL     1      20.196   3.706  52.060  1.00  0.00     0.258 A 
HETATM    7  N5  UNL     1      20.248   2.341  52.069  1.00  0.00    -0.220 NA
HETATM    8  C9  UNL     1      21.448   1.777  52.039  1.00  0.00     0.159 A 
HETATM    9  C14 UNL     1      22.631   2.485  52.000  1.00  0.00     0.112 A 
ENDROOT
BRANCH   1  10
HETATM   10  C4  UNL     1      24.574   0.733  51.938  1.00  0.00     0.158 C 
BRANCH  10  11
HETATM   11  N2  UNL     1      25.758   0.726  52.692  1.00  0.00    -0.408 N 
HETATM   12  C3  UNL     1      27.013   0.960  52.152  1.00  0.00     0.119 C 
HETATM   13  C2  UNL     1      27.982   1.402  53.250  1.00  0.00     0.055 C 
HETATM   14  C1  UNL     1      27.868   0.632  54.515  1.00  0.00     0.221 C 
HETATM   15  C16 UNL     1      26.424   0.385  54.938  1.00  0.00     0.055 C 
HETATM   16  C15 UNL     1      25.761  -0.280  53.750  1.00  0.00     0.119 C 
BRANCH  14  17
HETATM   17  N1  UNL     1      28.604  -0.601  54.443  1.00  0.00     0.083 N 
HETATM   18  H1  UNL     1      29.340  -0.590  53.732  1.00  0.00     0.313 HD
HETATM   19  H2  UNL     1      28.007  -1.448  54.375  1.00  0.00     0.313 HD
ENDBRANCH  14  17
ENDBRANCH  10  11
ENDBRANCH   1  10
BRANCH   8  20
HETATM   20  N6  UNL     1      21.443   0.357  52.062  1.00  0.00    -0.339 N 
HETATM   21  H13 UNL     1      21.368  -0.506  51.493  1.00  0.00     0.167 HD
BRANCH  20  22
HETATM   22  C10 UNL     1      21.587  -0.307  53.324  1.00  0.00     0.033 A 
HETATM   23  C11 UNL     1      22.123  -1.519  53.448  1.00  0.00     0.029 A 
HETATM   24  C12 UNL     1      21.967  -1.574  54.910  1.00  0.00     0.004 A 
HETATM   25  C13 UNL     1      21.428  -0.355  54.786  1.00  0.00     0.029 A 
ENDBRANCH  20  22
ENDBRANCH   8  20
TORSDOF 5
ENDMDL
MODEL 7
REMARK VINA RESULT:      -7.0      1.611      2.157
REMARK  5 active torsions:
REMARK  status: ('A' for Active; 'I' for Inactive)
REMARK    1  A    between atoms: N1_1  and  C1_2 
REMARK    2  A    between atoms: N2_5  and  C4_6 
REMARK    3  A    between atoms: C4_6  and  C5_7 
REMARK    4  A    between atoms: C9_14  and  N6_15 
REMARK    5  A    between atoms: N6_15  and  C10_16 
ROOT
HETATM    1  C5  UNL     1      21.863   0.496  52.196  1.00  0.00    -0.007 A 
HETATM    2  C6  UNL     1      20.491   0.280  52.435  1.00  0.00     0.030 A 
HETATM    3  C7  UNL     1      20.245  -0.462  53.571  1.00  0.00     0.119 A 
HETATM    4  N3  UNL     1      21.474  -0.716  54.055  1.00  0.00    -0.240 N 
HETATM    5  N4  UNL     1      21.835  -1.378  55.141  1.00  0.00    -0.161 NA
HETATM    6  C8  UNL     1      23.121  -1.529  55.501  1.00  0.00     0.258 A 
HETATM    7  N5  UNL     1      24.100  -0.979  54.723  1.00  0.00    -0.220 NA
HETATM    8  C9  UNL     1      23.718  -0.320  53.638  1.00  0.00     0.159 A 
HETATM    9  C14 UNL     1      22.402  -0.160  53.258  1.00  0.00     0.112 A 
ENDROOT
BRANCH   1  10
HETATM   10  C4  UNL     1      22.407   1.217  51.032  1.00  0.00     0.158 C 
BRANCH  10  11
HETATM   11  N2  UNL     1      22.217   2.602  51.158  1.00  0.00    -0.408 N 
HETATM   12  C3  UNL     1      21.394   3.343  50.324  1.00  0.00     0.119 C 
HETATM   13  C2  UNL     1      20.992   4.650  51.010  1.00  0.00     0.055 C 
HETATM   14  C1  UNL     1      22.097   5.330  51.731  1.00  0.00     0.221 C 
HETATM   15  C16 UNL     1      22.964   4.373  52.541  1.00  0.00     0.055 C 
HETATM   16  C15 UNL     1      23.426   3.314  51.561  1.00  0.00     0.119 C 
BRANCH  14  17
HETATM   17  N1  UNL     1      22.898   6.117  50.833  1.00  0.00     0.083 N 
HETATM   18  H1  UNL     1      23.897   6.089  51.053  1.00  0.00     0.313 HD
HETATM   19  H2  UNL     1      22.555   7.088  50.698  1.00  0.00     0.313 HD
ENDBRANCH  14  17
ENDBRANCH  10  11
ENDBRANCH   1  10
BRANCH   8  20
HETATM   20  N6  UNL     1      24.776   0.240  52.874  1.00  0.00    -0.339 N 
HETATM   21  H13 UNL     1      25.022   0.792  52.032  1.00  0.00     0.167 HD
BRANCH  20  22
HETATM   22  C10 UNL     1      26.123   0.040  53.322  1.00  0.00     0.033 A 
HETATM   23  C11 UNL     1      27.066  -0.509  52.560  1.00  0.00     0.029 A 
HETATM   24  C12 UNL     1      28.122  -0.409  53.579  1.00  0.00     0.004 A 
HETATM   25  C13 UNL     1      27.174   0.143  54.347  1.00  0.00     0.029 A 
ENDBRANCH  20  22
ENDBRANCH   8  20
TORSDOF 5
ENDMDL
MODEL 8
REMARK VINA RESULT:      -6.7      7.428     10.736
REMARK  5 active torsions:
REMARK  status: ('A' for Active; 'I' for Inactive)
REMARK    1  A    between atoms: N1_1  and  C1_2 
REMARK    2  A    between atoms: N2_5  and  C4_6 
REMARK    3  A    between atoms: C4_6  and  C5_7 
REMARK    4  A    between atoms: C9_14  and  N6_15 
REMARK    5  A    between atoms: N6_15  and  C10_16 
ROOT
HETATM    1  C5  UNL     1      31.234   6.427  48.422  1.00  0.00    -0.007 A 
HETATM    2  C6  UNL     1      32.384   7.074  48.918  1.00  0.00     0.030 A 
HETATM    3  C7  UNL     1      32.127   8.332  49.422  1.00  0.00     0.119 A 
HETATM    4  N3  UNL     1      30.803   8.481  49.243  1.00  0.00    -0.240 N 
HETATM    5  N4  UNL     1      30.014   9.494  49.559  1.00  0.00    -0.161 NA
HETATM    6  C8  UNL     1      28.691   9.479  49.328  1.00  0.00     0.258 A 
HETATM    7  N5  UNL     1      28.127   8.380  48.746  1.00  0.00    -0.220 NA
HETATM    8  C9  UNL     1      28.935   7.374  48.436  1.00  0.00     0.159 A 
HETATM    9  C14 UNL     1      30.294   7.379  48.666  1.00  0.00     0.112 A 
ENDROOT
BRANCH   1  10
HETATM   10  C4  UNL     1      31.230   5.097  47.789  1.00  0.00     0.158 C 
BRANCH  10  11
HETATM   11  N2  UNL     1      32.467   4.815  47.189  1.00  0.00    -0.408 N 
HETATM   12  C3  UNL     1      32.745   5.057  45.853  1.00  0.00     0.119 C 
HETATM   13  C2  UNL     1      34.257   5.149  45.640  1.00  0.00     0.055 C 
HETATM   14  C1  UNL     1      35.043   4.124  46.372  1.00  0.00     0.221 C 
HETATM   15  C16 UNL     1      34.568   3.913  47.805  1.00  0.00     0.055 C 
HETATM   16  C15 UNL     1      33.090   3.598  47.700  1.00  0.00     0.119 C 
BRANCH  14  17
HETATM   17  N1  UNL     1      35.077   2.881  45.650  1.00  0.00     0.083 N 
HETATM   18  H1  UNL     1      34.554   2.910  44.772  1.00  0.00     0.313 HD
HETATM   19  H2  UNL     1      34.833   2.050  46.223  1.00  0.00     0.313 HD
ENDBRANCH  14  17
ENDBRANCH  10  11
ENDBRANCH   1  10
BRANCH   8  20
HETATM   20  N6  UNL     1      28.294   6.253  47.844  1.00  0.00    -0.339 N 
HETATM   21  H13 UNL     1      28.258   5.626  47.019  1.00  0.00     0.167 HD
BRANCH  20  22
HETATM   22  C10 UNL     1      27.231   5.615  48.564  1.00  0.00     0.033 A 
HETATM   23  C11 UNL     1      27.280   4.341  48.949  1.00  0.00     0.029 A 
HETATM   24  C12 UNL     1      25.955   4.355  49.589  1.00  0.00     0.004 A 
HETATM   25  C13 UNL     1      25.906   5.636  49.202  1.00  0.00     0.029 A 
ENDBRANCH  20  22
ENDBRANCH   8  20
TORSDOF 5
ENDMDL
MODEL 9
REMARK VINA RESULT:      -6.6      2.381      4.866
REMARK  5 active torsions:
REMARK  status: ('A' for Active; 'I' for Inactive)
REMARK    1  A    between atoms: N1_1  and  C1_2 
REMARK    2  A    between atoms: N2_5  and  C4_6 
REMARK    3  A    between atoms: C4_6  and  C5_7 
REMARK    4  A    between atoms: C9_14  and  N6_15 
REMARK    5  A    between atoms: N6_15  and  C10_16 
ROOT
HETATM    1  C5  UNL     1      24.414   2.845  51.385  1.00  0.00    -0.007 A 
HETATM    2  C6  UNL     1      25.504   3.249  50.589  1.00  0.00     0.030 A 
HETATM    3  C7  UNL     1      26.647   2.510  50.813  1.00  0.00     0.119 A 
HETATM    4  N3  UNL     1      26.275   1.631  51.760  1.00  0.00    -0.240 N 
HETATM    5  N4  UNL     1      26.971   0.668  52.342  1.00  0.00    -0.161 NA
HETATM    6  C8  UNL     1      26.440  -0.147  53.268  1.00  0.00     0.258 A 
HETATM    7  N5  UNL     1      25.133   0.013  53.629  1.00  0.00    -0.220 NA
HETATM    8  C9  UNL     1      24.452   0.985  53.035  1.00  0.00     0.159 A 
HETATM    9  C14 UNL     1      24.986   1.829  52.085  1.00  0.00     0.112 A 
ENDROOT
BRANCH   1  10
HETATM   10  C4  UNL     1      23.089   3.489  51.380  1.00  0.00     0.158 C 
BRANCH  10  11
HETATM   11  N2  UNL     1      22.105   2.623  50.881  1.00  0.00    -0.408 N 
HETATM   12  C3  UNL     1      22.235   1.910  49.699  1.00  0.00     0.119 C 
HETATM   13  C2  UNL     1      21.288   0.710  49.702  1.00  0.00     0.055 C 
HETATM   14  C1  UNL     1      19.930   1.001  50.229  1.00  0.00     0.221 C 
HETATM   15  C16 UNL     1      19.946   1.861  51.487  1.00  0.00     0.055 C 
HETATM   16  C15 UNL     1      20.745   3.096  51.125  1.00  0.00     0.119 C 
BRANCH  14  17
HETATM   17  N1  UNL     1      19.093   1.584  49.215  1.00  0.00     0.083 N 
HETATM   18  H1  UNL     1      18.182   1.124  49.131  1.00  0.00     0.313 HD
HETATM   19  H2  UNL     1      19.559   1.700  48.295  1.00  0.00     0.313 HD
ENDBRANCH  14  17
ENDBRANCH  10  11
ENDBRANCH   1  10
BRANCH   8  20
HETATM   20  N6  UNL     1      23.096   1.099  53.440  1.00  0.00    -0.339 N 
HETATM   21  H13 UNL     1      22.326   1.753  53.676  1.00  0.00     0.167 HD
BRANCH  20  22
HETATM   22  C10 UNL     1      22.345  -0.102  53.661  1.00  0.00     0.033 A 
HETATM   23  C11 UNL     1      21.612  -0.308  54.753  1.00  0.00     0.029 A 
HETATM   24  C12 UNL     1      21.150  -1.643  54.342  1.00  0.00     0.004 A 
HETATM   25  C13 UNL     1      21.887  -1.436  53.243  1.00  0.00     0.029 A 
ENDBRANCH  20  22
ENDBRANCH   8  20
TORSDOF 5
ENDMDL
