MODEL 1
REMARK VINA RESULT:      -7.3      0.000      0.000
REMARK  7 active torsions:
REMARK  status: ('A' for Active; 'I' for Inactive)
REMARK    1  A    between atoms: C2_2  and  C3_3 
REMARK    2  A    between atoms: C2_2  and  C12_15 
REMARK    3  A    between atoms: C4_4  and  C5_5 
REMARK    4  A    between atoms: C10_10  and  O1_11 
REMARK    5  A    between atoms: O1_11  and  C11_12 
REMARK    6  A    between atoms: C12_15  and  C13_16 
REMARK    7  A    between atoms: C15_18  and  O4_20 
ROOT
HETATM    1  C3  UNL     1      24.822   1.793  52.177  1.00  0.00    -0.019 C 
HETATM    2  C4  UNL     1      23.980   0.798  51.950  1.00  0.00     0.033 C 
ENDROOT
BRANCH   1   3
HETATM    3  C2  UNL     1      25.913   2.093  51.233  1.00  0.00     0.008 C 
HETATM    4  C1  UNL     1      25.433   3.146  50.281  1.00  0.00     0.014 C 
BRANCH   3   5
HETATM    5  C12 UNL     1      27.143   2.525  51.999  1.00  0.00     0.042 C 
BRANCH   5   6
HETATM    6  C13 UNL     1      27.710   1.412  52.809  1.00  0.00    -0.077 A 
HETATM    7  C14 UNL     1      28.555   1.405  53.785  1.00  0.00     0.013 A 
HETATM    8  C15 UNL     1      28.508  -0.044  53.931  1.00  0.00     0.076 A 
HETATM    9  C16 UNL     1      29.864  -0.661  53.653  1.00  0.00     0.050 C 
HETATM   10  C17 UNL     1      27.545  -0.038  52.818  1.00  0.00     0.075 A 
BRANCH   8  11
HETATM   11  O4  UNL     1      27.909  -0.515  55.105  1.00  0.00    -0.386 OA
HETATM   12  H20 UNL     1      26.995  -0.896  54.907  1.00  0.00     0.211 HD
ENDBRANCH   8  11
ENDBRANCH   5   6
ENDBRANCH   3   5
ENDBRANCH   1   3
BRANCH   2  13
HETATM   13  C5  UNL     1      22.884   0.457  52.849  1.00  0.00     0.074 C 
HETATM   14  C6  UNL     1      23.125  -0.352  53.868  1.00  0.00     0.011 C 
HETATM   15  C7  UNL     1      22.196  -0.850  54.919  1.00  0.00     0.034 C 
HETATM   16  C8  UNL     1      21.045  -1.548  54.232  1.00  0.00     0.036 C 
HETATM   17  C9  UNL     1      20.102  -0.593  53.579  1.00  0.00     0.038 C 
HETATM   18  C10 UNL     1      20.351   0.514  52.861  1.00  0.00     0.189 C 
HETATM   19  O3  UNL     1      21.632   1.018  52.566  1.00  0.00    -0.288 OA
BRANCH  18  20
HETATM   20  O1  UNL     1      19.240   1.203  52.378  1.00  0.00    -0.262 OA
BRANCH  20  21
HETATM   21  C11 UNL     1      19.292   2.366  51.647  1.00  0.00     0.405 C 
HETATM   22  O2  UNL     1      19.376   3.415  52.349  1.00  0.00    -0.276 OA
ENDBRANCH  20  21
ENDBRANCH  18  20
ENDBRANCH   2  13
TORSDOF 7
ENDMDL
MODEL 2
REMARK VINA RESULT:      -7.2      1.703      2.680
REMARK  7 active torsions:
REMARK  status: ('A' for Active; 'I' for Inactive)
REMARK    1  A    between atoms: C2_2  and  C3_3 
REMARK    2  A    between atoms: C2_2  and  C12_15 
REMARK    3  A    between atoms: C4_4  and  C5_5 
REMARK    4  A    between atoms: C10_10  and  O1_11 
REMARK    5  A    between atoms: O1_11  and  C11_12 
REMARK    6  A    between atoms: C12_15  and  C13_16 
REMARK    7  A    between atoms: C15_18  and  O4_20 
ROOT
HETATM    1  C3  UNL     1      23.314   0.401  52.811  1.00  0.00    -0.019 C 
HETATM    2  C4  UNL     1      22.444   1.373  52.590  1.00  0.00     0.033 C 
ENDROOT
BRANCH   1   3
HETATM    3  C2  UNL     1      24.764   0.667  52.808  1.00  0.00     0.008 C 
HETATM    4  C1  UNL     1      24.978   2.105  53.167  1.00  0.00     0.014 C 
BRANCH   3   5
HETATM    5  C12 UNL     1      25.455  -0.277  53.767  1.00  0.00     0.042 C 
BRANCH   5   6
HETATM    6  C13 UNL     1      26.934  -0.120  53.729  1.00  0.00    -0.077 A 
HETATM    7  C14 UNL     1      27.790  -0.281  52.775  1.00  0.00     0.013 A 
HETATM    8  C15 UNL     1      28.926   0.075  53.615  1.00  0.00     0.076 A 
HETATM    9  C16 UNL     1      29.885  -1.091  53.752  1.00  0.00     0.050 C 
HETATM   10  C17 UNL     1      27.953   0.259  54.703  1.00  0.00     0.075 A 
BRANCH   8  11
HETATM   11  O4  UNL     1      29.555   1.285  53.300  1.00  0.00    -0.386 OA
HETATM   12  H20 UNL     1      29.535   1.910  54.093  1.00  0.00     0.211 HD
ENDBRANCH   8  11
ENDBRANCH   5   6
ENDBRANCH   3   5
ENDBRANCH   1   3
BRANCH   2  13
HETATM   13  C5  UNL     1      21.000   1.166  52.582  1.00  0.00     0.074 C 
HETATM   14  C6  UNL     1      20.533  -0.070  52.649  1.00  0.00     0.011 C 
HETATM   15  C7  UNL     1      19.124  -0.548  52.658  1.00  0.00     0.034 C 
HETATM   16  C8  UNL     1      18.446  -0.026  51.411  1.00  0.00     0.036 C 
HETATM   17  C9  UNL     1      18.154   1.436  51.487  1.00  0.00     0.038 C 
HETATM   18  C10 UNL     1      18.905   2.445  51.956  1.00  0.00     0.189 C 
HETATM   19  O3  UNL     1      20.196   2.311  52.500  1.00  0.00    -0.288 OA
BRANCH  18  20
HETATM   20  O1  UNL     1      18.343   3.719  51.888  1.00  0.00    -0.262 OA
BRANCH  20  21
HETATM   21  C11 UNL     1      17.030   3.985  51.581  1.00  0.00     0.405 C 
HETATM   22  O2  UNL     1      16.364   4.474  52.538  1.00  0.00    -0.276 OA
ENDBRANCH  20  21
ENDBRANCH  18  20
ENDBRANCH   2  13
TORSDOF 7
ENDMDL
MODEL 3
REMARK VINA RESULT:      -7.2      2.364      6.720
REMARK  7 active torsions:
REMARK  status: ('A' for Active; 'I' for Inactive)
REMARK    1  A    between atoms: C2_2  and  C3_3 
REMARK    2  A    between atoms: C2_2  and  C12_15 
REMARK    3  A    between atoms: C4_4  and  C5_5 
REMARK    4  A    between atoms: C10_10  and  O1_11 
REMARK    5  A    between atoms: O1_11  and  C11_12 
REMARK    6  A    between atoms: C12_15  and  C13_16 
REMARK    7  A    between atoms: C15_18  and  O4_20 
ROOT
HETATM    1  C3  UNL     1      22.930   2.165  52.179  1.00  0.00    -0.019 C 
HETATM    2  C4  UNL     1      23.940   2.281  53.025  1.00  0.00     0.033 C 
ENDROOT
BRANCH   1   3
HETATM    3  C2  UNL     1      21.667   2.892  52.402  1.00  0.00     0.008 C 
HETATM    4  C1  UNL     1      21.465   3.842  51.260  1.00  0.00     0.014 C 
BRANCH   3   5
HETATM    5  C12 UNL     1      20.530   1.905  52.539  1.00  0.00     0.042 C 
BRANCH   5   6
HETATM    6  C13 UNL     1      20.936   0.695  53.304  1.00  0.00    -0.077 A 
HETATM    7  C14 UNL     1      20.958   0.449  54.572  1.00  0.00     0.013 A 
HETATM    8  C15 UNL     1      21.470  -0.903  54.390  1.00  0.00     0.076 A 
HETATM    9  C16 UNL     1      22.836  -1.057  55.029  1.00  0.00     0.050 C 
HETATM   10  C17 UNL     1      21.446  -0.625  52.945  1.00  0.00     0.075 A 
BRANCH   8  11
HETATM   11  O4  UNL     1      20.581  -1.935  54.712  1.00  0.00    -0.386 OA
HETATM   12  H20 UNL     1      19.644  -1.698  54.421  1.00  0.00     0.211 HD
ENDBRANCH   8  11
ENDBRANCH   5   6
ENDBRANCH   3   5
ENDBRANCH   1   3
BRANCH   2  13
HETATM   13  C5  UNL     1      25.210   1.585  52.854  1.00  0.00     0.074 C 
HETATM   14  C6  UNL     1      25.203   0.365  52.341  1.00  0.00     0.011 C 
HETATM   15  C7  UNL     1      26.344  -0.550  52.065  1.00  0.00     0.034 C 
HETATM   16  C8  UNL     1      27.098  -0.759  53.360  1.00  0.00     0.036 C 
HETATM   17  C9  UNL     1      27.901   0.435  53.755  1.00  0.00     0.038 C 
HETATM   18  C10 UNL     1      27.589   1.741  53.710  1.00  0.00     0.189 C 
HETATM   19  O3  UNL     1      26.366   2.268  53.252  1.00  0.00    -0.288 OA
BRANCH  18  20
HETATM   20  O1  UNL     1      28.568   2.627  54.157  1.00  0.00    -0.262 OA
BRANCH  20  21
HETATM   21  C11 UNL     1      29.849   2.274  54.505  1.00  0.00     0.405 C 
HETATM   22  O2  UNL     1      30.165   2.577  55.692  1.00  0.00    -0.276 OA
ENDBRANCH  20  21
ENDBRANCH  18  20
ENDBRANCH   2  13
TORSDOF 7
ENDMDL
MODEL 4
REMARK VINA RESULT:      -7.1      3.202      5.249
REMARK  7 active torsions:
REMARK  status: ('A' for Active; 'I' for Inactive)
REMARK    1  A    between atoms: C2_2  and  C3_3 
REMARK    2  A    between atoms: C2_2  and  C12_15 
REMARK    3  A    between atoms: C4_4  and  C5_5 
REMARK    4  A    between atoms: C10_10  and  O1_11 
REMARK    5  A    between atoms: O1_11  and  C11_12 
REMARK    6  A    between atoms: C12_15  and  C13_16 
REMARK    7  A    between atoms: C15_18  and  O4_20 
ROOT
HETATM    1  C3  UNL     1      23.791   1.247  52.665  1.00  0.00    -0.019 C 
HETATM    2  C4  UNL     1      24.037   2.502  53.007  1.00  0.00     0.033 C 
ENDROOT
BRANCH   1   3
HETATM    3  C2  UNL     1      24.078   0.139  53.593  1.00  0.00     0.008 C 
HETATM    4  C1  UNL     1      22.847  -0.707  53.709  1.00  0.00     0.014 C 
BRANCH   3   5
HETATM    5  C12 UNL     1      25.272  -0.645  53.093  1.00  0.00     0.042 C 
BRANCH   5   6
HETATM    6  C13 UNL     1      26.556   0.020  53.443  1.00  0.00    -0.077 A 
HETATM    7  C14 UNL     1      27.433   0.629  52.717  1.00  0.00     0.013 A 
HETATM    8  C15 UNL     1      28.295   0.930  53.853  1.00  0.00     0.076 A 
HETATM    9  C16 UNL     1      29.643   0.254  53.705  1.00  0.00     0.050 C 
HETATM   10  C17 UNL     1      27.297   0.236  54.683  1.00  0.00     0.075 A 
BRANCH   8  11
HETATM   11  O4  UNL     1      28.381   2.282  54.205  1.00  0.00    -0.386 OA
HETATM   12  H20 UNL     1      28.704   2.379  55.157  1.00  0.00     0.211 HD
ENDBRANCH   8  11
ENDBRANCH   5   6
ENDBRANCH   3   5
ENDBRANCH   1   3
BRANCH   2  13
HETATM   13  C5  UNL     1      23.773   3.636  52.130  1.00  0.00     0.074 C 
HETATM   14  C6  UNL     1      22.649   4.315  52.288  1.00  0.00     0.011 C 
HETATM   15  C7  UNL     1      22.145   5.497  51.536  1.00  0.00     0.034 C 
HETATM   16  C8  UNL     1      22.082   5.125  50.071  1.00  0.00     0.036 C 
HETATM   17  C9  UNL     1      23.433   5.056  49.439  1.00  0.00     0.038 C 
HETATM   18  C10 UNL     1      24.582   4.543  49.907  1.00  0.00     0.189 C 
HETATM   19  O3  UNL     1      24.744   3.930  51.164  1.00  0.00    -0.288 OA
BRANCH  18  20
HETATM   20  O1  UNL     1      25.689   4.632  49.065  1.00  0.00    -0.262 OA
BRANCH  20  21
HETATM   21  C11 UNL     1      26.902   4.028  49.294  1.00  0.00     0.405 C 
HETATM   22  O2  UNL     1      27.879   4.600  48.730  1.00  0.00    -0.276 OA
ENDBRANCH  20  21
ENDBRANCH  18  20
ENDBRANCH   2  13
TORSDOF 7
ENDMDL
MODEL 5
REMARK VINA RESULT:      -7.1      2.637      5.129
REMARK  7 active torsions:
REMARK  status: ('A' for Active; 'I' for Inactive)
REMARK    1  A    between atoms: C2_2  and  C3_3 
REMARK    2  A    between atoms: C2_2  and  C12_15 
REMARK    3  A    between atoms: C4_4  and  C5_5 
REMARK    4  A    between atoms: C10_10  and  O1_11 
REMARK    5  A    between atoms: O1_11  and  C11_12 
REMARK    6  A    between atoms: C12_15  and  C13_16 
REMARK    7  A    between atoms: C15_18  and  O4_20 
ROOT
HETATM    1  C3  UNL     1      24.569   1.061  52.161  1.00  0.00    -0.019 C 
HETATM    2  C4  UNL     1      25.124   2.260  52.082  1.00  0.00     0.033 C 
ENDROOT
BRANCH   1   3
HETATM    3  C2  UNL     1      24.444   0.368  53.456  1.00  0.00     0.008 C 
HETATM    4  C1  UNL     1      23.023  -0.079  53.614  1.00  0.00     0.014 C 
BRANCH   3   5
HETATM    5  C12 UNL     1      25.421  -0.787  53.510  1.00  0.00     0.042 C 
BRANCH   5   6
HETATM    6  C13 UNL     1      26.832  -0.317  53.537  1.00  0.00    -0.077 A 
HETATM    7  C14 UNL     1      27.761  -0.336  52.640  1.00  0.00     0.013 A 
HETATM    8  C15 UNL     1      28.741   0.296  53.514  1.00  0.00     0.076 A 
HETATM    9  C16 UNL     1      29.915  -0.628  53.770  1.00  0.00     0.050 C 
HETATM   10  C17 UNL     1      27.684   0.319  54.538  1.00  0.00     0.075 A 
BRANCH   8  11
HETATM   11  O4  UNL     1      29.118   1.596  53.159  1.00  0.00    -0.386 OA
HETATM   12  H20 UNL     1      29.377   1.635  52.184  1.00  0.00     0.211 HD
ENDBRANCH   8  11
ENDBRANCH   5   6
ENDBRANCH   3   5
ENDBRANCH   1   3
BRANCH   2  13
HETATM   13  C5  UNL     1      25.273   2.990  50.829  1.00  0.00     0.074 C 
HETATM   14  C6  UNL     1      26.490   3.302  50.415  1.00  0.00     0.011 C 
HETATM   15  C7  UNL     1      26.913   4.033  49.189  1.00  0.00     0.034 C 
HETATM   16  C8  UNL     1      26.228   5.381  49.190  1.00  0.00     0.036 C 
HETATM   17  C9  UNL     1      24.774   5.286  48.866  1.00  0.00     0.038 C 
HETATM   18  C10 UNL     1      23.853   4.398  49.273  1.00  0.00     0.189 C 
HETATM   19  O3  UNL     1      24.097   3.316  50.141  1.00  0.00    -0.288 OA
BRANCH  18  20
HETATM   20  O1  UNL     1      22.559   4.580  48.788  1.00  0.00    -0.262 OA
BRANCH  20  21
HETATM   21  C11 UNL     1      22.223   4.665  47.458  1.00  0.00     0.405 C 
HETATM   22  O2  UNL     1      22.118   3.546  46.878  1.00  0.00    -0.276 OA
ENDBRANCH  20  21
ENDBRANCH  18  20
ENDBRANCH   2  13
TORSDOF 7
ENDMDL
MODEL 6
REMARK VINA RESULT:      -7.0      2.781      4.471
REMARK  7 active torsions:
REMARK  status: ('A' for Active; 'I' for Inactive)
REMARK    1  A    between atoms: C2_2  and  C3_3 
REMARK    2  A    between atoms: C2_2  and  C12_15 
REMARK    3  A    between atoms: C4_4  and  C5_5 
REMARK    4  A    between atoms: C10_10  and  O1_11 
REMARK    5  A    between atoms: O1_11  and  C11_12 
REMARK    6  A    between atoms: C12_15  and  C13_16 
REMARK    7  A    between atoms: C15_18  and  O4_20 
ROOT
HETATM    1  C3  UNL     1      23.684   0.916  52.697  1.00  0.00    -0.019 C 
HETATM    2  C4  UNL     1      22.753   0.612  51.806  1.00  0.00     0.033 C 
ENDROOT
BRANCH   1   3
HETATM    3  C2  UNL     1      24.027  -0.019  53.783  1.00  0.00     0.008 C 
HETATM    4  C1  UNL     1      22.828  -0.874  54.063  1.00  0.00     0.014 C 
BRANCH   3   5
HETATM    5  C12 UNL     1      25.238  -0.835  53.387  1.00  0.00     0.042 C 
BRANCH   5   6
HETATM    6  C13 UNL     1      26.505  -0.089  53.614  1.00  0.00    -0.077 A 
HETATM    7  C14 UNL     1      27.318   0.491  52.795  1.00  0.00     0.013 A 
HETATM    8  C15 UNL     1      28.218   0.924  53.856  1.00  0.00     0.076 A 
HETATM    9  C16 UNL     1      29.587   0.295  53.696  1.00  0.00     0.050 C 
HETATM   10  C17 UNL     1      27.294   0.263  54.791  1.00  0.00     0.075 A 
BRANCH   8  11
HETATM   11  O4  UNL     1      28.259   2.304  54.089  1.00  0.00    -0.386 OA
HETATM   12  H20 UNL     1      28.999   2.531  54.738  1.00  0.00     0.211 HD
ENDBRANCH   8  11
ENDBRANCH   5   6
ENDBRANCH   3   5
ENDBRANCH   1   3
BRANCH   2  13
HETATM   13  C5  UNL     1      22.374   1.498  50.713  1.00  0.00     0.074 C 
HETATM   14  C6  UNL     1      21.631   1.016  49.730  1.00  0.00     0.011 C 
HETATM   15  C7  UNL     1      21.113   1.700  48.514  1.00  0.00     0.034 C 
HETATM   16  C8  UNL     1      22.294   2.270  47.761  1.00  0.00     0.036 C 
HETATM   17  C9  UNL     1      22.872   3.474  48.427  1.00  0.00     0.038 C 
HETATM   18  C10 UNL     1      23.106   3.715  49.727  1.00  0.00     0.189 C 
HETATM   19  O3  UNL     1      22.833   2.820  50.780  1.00  0.00    -0.288 OA
BRANCH  18  20
HETATM   20  O1  UNL     1      23.663   4.954  50.037  1.00  0.00    -0.262 OA
BRANCH  20  21
HETATM   21  C11 UNL     1      23.823   5.449  51.310  1.00  0.00     0.405 C 
HETATM   22  O2  UNL     1      24.227   6.646  51.353  1.00  0.00    -0.276 OA
ENDBRANCH  20  21
ENDBRANCH  18  20
ENDBRANCH   2  13
TORSDOF 7
ENDMDL
MODEL 7
REMARK VINA RESULT:      -7.0      3.066      5.693
REMARK  7 active torsions:
REMARK  status: ('A' for Active; 'I' for Inactive)
REMARK    1  A    between atoms: C2_2  and  C3_3 
REMARK    2  A    between atoms: C2_2  and  C12_15 
REMARK    3  A    between atoms: C4_4  and  C5_5 
REMARK    4  A    between atoms: C10_10  and  O1_11 
REMARK    5  A    between atoms: O1_11  and  C11_12 
REMARK    6  A    between atoms: C12_15  and  C13_16 
REMARK    7  A    between atoms: C15_18  and  O4_20 
ROOT
HETATM    1  C3  UNL     1      23.065   2.851  51.367  1.00  0.00    -0.019 C 
HETATM    2  C4  UNL     1      23.649   2.767  52.552  1.00  0.00     0.033 C 
ENDROOT
BRANCH   1   3
HETATM    3  C2  UNL     1      22.348   4.073  50.961  1.00  0.00     0.008 C 
HETATM    4  C1  UNL     1      22.298   5.001  52.136  1.00  0.00     0.014 C 
BRANCH   3   5
HETATM    5  C12 UNL     1      23.038   4.692  49.765  1.00  0.00     0.042 C 
BRANCH   5   6
HETATM    6  C13 UNL     1      24.501   4.423  49.770  1.00  0.00    -0.077 A 
HETATM    7  C14 UNL     1      25.500   5.116  50.204  1.00  0.00     0.013 A 
HETATM    8  C15 UNL     1      26.482   4.116  49.804  1.00  0.00     0.076 A 
HETATM    9  C16 UNL     1      27.428   4.673  48.760  1.00  0.00     0.050 C 
HETATM   10  C17 UNL     1      25.345   3.324  49.309  1.00  0.00     0.075 A 
BRANCH   8  11
HETATM   11  O4  UNL     1      27.131   3.453  50.852  1.00  0.00    -0.386 OA
HETATM   12  H20 UNL     1      27.042   3.977  51.711  1.00  0.00     0.211 HD
ENDBRANCH   8  11
ENDBRANCH   5   6
ENDBRANCH   3   5
ENDBRANCH   1   3
BRANCH   2  13
HETATM   13  C5  UNL     1      24.371   1.583  53.004  1.00  0.00     0.074 C 
HETATM   14  C6  UNL     1      23.722   0.432  53.081  1.00  0.00     0.011 C 
HETATM   15  C7  UNL     1      24.218  -0.905  53.506  1.00  0.00     0.034 C 
HETATM   16  C8  UNL     1      24.782  -0.771  54.903  1.00  0.00     0.036 C 
HETATM   17  C9  UNL     1      26.096  -0.063  54.925  1.00  0.00     0.038 C 
HETATM   18  C10 UNL     1      26.505   1.024  54.250  1.00  0.00     0.189 C 
HETATM   19  O3  UNL     1      25.722   1.752  53.333  1.00  0.00    -0.288 OA
BRANCH  18  20
HETATM   20  O1  UNL     1      27.810   1.449  54.491  1.00  0.00    -0.262 OA
BRANCH  20  21
HETATM   21  C11 UNL     1      28.781   1.592  53.530  1.00  0.00     0.405 C 
HETATM   22  O2  UNL     1      28.968   2.785  53.156  1.00  0.00    -0.276 OA
ENDBRANCH  20  21
ENDBRANCH  18  20
ENDBRANCH   2  13
TORSDOF 7
ENDMDL
MODEL 8
REMARK VINA RESULT:      -6.8      4.362      7.408
REMARK  7 active torsions:
REMARK  status: ('A' for Active; 'I' for Inactive)
REMARK    1  A    between atoms: C2_2  and  C3_3 
REMARK    2  A    between atoms: C2_2  and  C12_15 
REMARK    3  A    between atoms: C4_4  and  C5_5 
REMARK    4  A    between atoms: C10_10  and  O1_11 
REMARK    5  A    between atoms: O1_11  and  C11_12 
REMARK    6  A    between atoms: C12_15  and  C13_16 
REMARK    7  A    between atoms: C15_18  and  O4_20 
ROOT
HETATM    1  C3  UNL     1      25.153   5.161  49.428  1.00  0.00    -0.019 C 
HETATM    2  C4  UNL     1      26.143   4.337  49.729  1.00  0.00     0.033 C 
ENDROOT
BRANCH   1   3
HETATM    3  C2  UNL     1      25.349   6.262  48.468  1.00  0.00     0.008 C 
HETATM    4  C1  UNL     1      24.005   6.683  47.955  1.00  0.00     0.014 C 
BRANCH   3   5
HETATM    5  C12 UNL     1      26.091   7.396  49.140  1.00  0.00     0.042 C 
BRANCH   5   6
HETATM    6  C13 UNL     1      27.524   7.433  48.742  1.00  0.00    -0.077 A 
HETATM    7  C14 UNL     1      28.441   8.325  48.918  1.00  0.00     0.013 A 
HETATM    8  C15 UNL     1      29.460   7.540  48.233  1.00  0.00     0.076 A 
HETATM    9  C16 UNL     1      29.956   8.260  46.994  1.00  0.00     0.050 C 
HETATM   10  C17 UNL     1      28.416   6.522  48.030  1.00  0.00     0.075 A 
BRANCH   8  11
HETATM   11  O4  UNL     1      30.488   7.044  49.042  1.00  0.00    -0.386 OA
HETATM   12  H20 UNL     1      30.111   6.658  49.896  1.00  0.00     0.211 HD
ENDBRANCH   8  11
ENDBRANCH   5   6
ENDBRANCH   3   5
ENDBRANCH   1   3
BRANCH   2  13
HETATM   13  C5  UNL     1      26.005   3.233  50.671  1.00  0.00     0.074 C 
HETATM   14  C6  UNL     1      24.796   2.761  50.927  1.00  0.00     0.011 C 
HETATM   15  C7  UNL     1      24.385   1.656  51.835  1.00  0.00     0.034 C 
HETATM   16  C8  UNL     1      24.895   1.978  53.222  1.00  0.00     0.036 C 
HETATM   17  C9  UNL     1      26.370   1.792  53.348  1.00  0.00     0.038 C 
HETATM   18  C10 UNL     1      27.359   2.119  52.500  1.00  0.00     0.189 C 
HETATM   19  O3  UNL     1      27.183   2.741  51.249  1.00  0.00    -0.288 OA
BRANCH  18  20
HETATM   20  O1  UNL     1      28.655   1.811  52.911  1.00  0.00    -0.262 OA
BRANCH  20  21
HETATM   21  C11 UNL     1      29.010   1.447  54.188  1.00  0.00     0.405 C 
HETATM   22  O2  UNL     1      29.543   2.376  54.861  1.00  0.00    -0.276 OA
ENDBRANCH  20  21
ENDBRANCH  18  20
ENDBRANCH   2  13
TORSDOF 7
ENDMDL
MODEL 9
REMARK VINA RESULT:      -6.8      3.320      6.124
REMARK  7 active torsions:
REMARK  status: ('A' for Active; 'I' for Inactive)
REMARK    1  A    between atoms: C2_2  and  C3_3 
REMARK    2  A    between atoms: C2_2  and  C12_15 
REMARK    3  A    between atoms: C4_4  and  C5_5 
REMARK    4  A    between atoms: C10_10  and  O1_11 
REMARK    5  A    between atoms: O1_11  and  C11_12 
REMARK    6  A    between atoms: C12_15  and  C13_16 
REMARK    7  A    between atoms: C15_18  and  O4_20 
ROOT
HETATM    1  C3  UNL     1      25.472   3.132  51.143  1.00  0.00    -0.019 C 
HETATM    2  C4  UNL     1      26.214   3.203  50.050  1.00  0.00     0.033 C 
ENDROOT
BRANCH   1   3
HETATM    3  C2  UNL     1      25.389   1.884  51.923  1.00  0.00     0.008 C 
HETATM    4  C1  UNL     1      23.978   1.384  51.860  1.00  0.00     0.014 C 
BRANCH   3   5
HETATM    5  C12 UNL     1      26.382   0.880  51.380  1.00  0.00     0.042 C 
BRANCH   5   6
HETATM    6  C13 UNL     1      27.267   0.343  52.449  1.00  0.00    -0.077 A 
HETATM    7  C14 UNL     1      28.214   0.892  53.135  1.00  0.00     0.013 A 
HETATM    8  C15 UNL     1      28.488  -0.322  53.893  1.00  0.00     0.076 A 
HETATM    9  C16 UNL     1      29.895  -0.820  53.629  1.00  0.00     0.050 C 
HETATM   10  C17 UNL     1      27.410  -0.950  53.112  1.00  0.00     0.075 A 
BRANCH   8  11
HETATM   11  O4  UNL     1      28.156  -0.276  55.252  1.00  0.00    -0.386 OA
HETATM   12  H20 UNL     1      27.153  -0.279  55.370  1.00  0.00     0.211 HD
ENDBRANCH   8  11
ENDBRANCH   5   6
ENDBRANCH   3   5
ENDBRANCH   1   3
BRANCH   2  13
HETATM   13  C5  UNL     1      26.331   4.411  49.241  1.00  0.00     0.074 C 
HETATM   14  C6  UNL     1      27.538   4.844  48.914  1.00  0.00     0.011 C 
HETATM   15  C7  UNL     1      27.929   6.033  48.109  1.00  0.00     0.034 C 
HETATM   16  C8  UNL     1      27.324   7.257  48.760  1.00  0.00     0.036 C 
HETATM   17  C9  UNL     1      25.851   7.353  48.542  1.00  0.00     0.038 C 
HETATM   18  C10 UNL     1      24.906   6.400  48.585  1.00  0.00     0.189 C 
HETATM   19  O3  UNL     1      25.137   5.040  48.863  1.00  0.00    -0.288 OA
BRANCH  18  20
HETATM   20  O1  UNL     1      23.598   6.813  48.333  1.00  0.00    -0.262 OA
BRANCH  20  21
HETATM   21  C11 UNL     1      22.743   7.335  49.273  1.00  0.00     0.405 C 
HETATM   22  O2  UNL     1      22.144   6.465  49.968  1.00  0.00    -0.276 OA
ENDBRANCH  20  21
ENDBRANCH  18  20
ENDBRANCH   2  13
TORSDOF 7
ENDMDL
