MODEL 1
REMARK VINA RESULT:      -7.9      0.000      0.000
REMARK  5 active torsions:
REMARK  status: ('A' for Active; 'I' for Inactive)
REMARK    1  A    between atoms: C1_2  and  C2_3 
REMARK    2  A    between atoms: C3_4  and  N2_5 
REMARK    3  A    between atoms: C3_4  and  C11_13 
REMARK    4  A    between atoms: N2_5  and  C4_6 
REMARK    5  A    between atoms: C4_6  and  C5_7 
ROOT
HETATM    1  C2  UNL     1      26.766   1.721  51.312  1.00  0.00     0.043 C 
HETATM    2  C3  UNL     1      26.402   1.687  52.585  1.00  0.00     0.012 C 
ENDROOT
BRANCH   2   3
HETATM    3  N2  UNL     1      25.544   2.679  53.194  1.00  0.00    -0.389 N 
HETATM    4  H4  UNL     1      26.261   3.035  53.873  1.00  0.00     0.159 HD
BRANCH   3   5
HETATM    5  C4  UNL     1      24.200   3.208  53.120  1.00  0.00     0.158 C 
BRANCH   5   6
HETATM    6  C5  UNL     1      23.333   2.122  52.564  1.00  0.00    -0.041 A 
HETATM    7  C6  UNL     1      22.989   1.014  53.313  1.00  0.00     0.009 A 
HETATM    8  C7  UNL     1      22.191   0.011  52.804  1.00  0.00     0.001 A 
HETATM    9  C8  UNL     1      21.711   0.101  51.509  1.00  0.00     0.000 A 
HETATM   10  C9  UNL     1      22.029   1.187  50.729  1.00  0.00     0.001 A 
HETATM   11  C10 UNL     1      22.833   2.172  51.280  1.00  0.00     0.009 A 
ENDBRANCH   5   6
ENDBRANCH   3   5
ENDBRANCH   2   3
BRANCH   2  12
HETATM   12  C11 UNL     1      26.676   0.799  53.670  1.00  0.00     0.055 A 
HETATM   13  O1  UNL     1      27.815   1.235  54.481  1.00  0.00     0.000 OA
HETATM   14  C12 UNL     1      28.860   0.093  54.298  1.00  0.00     0.007 A 
HETATM   15  C17 UNL     1      27.938   0.895  54.336  1.00  0.00     0.025 A 
HETATM   16  C13 UNL     1      29.590  -1.087  53.942  1.00  0.00    -0.015 A 
HETATM   17  C16 UNL     1      27.555  -0.358  53.404  1.00  0.00     0.005 A 
HETATM   18  C14 UNL     1      29.015  -2.006  53.119  1.00  0.00    -0.006 A 
HETATM   19  C15 UNL     1      27.756  -1.542  52.793  1.00  0.00    -0.015 A 
ENDBRANCH   2  12
BRANCH   1  20
HETATM   20  C1  UNL     1      26.302   2.785  50.462  1.00  0.00     0.109 C 
HETATM   21  N1  UNL     1      26.957   3.890  50.437  1.00  0.00    -0.312 NA
HETATM   22  H1  UNL     1      26.706   4.705  49.865  1.00  0.00     0.186 HD
ENDBRANCH   1  20
TORSDOF 5
ENDMDL
MODEL 2
REMARK VINA RESULT:      -7.7      1.112      1.624
REMARK  5 active torsions:
REMARK  status: ('A' for Active; 'I' for Inactive)
REMARK    1  A    between atoms: C1_2  and  C2_3 
REMARK    2  A    between atoms: C3_4  and  N2_5 
REMARK    3  A    between atoms: C3_4  and  C11_13 
REMARK    4  A    between atoms: N2_5  and  C4_6 
REMARK    5  A    between atoms: C4_6  and  C5_7 
ROOT
HETATM    1  C2  UNL     1      27.065   2.538  51.467  1.00  0.00     0.043 C 
HETATM    2  C3  UNL     1      26.445   1.937  52.471  1.00  0.00     0.012 C 
ENDROOT
BRANCH   2   3
HETATM    3  N2  UNL     1      25.006   1.875  52.595  1.00  0.00    -0.389 N 
HETATM    4  H4  UNL     1      24.955   2.411  53.496  1.00  0.00     0.159 HD
BRANCH   3   5
HETATM    5  C4  UNL     1      23.835   1.361  51.919  1.00  0.00     0.158 C 
BRANCH   5   6
HETATM    6  C5  UNL     1      23.029   0.622  52.942  1.00  0.00    -0.041 A 
HETATM    7  C6  UNL     1      23.572  -0.400  53.694  1.00  0.00     0.009 A 
HETATM    8  C7  UNL     1      22.833  -1.083  54.636  1.00  0.00     0.001 A 
HETATM    9  C8  UNL     1      21.507  -0.747  54.850  1.00  0.00     0.000 A 
HETATM   10  C9  UNL     1      20.927   0.266  54.123  1.00  0.00     0.001 A 
HETATM   11  C10 UNL     1      21.706   0.925  53.187  1.00  0.00     0.009 A 
ENDBRANCH   5   6
ENDBRANCH   3   5
ENDBRANCH   2   3
BRANCH   2  12
HETATM   12  C11 UNL     1      26.891   1.233  53.631  1.00  0.00     0.055 A 
HETATM   13  O1  UNL     1      28.162   1.746  54.147  1.00  0.00     0.000 OA
HETATM   14  C12 UNL     1      29.141   0.543  53.991  1.00  0.00     0.007 A 
HETATM   15  C17 UNL     1      28.252   1.382  54.046  1.00  0.00     0.025 A 
HETATM   16  C13 UNL     1      29.778  -0.712  53.726  1.00  0.00    -0.015 A 
HETATM   17  C16 UNL     1      27.691   0.009  53.424  1.00  0.00     0.005 A 
HETATM   18  C14 UNL     1      29.053  -1.730  53.185  1.00  0.00    -0.006 A 
HETATM   19  C15 UNL     1      27.763  -1.269  53.003  1.00  0.00    -0.015 A 
ENDBRANCH   2  12
BRANCH   1  20
HETATM   20  C1  UNL     1      26.298   3.173  50.429  1.00  0.00     0.109 C 
HETATM   21  N1  UNL     1      25.851   4.360  50.624  1.00  0.00    -0.312 NA
HETATM   22  H1  UNL     1      25.295   4.896  49.947  1.00  0.00     0.186 HD
ENDBRANCH   1  20
TORSDOF 5
ENDMDL
MODEL 3
REMARK VINA RESULT:      -7.4      2.170      6.321
REMARK  5 active torsions:
REMARK  status: ('A' for Active; 'I' for Inactive)
REMARK    1  A    between atoms: C1_2  and  C2_3 
REMARK    2  A    between atoms: C3_4  and  N2_5 
REMARK    3  A    between atoms: C3_4  and  C11_13 
REMARK    4  A    between atoms: N2_5  and  C4_6 
REMARK    5  A    between atoms: C4_6  and  C5_7 
ROOT
HETATM    1  C2  UNL     1      22.823  -0.239  53.899  1.00  0.00     0.043 C 
HETATM    2  C3  UNL     1      23.970   0.101  53.330  1.00  0.00     0.012 C 
ENDROOT
BRANCH   2   3
HETATM    3  N2  UNL     1      25.185  -0.671  53.465  1.00  0.00    -0.389 N 
HETATM    4  H4  UNL     1      25.285  -0.531  54.500  1.00  0.00     0.159 HD
BRANCH   3   5
HETATM    5  C4  UNL     1      26.123  -1.446  52.683  1.00  0.00     0.158 C 
BRANCH   5   6
HETATM    6  C5  UNL     1      27.493  -0.955  53.032  1.00  0.00    -0.041 A 
HETATM    7  C6  UNL     1      27.759   0.388  53.214  1.00  0.00     0.009 A 
HETATM    8  C7  UNL     1      29.020   0.843  53.535  1.00  0.00     0.001 A 
HETATM    9  C8  UNL     1      30.062  -0.056  53.684  1.00  0.00     0.000 A 
HETATM   10  C9  UNL     1      29.841  -1.402  53.512  1.00  0.00     0.001 A 
HETATM   11  C10 UNL     1      28.559  -1.816  53.191  1.00  0.00     0.009 A 
ENDBRANCH   5   6
ENDBRANCH   3   5
ENDBRANCH   2   3
BRANCH   2  12
HETATM   12  C11 UNL     1      24.380   1.189  52.500  1.00  0.00     0.055 A 
HETATM   13  O1  UNL     1      24.904   2.319  53.270  1.00  0.00     0.000 OA
HETATM   14  C12 UNL     1      23.904   3.475  52.963  1.00  0.00     0.007 A 
HETATM   15  C17 UNL     1      24.590   2.471  53.099  1.00  0.00     0.025 A 
HETATM   16  C13 UNL     1      22.839   4.312  52.497  1.00  0.00    -0.015 A 
HETATM   17  C16 UNL     1      23.355   2.179  52.111  1.00  0.00     0.005 A 
HETATM   18  C14 UNL     1      21.908   3.798  51.647  1.00  0.00    -0.006 A 
HETATM   19  C15 UNL     1      22.239   2.477  51.417  1.00  0.00    -0.015 A 
ENDBRANCH   2  12
BRANCH   1  20
HETATM   20  C1  UNL     1      22.746  -1.432  54.699  1.00  0.00     0.109 C 
HETATM   21  N1  UNL     1      23.423  -1.495  55.788  1.00  0.00    -0.312 NA
HETATM   22  H1  UNL     1      23.433  -2.300  56.425  1.00  0.00     0.186 HD
ENDBRANCH   1  20
TORSDOF 5
ENDMDL
MODEL 4
REMARK VINA RESULT:      -7.4      2.035      5.386
REMARK  5 active torsions:
REMARK  status: ('A' for Active; 'I' for Inactive)
REMARK    1  A    between atoms: C1_2  and  C2_3 
REMARK    2  A    between atoms: C3_4  and  N2_5 
REMARK    3  A    between atoms: C3_4  and  C11_13 
REMARK    4  A    between atoms: N2_5  and  C4_6 
REMARK    5  A    between atoms: C4_6  and  C5_7 
ROOT
HETATM    1  C2  UNL     1      22.806   3.547  52.040  1.00  0.00     0.043 C 
HETATM    2  C3  UNL     1      23.554   2.455  52.022  1.00  0.00     0.012 C 
ENDROOT
BRANCH   2   3
HETATM    3  N2  UNL     1      24.982   2.463  52.254  1.00  0.00    -0.389 N 
HETATM    4  H4  UNL     1      24.919   2.609  53.292  1.00  0.00     0.159 HD
BRANCH   3   5
HETATM    5  C4  UNL     1      26.241   2.342  51.553  1.00  0.00     0.158 C 
BRANCH   5   6
HETATM    6  C5  UNL     1      27.058   1.331  52.294  1.00  0.00    -0.041 A 
HETATM    7  C6  UNL     1      28.114   1.702  53.102  1.00  0.00     0.009 A 
HETATM    8  C7  UNL     1      28.870   0.773  53.785  1.00  0.00     0.001 A 
HETATM    9  C8  UNL     1      28.575  -0.575  53.672  1.00  0.00     0.000 A 
HETATM   10  C9  UNL     1      27.531  -0.988  52.879  1.00  0.00     0.001 A 
HETATM   11  C10 UNL     1      26.799  -0.021  52.210  1.00  0.00     0.009 A 
ENDBRANCH   5   6
ENDBRANCH   3   5
ENDBRANCH   2   3
BRANCH   2  12
HETATM   12  C11 UNL     1      23.281   1.071  51.799  1.00  0.00     0.055 A 
HETATM   13  O1  UNL     1      21.850   0.798  51.636  1.00  0.00     0.000 OA
HETATM   14  C12 UNL     1      21.507  -0.124  52.844  1.00  0.00     0.007 A 
HETATM   15  C17 UNL     1      21.939   0.600  51.958  1.00  0.00     0.025 A 
HETATM   16  C13 UNL     1      21.508  -0.936  54.024  1.00  0.00    -0.015 A 
HETATM   17  C16 UNL     1      23.113   0.205  52.984  1.00  0.00     0.005 A 
HETATM   18  C14 UNL     1      22.667  -1.108  54.718  1.00  0.00    -0.006 A 
HETATM   19  C15 UNL     1      23.652  -0.395  54.063  1.00  0.00    -0.015 A 
ENDBRANCH   2  12
BRANCH   1  20
HETATM   20  C1  UNL     1      23.412   4.826  52.302  1.00  0.00     0.109 C 
HETATM   21  N1  UNL     1      23.839   5.081  53.485  1.00  0.00    -0.312 NA
HETATM   22  H1  UNL     1      24.285   5.961  53.769  1.00  0.00     0.186 HD
ENDBRANCH   1  20
TORSDOF 5
ENDMDL
MODEL 5
REMARK VINA RESULT:      -7.4      1.722      2.349
REMARK  5 active torsions:
REMARK  status: ('A' for Active; 'I' for Inactive)
REMARK    1  A    between atoms: C1_2  and  C2_3 
REMARK    2  A    between atoms: C3_4  and  N2_5 
REMARK    3  A    between atoms: C3_4  and  C11_13 
REMARK    4  A    between atoms: N2_5  and  C4_6 
REMARK    5  A    between atoms: C4_6  and  C5_7 
ROOT
HETATM    1  C2  UNL     1      25.389   1.331  51.942  1.00  0.00     0.043 C 
HETATM    2  C3  UNL     1      24.978   0.563  52.939  1.00  0.00     0.012 C 
ENDROOT
BRANCH   2   3
HETATM    3  N2  UNL     1      23.592   0.447  53.335  1.00  0.00    -0.389 N 
HETATM    4  H4  UNL     1      23.329   1.433  53.089  1.00  0.00     0.159 HD
BRANCH   3   5
HETATM    5  C4  UNL     1      22.649  -0.505  53.879  1.00  0.00     0.158 C 
BRANCH   5   6
HETATM    6  C5  UNL     1      21.366  -0.327  53.130  1.00  0.00    -0.041 A 
HETATM    7  C6  UNL     1      20.154  -0.725  53.659  1.00  0.00     0.009 A 
HETATM    8  C7  UNL     1      18.971  -0.563  52.971  1.00  0.00     0.001 A 
HETATM    9  C8  UNL     1      18.977   0.015  51.712  1.00  0.00     0.000 A 
HETATM   10  C9  UNL     1      20.161   0.426  51.149  1.00  0.00     0.001 A 
HETATM   11  C10 UNL     1      21.327   0.244  51.875  1.00  0.00     0.009 A 
ENDBRANCH   5   6
ENDBRANCH   3   5
ENDBRANCH   2   3
BRANCH   2  12
HETATM   12  C11 UNL     1      25.641  -0.305  53.859  1.00  0.00     0.055 A 
HETATM   13  O1  UNL     1      26.225   0.416  54.993  1.00  0.00     0.000 OA
HETATM   14  C12 UNL     1      27.755   0.162  54.848  1.00  0.00     0.007 A 
HETATM   15  C17 UNL     1      26.537   0.264  54.819  1.00  0.00     0.025 A 
HETATM   16  C13 UNL     1      29.071  -0.243  54.454  1.00  0.00    -0.015 A 
HETATM   17  C16 UNL     1      27.055  -0.637  53.592  1.00  0.00     0.005 A 
HETATM   18  C14 UNL     1      29.228  -1.024  53.349  1.00  0.00    -0.006 A 
HETATM   19  C15 UNL     1      27.972  -1.260  52.826  1.00  0.00    -0.015 A 
ENDBRANCH   2  12
BRANCH   1  20
HETATM   20  C1  UNL     1      24.435   2.104  51.192  1.00  0.00     0.109 C 
HETATM   21  N1  UNL     1      23.907   3.138  51.738  1.00  0.00    -0.312 NA
HETATM   22  H1  UNL     1      23.219   3.752  51.285  1.00  0.00     0.186 HD
ENDBRANCH   1  20
TORSDOF 5
ENDMDL
MODEL 6
REMARK VINA RESULT:      -7.3      1.848      5.515
REMARK  5 active torsions:
REMARK  status: ('A' for Active; 'I' for Inactive)
REMARK    1  A    between atoms: C1_2  and  C2_3 
REMARK    2  A    between atoms: C3_4  and  N2_5 
REMARK    3  A    between atoms: C3_4  and  C11_13 
REMARK    4  A    between atoms: N2_5  and  C4_6 
REMARK    5  A    between atoms: C4_6  and  C5_7 
ROOT
HETATM    1  C2  UNL     1      22.666   1.834  50.805  1.00  0.00     0.043 C 
HETATM    2  C3  UNL     1      23.554   1.486  51.725  1.00  0.00     0.012 C 
ENDROOT
BRANCH   2   3
HETATM    3  N2  UNL     1      24.983   1.538  51.511  1.00  0.00    -0.389 N 
HETATM    4  H4  UNL     1      25.040   0.645  50.962  1.00  0.00     0.159 HD
BRANCH   3   5
HETATM    5  C4  UNL     1      26.140   2.356  51.804  1.00  0.00     0.158 C 
BRANCH   5   6
HETATM    6  C5  UNL     1      27.124   1.481  52.517  1.00  0.00    -0.041 A 
HETATM    7  C6  UNL     1      27.073   0.105  52.423  1.00  0.00     0.009 A 
HETATM    8  C7  UNL     1      27.976  -0.703  53.079  1.00  0.00     0.001 A 
HETATM    9  C8  UNL     1      28.971  -0.137  53.857  1.00  0.00     0.000 A 
HETATM   10  C9  UNL     1      29.059   1.230  53.977  1.00  0.00     0.001 A 
HETATM   11  C10 UNL     1      28.130   2.004  53.301  1.00  0.00     0.009 A 
ENDBRANCH   5   6
ENDBRANCH   3   5
ENDBRANCH   2   3
BRANCH   2  12
HETATM   12  C11 UNL     1      23.454   1.004  53.065  1.00  0.00     0.055 A 
HETATM   13  O1  UNL     1      23.834  -0.406  53.186  1.00  0.00     0.000 OA
HETATM   14  C12 UNL     1      22.523  -1.105  53.659  1.00  0.00     0.007 A 
HETATM   15  C17 UNL     1      23.459  -0.409  53.290  1.00  0.00     0.025 A 
HETATM   16  C13 UNL     1      21.197  -1.446  54.080  1.00  0.00    -0.015 A 
HETATM   17  C16 UNL     1      22.144   0.490  53.513  1.00  0.00     0.005 A 
HETATM   18  C14 UNL     1      20.257  -0.467  54.187  1.00  0.00    -0.006 A 
HETATM   19  C15 UNL     1      20.857   0.725  53.833  1.00  0.00    -0.015 A 
ENDBRANCH   2  12
BRANCH   1  20
HETATM   20  C1  UNL     1      23.112   2.290  49.516  1.00  0.00     0.109 C 
HETATM   21  N1  UNL     1      23.621   3.464  49.414  1.00  0.00    -0.312 NA
HETATM   22  H1  UNL     1      23.967   3.878  48.540  1.00  0.00     0.186 HD
ENDBRANCH   1  20
TORSDOF 5
ENDMDL
MODEL 7
REMARK VINA RESULT:      -7.3      2.327      4.013
REMARK  5 active torsions:
REMARK  status: ('A' for Active; 'I' for Inactive)
REMARK    1  A    between atoms: C1_2  and  C2_3 
REMARK    2  A    between atoms: C3_4  and  N2_5 
REMARK    3  A    between atoms: C3_4  and  C11_13 
REMARK    4  A    between atoms: N2_5  and  C4_6 
REMARK    5  A    between atoms: C4_6  and  C5_7 
ROOT
HETATM    1  C2  UNL     1      23.276  -0.874  54.111  1.00  0.00     0.043 C 
HETATM    2  C3  UNL     1      23.465   0.248  53.434  1.00  0.00     0.012 C 
ENDROOT
BRANCH   2   3
HETATM    3  N2  UNL     1      22.414   0.923  52.703  1.00  0.00    -0.389 N 
HETATM    4  H4  UNL     1      21.800   0.078  52.597  1.00  0.00     0.159 HD
BRANCH   3   5
HETATM    5  C4  UNL     1      22.058   2.224  52.180  1.00  0.00     0.158 C 
BRANCH   5   6
HETATM    6  C5  UNL     1      22.178   2.143  50.691  1.00  0.00    -0.041 A 
HETATM    7  C6  UNL     1      22.990   3.004  49.980  1.00  0.00     0.009 A 
HETATM    8  C7  UNL     1      23.102   2.933  48.608  1.00  0.00     0.001 A 
HETATM    9  C8  UNL     1      22.390   1.977  47.905  1.00  0.00     0.000 A 
HETATM   10  C9  UNL     1      21.571   1.098  48.574  1.00  0.00     0.001 A 
HETATM   11  C10 UNL     1      21.487   1.205  49.952  1.00  0.00     0.009 A 
ENDBRANCH   5   6
ENDBRANCH   3   5
ENDBRANCH   2   3
BRANCH   2  12
HETATM   12  C11 UNL     1      24.597   1.087  53.202  1.00  0.00     0.055 A 
HETATM   13  O1  UNL     1      25.258   0.802  51.926  1.00  0.00     0.000 OA
HETATM   14  C12 UNL     1      26.678   0.314  52.344  1.00  0.00     0.007 A 
HETATM   15  C17 UNL     1      25.533   0.715  52.187  1.00  0.00     0.025 A 
HETATM   16  C13 UNL     1      27.872  -0.082  53.029  1.00  0.00    -0.015 A 
HETATM   17  C16 UNL     1      25.896   0.653  53.752  1.00  0.00     0.005 A 
HETATM   18  C14 UNL     1      27.909  -0.036  54.389  1.00  0.00    -0.006 A 
HETATM   19  C15 UNL     1      26.680   0.419  54.823  1.00  0.00    -0.015 A 
ENDBRANCH   2  12
BRANCH   1  20
HETATM   20  C1  UNL     1      21.973  -1.482  54.143  1.00  0.00     0.109 C 
HETATM   21  N1  UNL     1      21.100  -1.037  54.972  1.00  0.00    -0.312 NA
HETATM   22  H1  UNL     1      20.146  -1.403  55.070  1.00  0.00     0.186 HD
ENDBRANCH   1  20
TORSDOF 5
ENDMDL
MODEL 8
REMARK VINA RESULT:      -7.2      2.097      4.273
REMARK  5 active torsions:
REMARK  status: ('A' for Active; 'I' for Inactive)
REMARK    1  A    between atoms: C1_2  and  C2_3 
REMARK    2  A    between atoms: C3_4  and  N2_5 
REMARK    3  A    between atoms: C3_4  and  C11_13 
REMARK    4  A    between atoms: N2_5  and  C4_6 
REMARK    5  A    between atoms: C4_6  and  C5_7 
ROOT
HETATM    1  C2  UNL     1      24.183   0.163  53.115  1.00  0.00     0.043 C 
HETATM    2  C3  UNL     1      25.007   0.817  52.310  1.00  0.00     0.012 C 
ENDROOT
BRANCH   2   3
HETATM    3  N2  UNL     1      24.637   2.023  51.602  1.00  0.00    -0.389 N 
HETATM    4  H4  UNL     1      24.957   2.687  52.350  1.00  0.00     0.159 HD
BRANCH   3   5
HETATM    5  C4  UNL     1      24.049   2.466  50.357  1.00  0.00     0.158 C 
BRANCH   5   6
HETATM    6  C5  UNL     1      24.951   3.522  49.800  1.00  0.00    -0.041 A 
HETATM    7  C6  UNL     1      24.472   4.759  49.417  1.00  0.00     0.009 A 
HETATM    8  C7  UNL     1      25.299   5.734  48.903  1.00  0.00     0.001 A 
HETATM    9  C8  UNL     1      26.654   5.484  48.760  1.00  0.00     0.000 A 
HETATM   10  C9  UNL     1      27.174   4.267  49.130  1.00  0.00     0.001 A 
HETATM   11  C10 UNL     1      26.306   3.316  49.642  1.00  0.00     0.009 A 
ENDBRANCH   5   6
ENDBRANCH   3   5
ENDBRANCH   2   3
BRANCH   2  12
HETATM   12  C11 UNL     1      26.359   0.614  51.899  1.00  0.00     0.055 A 
HETATM   13  O1  UNL     1      26.906  -0.660  52.373  1.00  0.00     0.000 OA
HETATM   14  C12 UNL     1      28.072  -0.237  53.317  1.00  0.00     0.007 A 
HETATM   15  C17 UNL     1      27.131  -0.398  52.551  1.00  0.00     0.025 A 
HETATM   16  C13 UNL     1      29.051   0.453  54.102  1.00  0.00    -0.015 A 
HETATM   17  C16 UNL     1      27.427   1.169  52.755  1.00  0.00     0.005 A 
HETATM   18  C14 UNL     1      29.079   1.815  54.091  1.00  0.00    -0.006 A 
HETATM   19  C15 UNL     1      28.068   2.244  53.254  1.00  0.00    -0.015 A 
ENDBRANCH   2  12
BRANCH   1  20
HETATM   20  C1  UNL     1      22.844   0.648  53.318  1.00  0.00     0.109 C 
HETATM   21  N1  UNL     1      21.943   0.368  52.448  1.00  0.00    -0.312 NA
HETATM   22  H1  UNL     1      20.962   0.667  52.504  1.00  0.00     0.186 HD
ENDBRANCH   1  20
TORSDOF 5
ENDMDL
MODEL 9
REMARK VINA RESULT:      -7.1      2.253      5.317
REMARK  5 active torsions:
REMARK  status: ('A' for Active; 'I' for Inactive)
REMARK    1  A    between atoms: C1_2  and  C2_3 
REMARK    2  A    between atoms: C3_4  and  N2_5 
REMARK    3  A    between atoms: C3_4  and  C11_13 
REMARK    4  A    between atoms: N2_5  and  C4_6 
REMARK    5  A    between atoms: C4_6  and  C5_7 
ROOT
HETATM    1  C2  UNL     1      25.668  -0.086  54.250  1.00  0.00     0.043 C 
HETATM    2  C3  UNL     1      25.077   0.510  53.225  1.00  0.00     0.012 C 
ENDROOT
BRANCH   2   3
HETATM    3  N2  UNL     1      25.692   1.569  52.457  1.00  0.00    -0.389 N 
HETATM    4  H4  UNL     1      25.262   2.357  53.001  1.00  0.00     0.159 HD
BRANCH   3   5
HETATM    5  C4  UNL     1      26.586   1.781  51.340  1.00  0.00     0.158 C 
BRANCH   5   6
HETATM    6  C5  UNL     1      26.025   2.917  50.542  1.00  0.00    -0.041 A 
HETATM    7  C6  UNL     1      26.837   3.763  49.814  1.00  0.00     0.009 A 
HETATM    8  C7  UNL     1      26.325   4.811  49.079  1.00  0.00     0.001 A 
HETATM    9  C8  UNL     1      24.959   5.035  49.057  1.00  0.00     0.000 A 
HETATM   10  C9  UNL     1      24.114   4.216  49.767  1.00  0.00     0.001 A 
HETATM   11  C10 UNL     1      24.672   3.176  50.492  1.00  0.00     0.009 A 
ENDBRANCH   5   6
ENDBRANCH   3   5
ENDBRANCH   2   3
BRANCH   2  12
HETATM   12  C11 UNL     1      23.807   0.358  52.591  1.00  0.00     0.055 A 
HETATM   13  O1  UNL     1      22.902   1.477  52.866  1.00  0.00     0.000 OA
HETATM   14  C12 UNL     1      21.723   0.819  53.645  1.00  0.00     0.007 A 
HETATM   15  C17 UNL     1      22.717   1.175  53.027  1.00  0.00     0.025 A 
HETATM   16  C13 UNL     1      20.813  -0.058  54.319  1.00  0.00    -0.015 A 
HETATM   17  C16 UNL     1      22.768  -0.407  53.309  1.00  0.00     0.005 A 
HETATM   18  C14 UNL     1      21.108  -1.384  54.415  1.00  0.00    -0.006 A 
HETATM   19  C15 UNL     1      22.321  -1.585  53.786  1.00  0.00    -0.015 A 
ENDBRANCH   2  12
BRANCH   1  20
HETATM   20  C1  UNL     1      26.991   0.317  54.646  1.00  0.00     0.109 C 
HETATM   21  N1  UNL     1      27.955  -0.525  54.542  1.00  0.00    -0.312 NA
HETATM   22  H1  UNL     1      28.930  -0.333  54.798  1.00  0.00     0.186 HD
ENDBRANCH   1  20
TORSDOF 5
ENDMDL
