MODEL 1
REMARK VINA RESULT:      -8.5      0.000      0.000
REMARK  1 active torsions:
REMARK  status: ('A' for Active; 'I' for Inactive)
REMARK    1  A    between atoms: O1_2  and  C2_3 
ROOT
HETATM    1  C2  UNL     1      23.769   2.553  50.221  1.00  0.00     0.069 A 
HETATM    2  C3  UNL     1      24.843   3.360  49.911  1.00  0.00     0.039 A 
HETATM    3  C4  UNL     1      26.050   3.226  50.566  1.00  0.00     0.040 A 
HETATM    4  C5  UNL     1      26.270   2.298  51.557  1.00  0.00     0.082 A 
HETATM    5  C6  UNL     1      25.238   1.445  51.930  1.00  0.00     0.006 A 
HETATM    6  C7  UNL     1      24.034   1.634  51.223  1.00  0.00     0.051 A 
HETATM    7  C8  UNL     1      24.973   0.347  52.849  1.00  0.00    -0.052 C 
HETATM    8  C9  UNL     1      23.701   0.387  53.689  1.00  0.00     0.049 C 
HETATM    9  C10 UNL     1      25.578  -0.769  53.218  1.00  0.00    -0.005 C 
HETATM   10  C11 UNL     1      26.850  -1.116  52.642  1.00  0.00     0.098 A 
HETATM   11  C12 UNL     1      27.362  -2.479  52.575  1.00  0.00     0.166 A 
HETATM   12  N1  UNL     1      28.722  -2.630  53.050  1.00  0.00    -0.282 NA
HETATM   13  C13 UNL     1      29.465  -1.726  53.579  1.00  0.00     0.228 A 
HETATM   14  N2  UNL     1      29.021  -0.348  53.773  1.00  0.00    -0.229 NA
HETATM   15  C14 UNL     1      27.827  -0.164  53.330  1.00  0.00     0.112 A 
HETATM   16  N3  UNL     1      27.577   1.162  53.736  1.00  0.00    -0.356 N 
HETATM   17  C15 UNL     1      28.022   2.463  53.299  1.00  0.00     0.299 C 
HETATM   18  O2  UNL     1      27.613   2.502  51.940  1.00  0.00    -0.331 OA
HETATM   19  H15 UNL     1      26.913   1.101  54.538  1.00  0.00     0.163 HD
ENDROOT
BRANCH   1  20
HETATM   20  O1  UNL     1      22.555   2.684  49.565  1.00  0.00    -0.356 OA
HETATM   21  C1  UNL     1      22.048   1.740  48.678  1.00  0.00     0.210 C 
ENDBRANCH   1  20
TORSDOF 1
ENDMDL
MODEL 2
REMARK VINA RESULT:      -7.5      2.053      3.485
REMARK  1 active torsions:
REMARK  status: ('A' for Active; 'I' for Inactive)
REMARK    1  A    between atoms: O1_2  and  C2_3 
ROOT
HETATM    1  C2  UNL     1      22.661   3.836  51.258  1.00  0.00     0.069 A 
HETATM    2  C3  UNL     1      21.927   3.039  52.109  1.00  0.00     0.039 A 
HETATM    3  C4  UNL     1      22.497   1.950  52.737  1.00  0.00     0.040 A 
HETATM    4  C5  UNL     1      23.813   1.587  52.567  1.00  0.00     0.082 A 
HETATM    5  C6  UNL     1      24.623   2.339  51.725  1.00  0.00     0.006 A 
HETATM    6  C7  UNL     1      23.979   3.434  51.115  1.00  0.00     0.051 A 
HETATM    7  C8  UNL     1      25.997   2.388  51.244  1.00  0.00    -0.052 C 
HETATM    8  C9  UNL     1      26.243   2.564  49.750  1.00  0.00     0.049 C 
HETATM    9  C10 UNL     1      27.206   2.295  51.771  1.00  0.00    -0.005 C 
HETATM   10  C11 UNL     1      27.354   2.083  53.187  1.00  0.00     0.098 A 
HETATM   11  C12 UNL     1      28.548   2.447  53.937  1.00  0.00     0.166 A 
HETATM   12  N1  UNL     1      29.061   1.397  54.793  1.00  0.00    -0.282 NA
HETATM   13  C13 UNL     1      28.625   0.193  54.889  1.00  0.00     0.228 A 
HETATM   14  N2  UNL     1      27.487  -0.303  54.119  1.00  0.00    -0.229 NA
HETATM   15  C14 UNL     1      26.981   0.614  53.371  1.00  0.00     0.112 A 
HETATM   16  N3  UNL     1      26.014  -0.115  52.648  1.00  0.00    -0.356 N 
HETATM   17  C15 UNL     1      24.725  -0.683  52.957  1.00  0.00     0.299 C 
HETATM   18  O2  UNL     1      23.971   0.444  53.381  1.00  0.00    -0.331 OA
HETATM   19  H15 UNL     1      26.395  -0.226  51.683  1.00  0.00     0.163 HD
ENDROOT
BRANCH   1  20
HETATM   20  O1  UNL     1      22.092   4.931  50.624  1.00  0.00    -0.356 OA
HETATM   21  C1  UNL     1      22.037   6.205  51.180  1.00  0.00     0.210 C 
ENDBRANCH   1  20
TORSDOF 1
ENDMDL
MODEL 3
REMARK VINA RESULT:      -7.3      3.676      6.388
REMARK  1 active torsions:
REMARK  status: ('A' for Active; 'I' for Inactive)
REMARK    1  A    between atoms: O1_2  and  C2_3 
ROOT
HETATM    1  C2  UNL     1      26.784   0.993  52.948  1.00  0.00     0.069 A 
HETATM    2  C3  UNL     1      26.588  -0.281  53.435  1.00  0.00     0.039 A 
HETATM    3  C4  UNL     1      25.319  -0.767  53.678  1.00  0.00     0.040 A 
HETATM    4  C5  UNL     1      24.178  -0.032  53.457  1.00  0.00     0.082 A 
HETATM    5  C6  UNL     1      24.287   1.264  52.966  1.00  0.00     0.006 A 
HETATM    6  C7  UNL     1      25.609   1.696  52.741  1.00  0.00     0.051 A 
HETATM    7  C8  UNL     1      23.446   2.384  52.569  1.00  0.00    -0.052 C 
HETATM    8  C9  UNL     1      23.793   3.777  53.083  1.00  0.00     0.049 C 
HETATM    9  C10 UNL     1      22.355   2.560  51.843  1.00  0.00    -0.005 C 
HETATM   10  C11 UNL     1      21.720   1.428  51.222  1.00  0.00     0.098 A 
HETATM   11  C12 UNL     1      20.861   1.526  50.049  1.00  0.00     0.166 A 
HETATM   12  N1  UNL     1      19.595   0.835  50.175  1.00  0.00    -0.282 NA
HETATM   13  C13 UNL     1      19.139   0.233  51.214  1.00  0.00     0.228 A 
HETATM   14  N2  UNL     1      19.880   0.148  52.470  1.00  0.00    -0.229 NA
HETATM   15  C14 UNL     1      21.029   0.722  52.387  1.00  0.00     0.112 A 
HETATM   16  N3  UNL     1      21.487   0.629  53.717  1.00  0.00    -0.356 N 
HETATM   17  C15 UNL     1      21.992  -0.435  54.549  1.00  0.00     0.299 C 
HETATM   18  O2  UNL     1      23.125  -0.896  53.828  1.00  0.00    -0.331 OA
HETATM   19  H15 UNL     1      21.408   1.589  54.119  1.00  0.00     0.163 HD
ENDROOT
BRANCH   1  20
HETATM   20  O1  UNL     1      28.058   1.484  52.702  1.00  0.00    -0.356 OA
HETATM   21  C1  UNL     1      28.667   2.472  53.467  1.00  0.00     0.210 C 
ENDBRANCH   1  20
TORSDOF 1
ENDMDL
MODEL 4
REMARK VINA RESULT:      -7.3      3.512      6.417
REMARK  1 active torsions:
REMARK  status: ('A' for Active; 'I' for Inactive)
REMARK    1  A    between atoms: O1_2  and  C2_3 
ROOT
HETATM    1  C2  UNL     1      26.614   1.083  54.163  1.00  0.00     0.069 A 
HETATM    2  C3  UNL     1      26.170  -0.214  54.297  1.00  0.00     0.039 A 
HETATM    3  C4  UNL     1      24.930  -0.598  53.828  1.00  0.00     0.040 A 
HETATM    4  C5  UNL     1      24.062   0.267  53.204  1.00  0.00     0.082 A 
HETATM    5  C6  UNL     1      24.433   1.595  53.028  1.00  0.00     0.006 A 
HETATM    6  C7  UNL     1      25.709   1.919  53.530  1.00  0.00     0.051 A 
HETATM    7  C8  UNL     1      23.923   2.832  52.453  1.00  0.00    -0.052 C 
HETATM    8  C9  UNL     1      24.016   4.113  53.274  1.00  0.00     0.049 C 
HETATM    9  C10 UNL     1      23.330   3.200  51.330  1.00  0.00    -0.005 C 
HETATM   10  C11 UNL     1      23.045   2.218  50.317  1.00  0.00     0.098 A 
HETATM   11  C12 UNL     1      22.869   2.540  48.907  1.00  0.00     0.166 A 
HETATM   12  N1  UNL     1      21.682   1.967  48.306  1.00  0.00    -0.282 NA
HETATM   13  C13 UNL     1      20.762   1.292  48.896  1.00  0.00     0.228 A 
HETATM   14  N2  UNL     1      20.795   0.986  50.324  1.00  0.00    -0.229 NA
HETATM   15  C14 UNL     1      21.855   1.450  50.888  1.00  0.00     0.112 A 
HETATM   16  N3  UNL     1      21.604   1.154  52.243  1.00  0.00    -0.356 N 
HETATM   17  C15 UNL     1      21.610  -0.046  53.043  1.00  0.00     0.299 C 
HETATM   18  O2  UNL     1      22.937  -0.527  52.890  1.00  0.00    -0.331 OA
HETATM   19  H15 UNL     1      21.368   2.062  52.699  1.00  0.00     0.163 HD
ENDROOT
BRANCH   1  20
HETATM   20  O1  UNL     1      27.860   1.472  54.633  1.00  0.00    -0.356 OA
HETATM   21  C1  UNL     1      29.043   0.806  54.332  1.00  0.00     0.210 C 
ENDBRANCH   1  20
TORSDOF 1
ENDMDL
MODEL 5
REMARK VINA RESULT:      -7.2      2.452      3.430
REMARK  1 active torsions:
REMARK  status: ('A' for Active; 'I' for Inactive)
REMARK    1  A    between atoms: O1_2  and  C2_3 
ROOT
HETATM    1  C2  UNL     1      20.104   0.515  51.426  1.00  0.00     0.069 A 
HETATM    2  C3  UNL     1      20.430   1.664  50.736  1.00  0.00     0.039 A 
HETATM    3  C4  UNL     1      21.614   2.330  50.977  1.00  0.00     0.040 A 
HETATM    4  C5  UNL     1      22.539   1.909  51.904  1.00  0.00     0.082 A 
HETATM    5  C6  UNL     1      22.287   0.759  52.642  1.00  0.00     0.006 A 
HETATM    6  C7  UNL     1      21.063   0.128  52.347  1.00  0.00     0.051 A 
HETATM    7  C8  UNL     1      22.907  -0.069  53.668  1.00  0.00    -0.052 C 
HETATM    8  C9  UNL     1      22.068  -0.499  54.865  1.00  0.00     0.049 C 
HETATM    9  C10 UNL     1      24.101  -0.589  53.895  1.00  0.00    -0.005 C 
HETATM   10  C11 UNL     1      25.173  -0.350  52.965  1.00  0.00     0.098 A 
HETATM   11  C12 UNL     1      26.332  -1.222  52.827  1.00  0.00     0.166 A 
HETATM   12  N1  UNL     1      27.605  -0.533  52.850  1.00  0.00    -0.282 NA
HETATM   13  C13 UNL     1      27.807   0.718  53.053  1.00  0.00     0.228 A 
HETATM   14  N2  UNL     1      26.723   1.669  53.289  1.00  0.00    -0.229 NA
HETATM   15  C14 UNL     1      25.570   1.099  53.241  1.00  0.00     0.112 A 
HETATM   16  N3  UNL     1      24.718   2.157  53.618  1.00  0.00    -0.356 N 
HETATM   17  C15 UNL     1      24.237   3.357  52.979  1.00  0.00     0.299 C 
HETATM   18  O2  UNL     1      23.578   2.862  51.822  1.00  0.00    -0.331 OA
HETATM   19  H15 UNL     1      24.410   1.948  54.593  1.00  0.00     0.163 HD
ENDROOT
BRANCH   1  20
HETATM   20  O1  UNL     1      18.915  -0.157  51.186  1.00  0.00    -0.356 OA
HETATM   21  C1  UNL     1      17.922   0.306  50.329  1.00  0.00     0.210 C 
ENDBRANCH   1  20
TORSDOF 1
ENDMDL
MODEL 6
REMARK VINA RESULT:      -7.1      3.172      5.869
REMARK  1 active torsions:
REMARK  status: ('A' for Active; 'I' for Inactive)
REMARK    1  A    between atoms: O1_2  and  C2_3 
ROOT
HETATM    1  C2  UNL     1      23.371  -0.518  53.847  1.00  0.00     0.069 A 
HETATM    2  C3  UNL     1      24.709  -0.413  54.161  1.00  0.00     0.039 A 
HETATM    3  C4  UNL     1      25.528   0.486  53.508  1.00  0.00     0.040 A 
HETATM    4  C5  UNL     1      25.081   1.328  52.517  1.00  0.00     0.082 A 
HETATM    5  C6  UNL     1      23.744   1.286  52.140  1.00  0.00     0.006 A 
HETATM    6  C7  UNL     1      22.965   0.347  52.844  1.00  0.00     0.051 A 
HETATM    7  C8  UNL     1      22.821   1.933  51.218  1.00  0.00    -0.052 C 
HETATM    8  C9  UNL     1      21.897   1.061  50.376  1.00  0.00     0.049 C 
HETATM    9  C10 UNL     1      22.538   3.171  50.848  1.00  0.00    -0.005 C 
HETATM   10  C11 UNL     1      23.261   4.273  51.427  1.00  0.00     0.098 A 
HETATM   11  C12 UNL     1      22.743   5.633  51.492  1.00  0.00     0.166 A 
HETATM   12  N1  UNL     1      23.664   6.646  51.020  1.00  0.00    -0.282 NA
HETATM   13  C13 UNL     1      24.821   6.460  50.495  1.00  0.00     0.228 A 
HETATM   14  N2  UNL     1      25.400   5.133  50.302  1.00  0.00    -0.229 NA
HETATM   15  C14 UNL     1      24.625   4.205  50.743  1.00  0.00     0.112 A 
HETATM   16  N3  UNL     1      25.316   3.045  50.338  1.00  0.00    -0.356 N 
HETATM   17  C15 UNL     1      26.509   2.364  50.778  1.00  0.00     0.299 C 
HETATM   18  O2  UNL     1      26.225   2.064  52.137  1.00  0.00    -0.331 OA
HETATM   19  H15 UNL     1      24.779   2.652  49.535  1.00  0.00     0.163 HD
ENDROOT
BRANCH   1  20
HETATM   20  O1  UNL     1      22.546  -1.420  54.501  1.00  0.00    -0.356 OA
HETATM   21  C1  UNL     1      21.191  -1.573  54.222  1.00  0.00     0.210 C 
ENDBRANCH   1  20
TORSDOF 1
ENDMDL
MODEL 7
REMARK VINA RESULT:      -7.0      3.803      6.927
REMARK  1 active torsions:
REMARK  status: ('A' for Active; 'I' for Inactive)
REMARK    1  A    between atoms: O1_2  and  C2_3 
ROOT
HETATM    1  C2  UNL     1      24.750  -0.446  53.541  1.00  0.00     0.069 A 
HETATM    2  C3  UNL     1      23.559  -0.828  54.121  1.00  0.00     0.039 A 
HETATM    3  C4  UNL     1      22.370  -0.214  53.785  1.00  0.00     0.040 A 
HETATM    4  C5  UNL     1      22.284   0.805  52.865  1.00  0.00     0.082 A 
HETATM    5  C6  UNL     1      23.438   1.250  52.233  1.00  0.00     0.006 A 
HETATM    6  C7  UNL     1      24.616   0.582  52.622  1.00  0.00     0.051 A 
HETATM    7  C8  UNL     1      23.863   2.223  51.235  1.00  0.00    -0.052 C 
HETATM    8  C9  UNL     1      25.067   3.106  51.541  1.00  0.00     0.049 C 
HETATM    9  C10 UNL     1      23.460   2.614  50.038  1.00  0.00    -0.005 C 
HETATM   10  C11 UNL     1      22.301   2.005  49.440  1.00  0.00     0.098 A 
HETATM   11  C12 UNL     1      22.055   1.974  48.004  1.00  0.00     0.166 A 
HETATM   12  N1  UNL     1      20.727   2.404  47.616  1.00  0.00    -0.282 NA
HETATM   13  C13 UNL     1      19.807   2.867  48.381  1.00  0.00     0.228 A 
HETATM   14  N2  UNL     1      19.978   3.022  49.824  1.00  0.00    -0.229 NA
HETATM   15  C14 UNL     1      21.135   2.617  50.214  1.00  0.00     0.112 A 
HETATM   16  N3  UNL     1      21.115   2.978  51.576  1.00  0.00    -0.356 N 
HETATM   17  C15 UNL     1      20.456   2.473  52.756  1.00  0.00     0.299 C 
HETATM   18  O2  UNL     1      20.910   1.129  52.826  1.00  0.00    -0.331 OA
HETATM   19  H15 UNL     1      21.744   3.806  51.667  1.00  0.00     0.163 HD
ENDROOT
BRANCH   1  20
HETATM   20  O1  UNL     1      25.946  -1.061  53.876  1.00  0.00    -0.356 OA
HETATM   21  C1  UNL     1      27.094  -1.002  53.092  1.00  0.00     0.210 C 
ENDBRANCH   1  20
TORSDOF 1
ENDMDL
MODEL 8
REMARK VINA RESULT:      -6.8      2.769      4.095
REMARK  1 active torsions:
REMARK  status: ('A' for Active; 'I' for Inactive)
REMARK    1  A    between atoms: O1_2  and  C2_3 
ROOT
HETATM    1  C2  UNL     1      25.216   5.328  49.141  1.00  0.00     0.069 A 
HETATM    2  C3  UNL     1      26.399   4.646  48.954  1.00  0.00     0.039 A 
HETATM    3  C4  UNL     1      26.767   3.611  49.789  1.00  0.00     0.040 A 
HETATM    4  C5  UNL     1      25.999   3.191  50.850  1.00  0.00     0.082 A 
HETATM    5  C6  UNL     1      24.790   3.827  51.108  1.00  0.00     0.006 A 
HETATM    6  C7  UNL     1      24.475   4.873  50.219  1.00  0.00     0.051 A 
HETATM    7  C8  UNL     1      23.668   3.762  52.034  1.00  0.00    -0.052 C 
HETATM    8  C9  UNL     1      23.167   5.054  52.668  1.00  0.00     0.049 C 
HETATM    9  C10 UNL     1      22.897   2.819  52.549  1.00  0.00    -0.005 C 
HETATM   10  C11 UNL     1      23.115   1.442  52.190  1.00  0.00     0.098 A 
HETATM   11  C12 UNL     1      22.087   0.413  52.274  1.00  0.00     0.166 A 
HETATM   12  N1  UNL     1      22.505  -0.795  52.956  1.00  0.00    -0.282 NA
HETATM   13  C13 UNL     1      23.627  -1.007  53.542  1.00  0.00     0.228 A 
HETATM   14  N2  UNL     1      24.696  -0.012  53.593  1.00  0.00    -0.229 NA
HETATM   15  C14 UNL     1      24.375   1.066  52.966  1.00  0.00     0.112 A 
HETATM   16  N3  UNL     1      25.474   1.899  53.259  1.00  0.00    -0.356 N 
HETATM   17  C15 UNL     1      26.849   1.963  52.825  1.00  0.00     0.299 C 
HETATM   18  O2  UNL     1      26.735   2.129  51.419  1.00  0.00    -0.331 OA
HETATM   19  H15 UNL     1      25.132   2.598  53.953  1.00  0.00     0.163 HD
ENDROOT
BRANCH   1  20
HETATM   20  O1  UNL     1      24.843   6.368  48.303  1.00  0.00    -0.356 OA
HETATM   21  C1  UNL     1      25.648   7.469  48.027  1.00  0.00     0.210 C 
ENDBRANCH   1  20
TORSDOF 1
ENDMDL
MODEL 9
REMARK VINA RESULT:      -6.8      2.725      4.505
REMARK  1 active torsions:
REMARK  status: ('A' for Active; 'I' for Inactive)
REMARK    1  A    between atoms: O1_2  and  C2_3 
ROOT
HETATM    1  C2  UNL     1      24.398   6.461  50.547  1.00  0.00     0.069 A 
HETATM    2  C3  UNL     1      23.107   6.342  51.013  1.00  0.00     0.039 A 
HETATM    3  C4  UNL     1      22.612   5.129  51.447  1.00  0.00     0.040 A 
HETATM    4  C5  UNL     1      23.353   3.971  51.449  1.00  0.00     0.082 A 
HETATM    5  C6  UNL     1      24.666   4.004  50.995  1.00  0.00     0.006 A 
HETATM    6  C7  UNL     1      25.108   5.272  50.566  1.00  0.00     0.051 A 
HETATM    7  C8  UNL     1      25.811   3.121  50.816  1.00  0.00    -0.052 C 
HETATM    8  C9  UNL     1      26.562   3.156  49.491  1.00  0.00     0.049 C 
HETATM    9  C10 UNL     1      26.434   2.196  51.527  1.00  0.00    -0.005 C 
HETATM   10  C11 UNL     1      25.960   1.868  52.846  1.00  0.00     0.098 A 
HETATM   11  C12 UNL     1      26.797   1.273  53.880  1.00  0.00     0.166 A 
HETATM   12  N1  UNL     1      26.215   0.116  54.527  1.00  0.00    -0.282 NA
HETATM   13  C13 UNL     1      25.107  -0.463  54.234  1.00  0.00     0.228 A 
HETATM   14  N2  UNL     1      24.232  -0.002  53.158  1.00  0.00    -0.229 NA
HETATM   15  C14 UNL     1      24.699   1.049  52.580  1.00  0.00     0.112 A 
HETATM   16  N3  UNL     1      23.779   1.222  51.526  1.00  0.00    -0.356 N 
HETATM   17  C15 UNL     1      22.415   1.680  51.428  1.00  0.00     0.299 C 
HETATM   18  O2  UNL     1      22.477   2.992  51.966  1.00  0.00    -0.331 OA
HETATM   19  H15 UNL     1      24.276   0.929  50.656  1.00  0.00     0.163 HD
ENDROOT
BRANCH   1  20
HETATM   20  O1  UNL     1      24.899   7.678  50.110  1.00  0.00    -0.356 OA
HETATM   21  C1  UNL     1      26.256   7.967  50.013  1.00  0.00     0.210 C 
ENDBRANCH   1  20
TORSDOF 1
ENDMDL
