MODEL 1
REMARK VINA RESULT:      -8.3      0.000      0.000
REMARK  4 active torsions:
REMARK  status: ('A' for Active; 'I' for Inactive)
REMARK    1  A    between atoms: O1_2  and  C2_3 
REMARK       I    between atoms: C2_3  and  N1_5 
REMARK    2  A    between atoms: N1_5  and  C3_6 
REMARK    3  A    between atoms: C4_7  and  C5_8 
REMARK    4  A    between atoms: C14_20  and  O4_21 
ROOT
HETATM    1  C5  UNL     1      26.585   3.476  49.967  1.00  0.00     0.041 C 
HETATM    2  C6  UNL     1      26.046   2.765  50.953  1.00  0.00     0.110 C 
HETATM    3  O3  UNL     1      26.802   1.660  51.438  1.00  0.00    -0.292 OA
HETATM    4  C7  UNL     1      26.481   0.923  52.590  1.00  0.00     0.158 C 
HETATM    5  N2  UNL     1      27.364   0.893  53.579  1.00  0.00    -0.221 NA
HETATM    6  C8  UNL     1      27.115   0.191  54.784  1.00  0.00     0.235 C 
HETATM    7  N3  UNL     1      25.977  -0.438  54.971  1.00  0.00    -0.245 NA
HETATM    8  C9  UNL     1      24.998  -0.366  53.910  1.00  0.00     0.059 C 
HETATM    9  C10 UNL     1      23.772  -0.584  53.455  1.00  0.00    -0.002 C 
HETATM   10  C11 UNL     1      23.051   0.545  53.427  1.00  0.00    -0.003 C 
HETATM   11  C12 UNL     1      23.951   0.949  52.306  1.00  0.00     0.052 C 
HETATM   12  C13 UNL     1      23.904   2.351  51.979  1.00  0.00     0.022 C 
HETATM   13  C14 UNL     1      24.727   3.236  51.404  1.00  0.00     0.099 C 
HETATM   14  C16 UNL     1      25.185   0.236  52.564  1.00  0.00     0.127 C 
ENDROOT
BRANCH   1  15
HETATM   15  C4  UNL     1      26.093   4.625  49.271  1.00  0.00     0.020 C 
HETATM   16  C3  UNL     1      26.939   5.488  48.754  1.00  0.00     0.093 C 
BRANCH  16  17
HETATM   17  N1  UNL     1      28.312   5.170  48.955  1.00  0.00    -0.313 N 
HETATM   18  C2  UNL     1      29.396   5.744  48.255  1.00  0.00     0.364 C 
HETATM   19  O2  UNL     1      29.230   6.614  47.365  1.00  0.00    -0.238 OA
HETATM   20  H4  UNL     1      28.666   4.458  49.659  1.00  0.00     0.170 HD
BRANCH  18  21
HETATM   21  O1  UNL     1      30.730   5.445  48.441  1.00  0.00    -0.309 OA
HETATM   22  C1  UNL     1      31.558   6.097  49.369  1.00  0.00     0.215 C 
ENDBRANCH  18  21
ENDBRANCH  16  17
ENDBRANCH   1  15
BRANCH  13  23
HETATM   23  O4  UNL     1      24.405   4.564  51.214  1.00  0.00    -0.353 OA
HETATM   24  C15 UNL     1      23.280   5.081  51.897  1.00  0.00     0.210 C 
ENDBRANCH  13  23
TORSDOF 4
ENDMDL
MODEL 2
REMARK VINA RESULT:      -7.8      3.627      7.130
REMARK  4 active torsions:
REMARK  status: ('A' for Active; 'I' for Inactive)
REMARK    1  A    between atoms: O1_2  and  C2_3 
REMARK       I    between atoms: C2_3  and  N1_5 
REMARK    2  A    between atoms: N1_5  and  C3_6 
REMARK    3  A    between atoms: C4_7  and  C5_8 
REMARK    4  A    between atoms: C14_20  and  O4_21 
ROOT
HETATM    1  C5  UNL     1      23.276   0.777  52.566  1.00  0.00     0.041 C 
HETATM    2  C6  UNL     1      24.589   0.675  52.745  1.00  0.00     0.110 C 
HETATM    3  O3  UNL     1      25.066  -0.522  53.350  1.00  0.00    -0.292 OA
HETATM    4  C7  UNL     1      26.421  -0.881  53.441  1.00  0.00     0.158 C 
HETATM    5  N2  UNL     1      26.811  -2.006  52.857  1.00  0.00    -0.221 NA
HETATM    6  C8  UNL     1      28.161  -2.434  52.883  1.00  0.00     0.235 C 
HETATM    7  N3  UNL     1      29.084  -1.708  53.471  1.00  0.00    -0.245 NA
HETATM    8  C9  UNL     1      28.665  -0.460  54.067  1.00  0.00     0.059 C 
HETATM    9  C10 UNL     1      28.956   0.702  54.638  1.00  0.00    -0.002 C 
HETATM   10  C11 UNL     1      28.816   1.720  53.778  1.00  0.00    -0.003 C 
HETATM   11  C12 UNL     1      27.351   1.447  53.883  1.00  0.00     0.052 C 
HETATM   12  C13 UNL     1      26.555   2.067  52.855  1.00  0.00     0.022 C 
HETATM   13  C14 UNL     1      25.367   1.835  52.283  1.00  0.00     0.099 C 
HETATM   14  C16 UNL     1      27.271   0.038  54.206  1.00  0.00     0.127 C 
ENDROOT
BRANCH   1  15
HETATM   15  C4  UNL     1      22.493   1.830  51.997  1.00  0.00     0.020 C 
HETATM   16  C3  UNL     1      21.197   1.874  52.217  1.00  0.00     0.093 C 
BRANCH  16  17
HETATM   17  N1  UNL     1      20.696   0.820  53.034  1.00  0.00    -0.313 N 
HETATM   18  C2  UNL     1      19.644  -0.055  52.685  1.00  0.00     0.364 C 
HETATM   19  O2  UNL     1      19.043   0.028  51.586  1.00  0.00    -0.238 OA
HETATM   20  H4  UNL     1      21.065   0.584  54.001  1.00  0.00     0.170 HD
BRANCH  18  21
HETATM   21  O1  UNL     1      19.150  -1.079  53.466  1.00  0.00    -0.309 OA
HETATM   22  C1  UNL     1      17.841  -1.582  53.365  1.00  0.00     0.215 C 
ENDBRANCH  18  21
ENDBRANCH  16  17
ENDBRANCH   1  15
BRANCH  13  23
HETATM   23  O4  UNL     1      24.835   2.625  51.285  1.00  0.00    -0.353 OA
HETATM   24  C15 UNL     1      25.716   3.148  50.309  1.00  0.00     0.210 C 
ENDBRANCH  13  23
TORSDOF 4
ENDMDL
MODEL 3
REMARK VINA RESULT:      -7.8      2.196      2.564
REMARK  4 active torsions:
REMARK  status: ('A' for Active; 'I' for Inactive)
REMARK    1  A    between atoms: O1_2  and  C2_3 
REMARK       I    between atoms: C2_3  and  N1_5 
REMARK    2  A    between atoms: N1_5  and  C3_6 
REMARK    3  A    between atoms: C4_7  and  C5_8 
REMARK    4  A    between atoms: C14_20  and  O4_21 
ROOT
HETATM    1  C5  UNL     1      25.598   3.832  49.732  1.00  0.00     0.041 C 
HETATM    2  C6  UNL     1      25.757   3.061  50.804  1.00  0.00     0.110 C 
HETATM    3  O3  UNL     1      27.072   2.580  51.062  1.00  0.00    -0.292 OA
HETATM    4  C7  UNL     1      27.459   1.920  52.240  1.00  0.00     0.158 C 
HETATM    5  N2  UNL     1      28.411   2.469  52.981  1.00  0.00    -0.221 NA
HETATM    6  C8  UNL     1      28.849   1.883  54.194  1.00  0.00     0.235 C 
HETATM    7  N3  UNL     1      28.301   0.777  54.640  1.00  0.00    -0.245 NA
HETATM    8  C9  UNL     1      27.231   0.204  53.855  1.00  0.00     0.059 C 
HETATM    9  C10 UNL     1      26.248  -0.675  53.711  1.00  0.00    -0.002 C 
HETATM   10  C11 UNL     1      25.049  -0.103  53.887  1.00  0.00    -0.003 C 
HETATM   11  C12 UNL     1      25.321   0.583  52.589  1.00  0.00     0.052 C 
HETATM   12  C13 UNL     1      24.458   1.704  52.316  1.00  0.00     0.022 C 
HETATM   13  C14 UNL     1      24.529   2.818  51.577  1.00  0.00     0.099 C 
HETATM   14  C16 UNL     1      26.765   0.658  52.519  1.00  0.00     0.127 C 
ENDROOT
BRANCH   1  15
HETATM   15  C4  UNL     1      24.429   4.464  49.205  1.00  0.00     0.020 C 
HETATM   16  C3  UNL     1      24.499   5.697  48.753  1.00  0.00     0.093 C 
BRANCH  16  17
HETATM   17  N1  UNL     1      25.790   6.292  48.844  1.00  0.00    -0.313 N 
HETATM   18  C2  UNL     1      26.094   7.485  49.536  1.00  0.00     0.364 C 
HETATM   19  O2  UNL     1      25.218   8.143  50.150  1.00  0.00    -0.238 OA
HETATM   20  H4  UNL     1      26.666   5.896  48.394  1.00  0.00     0.170 HD
BRANCH  18  21
HETATM   21  O1  UNL     1      27.338   8.071  49.632  1.00  0.00    -0.309 OA
HETATM   22  C1  UNL     1      27.560   9.370  50.121  1.00  0.00     0.215 C 
ENDBRANCH  18  21
ENDBRANCH  16  17
ENDBRANCH   1  15
BRANCH  13  23
HETATM   23  O4  UNL     1      23.513   3.748  51.502  1.00  0.00    -0.353 OA
HETATM   24  C15 UNL     1      23.324   4.617  52.601  1.00  0.00     0.210 C 
ENDBRANCH  13  23
TORSDOF 4
ENDMDL
MODEL 4
REMARK VINA RESULT:      -7.6      3.064      7.926
REMARK  4 active torsions:
REMARK  status: ('A' for Active; 'I' for Inactive)
REMARK    1  A    between atoms: O1_2  and  C2_3 
REMARK       I    between atoms: C2_3  and  N1_5 
REMARK    2  A    between atoms: N1_5  and  C3_6 
REMARK    3  A    between atoms: C4_7  and  C5_8 
REMARK    4  A    between atoms: C14_20  and  O4_21 
ROOT
HETATM    1  C5  UNL     1      23.953   1.431  52.549  1.00  0.00     0.041 C 
HETATM    2  C6  UNL     1      24.551   2.439  51.921  1.00  0.00     0.110 C 
HETATM    3  O3  UNL     1      23.718   3.498  51.462  1.00  0.00    -0.292 OA
HETATM    4  C7  UNL     1      24.193   4.719  50.955  1.00  0.00     0.158 C 
HETATM    5  N2  UNL     1      23.849   5.834  51.584  1.00  0.00    -0.221 NA
HETATM    6  C8  UNL     1      24.298   7.106  51.153  1.00  0.00     0.235 C 
HETATM    7  N3  UNL     1      25.100   7.220  50.120  1.00  0.00    -0.245 NA
HETATM    8  C9  UNL     1      25.511   6.000  49.463  1.00  0.00     0.059 C 
HETATM    9  C10 UNL     1      26.272   5.363  48.583  1.00  0.00    -0.002 C 
HETATM   10  C11 UNL     1      27.273   4.705  49.186  1.00  0.00    -0.003 C 
HETATM   11  C12 UNL     1      26.204   3.795  49.697  1.00  0.00     0.052 C 
HETATM   12  C13 UNL     1      26.617   2.944  50.783  1.00  0.00     0.022 C 
HETATM   13  C14 UNL     1      26.011   2.305  51.792  1.00  0.00     0.099 C 
HETATM   14  C16 UNL     1      25.020   4.626  49.746  1.00  0.00     0.127 C 
ENDROOT
BRANCH   1  15
HETATM   15  C4  UNL     1      24.494   0.238  53.121  1.00  0.00     0.020 C 
HETATM   16  C3  UNL     1      23.692  -0.748  53.458  1.00  0.00     0.093 C 
BRANCH  16  17
HETATM   17  N1  UNL     1      22.312  -0.506  53.206  1.00  0.00    -0.313 N 
HETATM   18  C2  UNL     1      21.238  -1.012  53.973  1.00  0.00     0.364 C 
HETATM   19  O2  UNL     1      21.421  -1.744  54.976  1.00  0.00    -0.238 OA
HETATM   20  H4  UNL     1      21.943   0.086  52.405  1.00  0.00     0.170 HD
BRANCH  18  21
HETATM   21  O1  UNL     1      19.898  -0.784  53.739  1.00  0.00    -0.309 OA
HETATM   22  C1  UNL     1      19.403  -0.085  52.625  1.00  0.00     0.215 C 
ENDBRANCH  18  21
ENDBRANCH  16  17
ENDBRANCH   1  15
BRANCH  13  23
HETATM   23  O4  UNL     1      26.682   1.532  52.716  1.00  0.00    -0.353 OA
HETATM   24  C15 UNL     1      27.889   2.035  53.255  1.00  0.00     0.210 C 
ENDBRANCH  13  23
TORSDOF 4
ENDMDL
MODEL 5
REMARK VINA RESULT:      -7.5      3.451      4.503
REMARK  4 active torsions:
REMARK  status: ('A' for Active; 'I' for Inactive)
REMARK    1  A    between atoms: O1_2  and  C2_3 
REMARK       I    between atoms: C2_3  and  N1_5 
REMARK    2  A    between atoms: N1_5  and  C3_6 
REMARK    3  A    between atoms: C4_7  and  C5_8 
REMARK    4  A    between atoms: C14_20  and  O4_21 
ROOT
HETATM    1  C5  UNL     1      24.054   3.405  52.174  1.00  0.00     0.041 C 
HETATM    2  C6  UNL     1      24.855   2.417  52.563  1.00  0.00     0.110 C 
HETATM    3  O3  UNL     1      26.255   2.665  52.516  1.00  0.00    -0.292 OA
HETATM    4  C7  UNL     1      27.232   1.816  53.063  1.00  0.00     0.158 C 
HETATM    5  N2  UNL     1      28.019   2.299  54.014  1.00  0.00    -0.221 NA
HETATM    6  C8  UNL     1      29.016   1.507  54.634  1.00  0.00     0.235 C 
HETATM    7  N3  UNL     1      29.177   0.247  54.301  1.00  0.00    -0.245 NA
HETATM    8  C9  UNL     1      28.287  -0.290  53.297  1.00  0.00     0.059 C 
HETATM    9  C10 UNL     1      27.800  -1.321  52.619  1.00  0.00    -0.002 C 
HETATM   10  C11 UNL     1      26.589  -1.677  53.069  1.00  0.00    -0.003 C 
HETATM   11  C12 UNL     1      26.121  -0.395  52.462  1.00  0.00     0.052 C 
HETATM   12  C13 UNL     1      24.816   0.029  52.900  1.00  0.00     0.022 C 
HETATM   13  C14 UNL     1      24.160   1.192  52.991  1.00  0.00     0.099 C 
HETATM   14  C16 UNL     1      27.286   0.464  52.497  1.00  0.00     0.127 C 
ENDROOT
BRANCH   1  15
HETATM   15  C4  UNL     1      22.628   3.475  52.104  1.00  0.00     0.020 C 
HETATM   16  C3  UNL     1      22.035   4.644  52.000  1.00  0.00     0.093 C 
BRANCH  16  17
HETATM   17  N1  UNL     1      22.919   5.760  51.970  1.00  0.00    -0.313 N 
HETATM   18  C2  UNL     1      22.940   6.761  50.973  1.00  0.00     0.364 C 
HETATM   19  O2  UNL     1      22.151   6.747  49.997  1.00  0.00    -0.238 OA
HETATM   20  H4  UNL     1      23.664   5.955  52.701  1.00  0.00     0.170 HD
BRANCH  18  21
HETATM   21  O1  UNL     1      23.790   7.846  50.933  1.00  0.00    -0.309 OA
HETATM   22  C1  UNL     1      25.023   7.853  50.258  1.00  0.00     0.215 C 
ENDBRANCH  18  21
ENDBRANCH  16  17
ENDBRANCH   1  15
BRANCH  13  23
HETATM   23  O4  UNL     1      22.869   1.304  53.465  1.00  0.00    -0.353 OA
HETATM   24  C15 UNL     1      22.155   0.114  53.738  1.00  0.00     0.210 C 
ENDBRANCH  13  23
TORSDOF 4
ENDMDL
MODEL 6
REMARK VINA RESULT:      -7.5      3.929      6.490
REMARK  4 active torsions:
REMARK  status: ('A' for Active; 'I' for Inactive)
REMARK    1  A    between atoms: O1_2  and  C2_3 
REMARK       I    between atoms: C2_3  and  N1_5 
REMARK    2  A    between atoms: N1_5  and  C3_6 
REMARK    3  A    between atoms: C4_7  and  C5_8 
REMARK    4  A    between atoms: C14_20  and  O4_21 
ROOT
HETATM    1  C5  UNL     1      24.649   0.430  53.222  1.00  0.00     0.041 C 
HETATM    2  C6  UNL     1      23.585   0.964  52.630  1.00  0.00     0.110 C 
HETATM    3  O3  UNL     1      23.826   2.004  51.689  1.00  0.00    -0.292 OA
HETATM    4  C7  UNL     1      22.850   2.546  50.836  1.00  0.00     0.158 C 
HETATM    5  N2  UNL     1      23.040   2.451  49.527  1.00  0.00    -0.221 NA
HETATM    6  C8  UNL     1      22.098   2.952  48.596  1.00  0.00     0.235 C 
HETATM    7  N3  UNL     1      20.982   3.509  49.004  1.00  0.00    -0.245 NA
HETATM    8  C9  UNL     1      20.754   3.570  50.430  1.00  0.00     0.059 C 
HETATM    9  C10 UNL     1      19.959   3.817  51.462  1.00  0.00    -0.002 C 
HETATM   10  C11 UNL     1      19.501   2.683  52.011  1.00  0.00    -0.003 C 
HETATM   11  C12 UNL     1      20.905   2.485  52.478  1.00  0.00     0.052 C 
HETATM   12  C13 UNL     1      21.200   1.149  52.929  1.00  0.00     0.022 C 
HETATM   13  C14 UNL     1      22.296   0.388  53.043  1.00  0.00     0.099 C 
HETATM   14  C16 UNL     1      21.710   3.187  51.502  1.00  0.00     0.127 C 
ENDROOT
BRANCH   1  15
HETATM   15  C4  UNL     1      24.748  -0.613  54.196  1.00  0.00     0.020 C 
HETATM   16  C3  UNL     1      25.711  -0.584  55.090  1.00  0.00     0.093 C 
BRANCH  16  17
HETATM   17  N1  UNL     1      26.589   0.532  54.983  1.00  0.00    -0.313 N 
HETATM   18  C2  UNL     1      27.980   0.459  54.746  1.00  0.00     0.364 C 
HETATM   19  O2  UNL     1      28.577  -0.636  54.606  1.00  0.00    -0.238 OA
HETATM   20  H4  UNL     1      26.285   1.545  55.074  1.00  0.00     0.170 HD
BRANCH  18  21
HETATM   21  O1  UNL     1      28.841   1.532  54.641  1.00  0.00    -0.309 OA
HETATM   22  C1  UNL     1      28.752   2.513  53.639  1.00  0.00     0.215 C 
ENDBRANCH  18  21
ENDBRANCH  16  17
ENDBRANCH   1  15
BRANCH  13  23
HETATM   23  O4  UNL     1      22.280  -0.904  53.525  1.00  0.00    -0.353 OA
HETATM   24  C15 UNL     1      21.128  -1.341  54.221  1.00  0.00     0.210 C 
ENDBRANCH  13  23
TORSDOF 4
ENDMDL
MODEL 7
REMARK VINA RESULT:      -7.3      1.770      2.368
REMARK  4 active torsions:
REMARK  status: ('A' for Active; 'I' for Inactive)
REMARK    1  A    between atoms: O1_2  and  C2_3 
REMARK       I    between atoms: C2_3  and  N1_5 
REMARK    2  A    between atoms: N1_5  and  C3_6 
REMARK    3  A    between atoms: C4_7  and  C5_8 
REMARK    4  A    between atoms: C14_20  and  O4_21 
ROOT
HETATM    1  C5  UNL     1      27.134   5.339  48.732  1.00  0.00     0.041 C 
HETATM    2  C6  UNL     1      26.478   4.659  49.668  1.00  0.00     0.110 C 
HETATM    3  O3  UNL     1      26.981   3.370  49.999  1.00  0.00    -0.292 OA
HETATM    4  C7  UNL     1      26.536   2.599  51.086  1.00  0.00     0.158 C 
HETATM    5  N2  UNL     1      27.416   2.269  52.021  1.00  0.00    -0.221 NA
HETATM    6  C8  UNL     1      27.050   1.511  53.160  1.00  0.00     0.235 C 
HETATM    7  N3  UNL     1      25.806   1.129  53.340  1.00  0.00    -0.245 NA
HETATM    8  C9  UNL     1      24.839   1.529  52.344  1.00  0.00     0.059 C 
HETATM    9  C10 UNL     1      23.583   1.635  51.932  1.00  0.00    -0.002 C 
HETATM   10  C11 UNL     1      23.131   2.891  52.054  1.00  0.00    -0.003 C 
HETATM   11  C12 UNL     1      24.068   3.208  50.936  1.00  0.00     0.052 C 
HETATM   12  C13 UNL     1      24.325   4.614  50.754  1.00  0.00     0.022 C 
HETATM   13  C14 UNL     1      25.309   5.355  50.230  1.00  0.00     0.099 C 
HETATM   14  C16 UNL     1      25.119   2.219  51.057  1.00  0.00     0.127 C 
ENDROOT
BRANCH   1  15
HETATM   15  C4  UNL     1      26.891   6.636  48.181  1.00  0.00     0.020 C 
HETATM   16  C3  UNL     1      27.822   7.562  48.252  1.00  0.00     0.093 C 
BRANCH  16  17
HETATM   17  N1  UNL     1      29.022   7.151  48.900  1.00  0.00    -0.313 N 
HETATM   18  C2  UNL     1      30.270   7.806  48.804  1.00  0.00     0.364 C 
HETATM   19  O2  UNL     1      30.428   8.843  48.114  1.00  0.00    -0.238 OA
HETATM   20  H4  UNL     1      29.103   6.298  49.527  1.00  0.00     0.170 HD
BRANCH  18  21
HETATM   21  O1  UNL     1      31.438   7.419  49.427  1.00  0.00    -0.309 OA
HETATM   22  C1  UNL     1      31.793   6.080  49.666  1.00  0.00     0.215 C 
ENDBRANCH  18  21
ENDBRANCH  16  17
ENDBRANCH   1  15
BRANCH  13  23
HETATM   23  O4  UNL     1      25.286   6.734  50.191  1.00  0.00    -0.353 OA
HETATM   24  C15 UNL     1      24.184   7.398  50.778  1.00  0.00     0.210 C 
ENDBRANCH  13  23
TORSDOF 4
ENDMDL
MODEL 8
REMARK VINA RESULT:      -7.2      4.142      5.981
REMARK  4 active torsions:
REMARK  status: ('A' for Active; 'I' for Inactive)
REMARK    1  A    between atoms: O1_2  and  C2_3 
REMARK       I    between atoms: C2_3  and  N1_5 
REMARK    2  A    between atoms: N1_5  and  C3_6 
REMARK    3  A    between atoms: C4_7  and  C5_8 
REMARK    4  A    between atoms: C14_20  and  O4_21 
ROOT
HETATM    1  C5  UNL     1      24.983   0.979  53.433  1.00  0.00     0.041 C 
HETATM    2  C6  UNL     1      23.763   1.079  52.914  1.00  0.00     0.110 C 
HETATM    3  O3  UNL     1      22.956  -0.093  52.932  1.00  0.00    -0.292 OA
HETATM    4  C7  UNL     1      21.590  -0.122  52.607  1.00  0.00     0.158 C 
HETATM    5  N2  UNL     1      20.733  -0.523  53.536  1.00  0.00    -0.221 NA
HETATM    6  C8  UNL     1      19.338  -0.565  53.300  1.00  0.00     0.235 C 
HETATM    7  N3  UNL     1      18.840  -0.178  52.148  1.00  0.00    -0.245 NA
HETATM    8  C9  UNL     1      19.771   0.303  51.153  1.00  0.00     0.059 C 
HETATM    9  C10 UNL     1      20.014   0.889  49.988  1.00  0.00    -0.002 C 
HETATM   10  C11 UNL     1      20.412   2.159  50.152  1.00  0.00    -0.003 C 
HETATM   11  C12 UNL     1      21.667   1.566  50.702  1.00  0.00     0.052 C 
HETATM   12  C13 UNL     1      22.496   2.494  51.428  1.00  0.00     0.022 C 
HETATM   13  C14 UNL     1      23.424   2.412  52.389  1.00  0.00     0.099 C 
HETATM   14  C16 UNL     1      21.254   0.286  51.238  1.00  0.00     0.127 C 
ENDROOT
BRANCH   1  15
HETATM   15  C4  UNL     1      26.022   1.953  53.566  1.00  0.00     0.020 C 
HETATM   16  C3  UNL     1      27.281   1.579  53.501  1.00  0.00     0.093 C 
BRANCH  16  17
HETATM   17  N1  UNL     1      27.478   0.183  53.298  1.00  0.00    -0.313 N 
HETATM   18  C2  UNL     1      28.605  -0.555  53.725  1.00  0.00     0.364 C 
HETATM   19  O2  UNL     1      29.558  -0.019  54.341  1.00  0.00    -0.238 OA
HETATM   20  H4  UNL     1      26.792  -0.453  52.797  1.00  0.00     0.170 HD
BRANCH  18  21
HETATM   21  O1  UNL     1      28.807  -1.906  53.536  1.00  0.00    -0.309 OA
HETATM   22  C1  UNL     1      27.968  -2.724  52.760  1.00  0.00     0.215 C 
ENDBRANCH  18  21
ENDBRANCH  16  17
ENDBRANCH   1  15
BRANCH  13  23
HETATM   23  O4  UNL     1      24.077   3.508  52.914  1.00  0.00    -0.353 OA
HETATM   24  C15 UNL     1      23.474   4.778  52.762  1.00  0.00     0.210 C 
ENDBRANCH  13  23
TORSDOF 4
ENDMDL
MODEL 9
REMARK VINA RESULT:      -6.9      3.750      8.886
REMARK  4 active torsions:
REMARK  status: ('A' for Active; 'I' for Inactive)
REMARK    1  A    between atoms: O1_2  and  C2_3 
REMARK       I    between atoms: C2_3  and  N1_5 
REMARK    2  A    between atoms: N1_5  and  C3_6 
REMARK    3  A    between atoms: C4_7  and  C5_8 
REMARK    4  A    between atoms: C14_20  and  O4_21 
ROOT
HETATM    1  C5  UNL     1      29.117   6.093  47.967  1.00  0.00     0.041 C 
HETATM    2  C6  UNL     1      30.439   6.018  47.845  1.00  0.00     0.110 C 
HETATM    3  O3  UNL     1      31.038   4.751  48.093  1.00  0.00    -0.292 OA
HETATM    4  C7  UNL     1      32.383   4.443  47.827  1.00  0.00     0.158 C 
HETATM    5  N2  UNL     1      32.644   3.469  46.967  1.00  0.00    -0.221 NA
HETATM    6  C8  UNL     1      33.970   3.106  46.626  1.00  0.00     0.235 C 
HETATM    7  N3  UNL     1      34.994   3.748  47.138  1.00  0.00    -0.245 NA
HETATM    8  C9  UNL     1      34.707   4.841  48.040  1.00  0.00     0.059 C 
HETATM    9  C10 UNL     1      35.109   5.885  48.753  1.00  0.00    -0.002 C 
HETATM   10  C11 UNL     1      34.784   7.040  48.156  1.00  0.00    -0.003 C 
HETATM   11  C12 UNL     1      33.377   6.686  48.509  1.00  0.00     0.052 C 
HETATM   12  C13 UNL     1      32.377   7.453  47.810  1.00  0.00     0.022 C 
HETATM   13  C14 UNL     1      31.095   7.279  47.465  1.00  0.00     0.099 C 
HETATM   14  C16 UNL     1      33.374   5.239  48.561  1.00  0.00     0.127 C 
ENDROOT
BRANCH   1  15
HETATM   15  C4  UNL     1      28.226   7.197  47.790  1.00  0.00     0.020 C 
HETATM   16  C3  UNL     1      27.152   7.298  48.541  1.00  0.00     0.093 C 
BRANCH  16  17
HETATM   17  N1  UNL     1      26.988   6.248  49.490  1.00  0.00    -0.313 N 
HETATM   18  C2  UNL     1      25.901   5.346  49.531  1.00  0.00     0.364 C 
HETATM   19  O2  UNL     1      24.958   5.399  48.705  1.00  0.00    -0.238 OA
HETATM   20  H4  UNL     1      27.672   6.035  50.273  1.00  0.00     0.170 HD
BRANCH  18  21
HETATM   21  O1  UNL     1      25.731   4.326  50.443  1.00  0.00    -0.309 OA
HETATM   22  C1  UNL     1      26.366   3.075  50.350  1.00  0.00     0.215 C 
ENDBRANCH  18  21
ENDBRANCH  16  17
ENDBRANCH   1  15
BRANCH  13  23
HETATM   23  O4  UNL     1      30.359   8.218  46.773  1.00  0.00    -0.353 OA
HETATM   24  C15 UNL     1      30.878   8.701  45.549  1.00  0.00     0.210 C 
ENDBRANCH  13  23
TORSDOF 4
ENDMDL
