MODEL 1
REMARK VINA RESULT:      -8.8      0.000      0.000
REMARK  6 active torsions:
REMARK  status: ('A' for Active; 'I' for Inactive)
REMARK    1  A    between atoms: C2_2  and  C3_3 
REMARK    2  A    between atoms: C7_9  and  N3_10 
REMARK    3  A    between atoms: N3_10  and  C8_11 
REMARK    4  A    between atoms: C10_13  and  C11_14 
REMARK    5  A    between atoms: C19_22  and  O1_23 
REMARK    6  A    between atoms: O1_23  and  C20_24 
ROOT
HETATM    1  C3  UNL     1      21.029   0.593  52.234  1.00  0.00    -0.022 A 
HETATM    2  C4  UNL     1      21.320   1.138  51.007  1.00  0.00     0.042 A 
HETATM    3  C5  UNL     1      22.507   1.831  50.745  1.00  0.00     0.072 A 
HETATM    4  N1  UNL     1      22.776   2.355  49.548  1.00  0.00    -0.241 NA
HETATM    5  C6  UNL     1      23.941   3.008  49.379  1.00  0.00     0.235 A 
HETATM    6  N2  UNL     1      24.842   3.144  50.390  1.00  0.00    -0.224 NA
HETATM    7  C7  UNL     1      24.617   2.636  51.609  1.00  0.00     0.138 A 
HETATM    8  C17 UNL     1      23.428   1.977  51.762  1.00  0.00     0.041 A 
HETATM    9  C18 UNL     1      23.124   1.429  52.977  1.00  0.00     0.055 A 
HETATM   10  C19 UNL     1      21.962   0.739  53.266  1.00  0.00     0.086 A 
ENDROOT
BRANCH   7  11
HETATM   11  N3  UNL     1      25.602   2.809  52.641  1.00  0.00    -0.369 N 
HETATM   12  H8  UNL     1      25.555   3.529  53.391  1.00  0.00     0.161 HD
BRANCH  11  13
HETATM   13  C8  UNL     1      26.704   1.892  52.573  1.00  0.00     0.092 A 
HETATM   14  C9  UNL     1      27.965   2.389  53.266  1.00  0.00     0.037 A 
HETATM   15  C10 UNL     1      27.251   1.190  53.743  1.00  0.00     0.043 A 
BRANCH  15  16
HETATM   16  C11 UNL     1      27.803  -0.173  53.475  1.00  0.00    -0.052 A 
HETATM   17  C12 UNL     1      26.918  -1.079  52.901  1.00  0.00     0.007 A 
HETATM   18  C13 UNL     1      27.316  -2.372  52.608  1.00  0.00     0.001 A 
HETATM   19  C14 UNL     1      28.619  -2.767  52.891  1.00  0.00     0.000 A 
HETATM   20  C15 UNL     1      29.510  -1.863  53.465  1.00  0.00     0.001 A 
HETATM   21  C16 UNL     1      29.095  -0.560  53.756  1.00  0.00     0.007 A 
ENDBRANCH  15  16
ENDBRANCH  11  13
ENDBRANCH   7  11
BRANCH  10  22
HETATM   22  O1  UNL     1      21.673   0.188  54.514  1.00  0.00    -0.279 OA
BRANCH  22  23
HETATM   23  C20 UNL     1      22.120  -1.090  54.820  1.00  0.00     0.260 C 
HETATM   24  C21 UNL     1      23.558  -1.097  55.229  1.00  0.00     0.126 C 
HETATM   25  O2  UNL     1      21.464  -2.161  54.785  1.00  0.00    -0.265 OA
ENDBRANCH  22  23
ENDBRANCH  10  22
BRANCH   1  26
HETATM   26  C2  UNL     1      19.764  -0.138  52.482  1.00  0.00     0.037 C 
HETATM   27  C1  UNL     1      18.704   0.220  51.469  1.00  0.00     0.010 C 
ENDBRANCH   1  26
TORSDOF 6
ENDMDL
MODEL 2
REMARK VINA RESULT:      -8.5      2.502      4.104
REMARK  6 active torsions:
REMARK  status: ('A' for Active; 'I' for Inactive)
REMARK    1  A    between atoms: C2_2  and  C3_3 
REMARK    2  A    between atoms: C7_9  and  N3_10 
REMARK    3  A    between atoms: N3_10  and  C8_11 
REMARK    4  A    between atoms: C10_13  and  C11_14 
REMARK    5  A    between atoms: C19_22  and  O1_23 
REMARK    6  A    between atoms: O1_23  and  C20_24 
ROOT
HETATM    1  C3  UNL     1      18.958  -0.146  52.481  1.00  0.00    -0.022 A 
HETATM    2  C4  UNL     1      19.483  -0.955  53.459  1.00  0.00     0.042 A 
HETATM    3  C5  UNL     1      20.832  -0.921  53.832  1.00  0.00     0.072 A 
HETATM    4  N1  UNL     1      21.327  -1.712  54.785  1.00  0.00    -0.241 NA
HETATM    5  C6  UNL     1      22.636  -1.617  55.083  1.00  0.00     0.235 A 
HETATM    6  N2  UNL     1      23.458  -0.742  54.443  1.00  0.00    -0.224 NA
HETATM    7  C7  UNL     1      23.008   0.073  53.479  1.00  0.00     0.138 A 
HETATM    8  C17 UNL     1      21.675  -0.038  53.189  1.00  0.00     0.041 A 
HETATM    9  C18 UNL     1      21.137   0.759  52.218  1.00  0.00     0.055 A 
HETATM   10  C19 UNL     1      19.812   0.750  51.829  1.00  0.00     0.086 A 
ENDROOT
BRANCH   7  11
HETATM   11  N3  UNL     1      23.918   0.979  52.835  1.00  0.00    -0.369 N 
HETATM   12  H8  UNL     1      23.723   1.984  52.649  1.00  0.00     0.161 HD
BRANCH  11  13
HETATM   13  C8  UNL     1      25.167   0.390  52.444  1.00  0.00     0.092 A 
HETATM   14  C9  UNL     1      26.089   1.340  51.692  1.00  0.00     0.037 A 
HETATM   15  C10 UNL     1      26.465   0.788  53.007  1.00  0.00     0.043 A 
BRANCH  15  16
HETATM   16  C11 UNL     1      27.485  -0.300  53.104  1.00  0.00    -0.052 A 
HETATM   17  C12 UNL     1      28.741   0.090  53.559  1.00  0.00     0.007 A 
HETATM   18  C13 UNL     1      29.766  -0.830  53.690  1.00  0.00     0.001 A 
HETATM   19  C14 UNL     1      29.536  -2.162  53.361  1.00  0.00     0.000 A 
HETATM   20  C15 UNL     1      28.280  -2.558  52.905  1.00  0.00     0.001 A 
HETATM   21  C16 UNL     1      27.254  -1.618  52.778  1.00  0.00     0.007 A 
ENDBRANCH  15  16
ENDBRANCH  11  13
ENDBRANCH   7  11
BRANCH  10  22
HETATM   22  O1  UNL     1      19.285   1.574  50.833  1.00  0.00    -0.279 OA
BRANCH  22  23
HETATM   23  C20 UNL     1      19.226   2.945  51.040  1.00  0.00     0.260 C 
HETATM   24  C21 UNL     1      19.606   3.713  49.815  1.00  0.00     0.126 C 
HETATM   25  O2  UNL     1      18.901   3.548  52.093  1.00  0.00    -0.265 OA
ENDBRANCH  22  23
ENDBRANCH  10  22
BRANCH   1  26
HETATM   26  C2  UNL     1      17.525  -0.203  52.108  1.00  0.00     0.037 C 
HETATM   27  C1  UNL     1      16.875  -1.481  52.582  1.00  0.00     0.010 C 
ENDBRANCH   1  26
TORSDOF 6
ENDMDL
MODEL 3
REMARK VINA RESULT:      -8.4      2.700      6.674
REMARK  6 active torsions:
REMARK  status: ('A' for Active; 'I' for Inactive)
REMARK    1  A    between atoms: C2_2  and  C3_3 
REMARK    2  A    between atoms: C7_9  and  N3_10 
REMARK    3  A    between atoms: N3_10  and  C8_11 
REMARK    4  A    between atoms: C10_13  and  C11_14 
REMARK    5  A    between atoms: C19_22  and  O1_23 
REMARK    6  A    between atoms: O1_23  and  C20_24 
ROOT
HETATM    1  C3  UNL     1      25.481   2.959  51.166  1.00  0.00    -0.022 A 
HETATM    2  C4  UNL     1      26.421   1.959  51.222  1.00  0.00     0.042 A 
HETATM    3  C5  UNL     1      26.287   0.834  52.045  1.00  0.00     0.072 A 
HETATM    4  N1  UNL     1      27.209  -0.130  52.089  1.00  0.00    -0.241 NA
HETATM    5  C6  UNL     1      27.004  -1.178  52.908  1.00  0.00     0.235 A 
HETATM    6  N2  UNL     1      25.891  -1.277  53.684  1.00  0.00    -0.224 NA
HETATM    7  C7  UNL     1      24.938  -0.335  53.675  1.00  0.00     0.138 A 
HETATM    8  C17 UNL     1      25.163   0.723  52.838  1.00  0.00     0.041 A 
HETATM    9  C18 UNL     1      24.238   1.726  52.770  1.00  0.00     0.055 A 
HETATM   10  C19 UNL     1      24.340   2.846  51.969  1.00  0.00     0.086 A 
ENDROOT
BRANCH   7  11
HETATM   11  N3  UNL     1      23.782  -0.490  54.515  1.00  0.00    -0.369 N 
HETATM   12  H8  UNL     1      23.774  -0.342  55.546  1.00  0.00     0.161 HD
BRANCH  11  13
HETATM   13  C8  UNL     1      22.588  -0.877  53.820  1.00  0.00     0.092 A 
HETATM   14  C9  UNL     1      21.702  -1.836  54.603  1.00  0.00     0.037 A 
HETATM   15  C10 UNL     1      21.237  -0.484  54.245  1.00  0.00     0.043 A 
BRANCH  15  16
HETATM   16  C11 UNL     1      20.246  -0.296  53.141  1.00  0.00    -0.052 A 
HETATM   17  C12 UNL     1      20.731   0.331  51.997  1.00  0.00     0.007 A 
HETATM   18  C13 UNL     1      19.905   0.560  50.910  1.00  0.00     0.001 A 
HETATM   19  C14 UNL     1      18.575   0.158  50.965  1.00  0.00     0.000 A 
HETATM   20  C15 UNL     1      18.085  -0.470  52.108  1.00  0.00     0.001 A 
HETATM   21  C16 UNL     1      18.929  -0.695  53.198  1.00  0.00     0.007 A 
ENDBRANCH  15  16
ENDBRANCH  11  13
ENDBRANCH   7  11
BRANCH  10  22
HETATM   22  O1  UNL     1      23.382   3.859  51.917  1.00  0.00    -0.279 OA
BRANCH  22  23
HETATM   23  C20 UNL     1      22.199   3.648  51.222  1.00  0.00     0.260 C 
HETATM   24  C21 UNL     1      20.998   3.982  52.047  1.00  0.00     0.126 C 
HETATM   25  O2  UNL     1      22.066   3.231  50.044  1.00  0.00    -0.265 OA
ENDBRANCH  22  23
ENDBRANCH  10  22
BRANCH   1  26
HETATM   26  C2  UNL     1      25.648   4.138  50.284  1.00  0.00     0.037 C 
HETATM   27  C1  UNL     1      26.807   3.963  49.332  1.00  0.00     0.010 C 
ENDBRANCH   1  26
TORSDOF 6
ENDMDL
MODEL 4
REMARK VINA RESULT:      -8.3      3.440      6.294
REMARK  6 active torsions:
REMARK  status: ('A' for Active; 'I' for Inactive)
REMARK    1  A    between atoms: C2_2  and  C3_3 
REMARK    2  A    between atoms: C7_9  and  N3_10 
REMARK    3  A    between atoms: N3_10  and  C8_11 
REMARK    4  A    between atoms: C10_13  and  C11_14 
REMARK    5  A    between atoms: C19_22  and  O1_23 
REMARK    6  A    between atoms: O1_23  and  C20_24 
ROOT
HETATM    1  C3  UNL     1      24.844   0.602  53.474  1.00  0.00    -0.022 A 
HETATM    2  C4  UNL     1      23.590   0.369  52.966  1.00  0.00     0.042 A 
HETATM    3  C5  UNL     1      22.746   1.395  52.525  1.00  0.00     0.072 A 
HETATM    4  N1  UNL     1      21.529   1.153  52.033  1.00  0.00    -0.241 NA
HETATM    5  C6  UNL     1      20.780   2.197  51.631  1.00  0.00     0.235 A 
HETATM    6  N2  UNL     1      21.229   3.479  51.713  1.00  0.00    -0.224 NA
HETATM    7  C7  UNL     1      22.443   3.771  52.200  1.00  0.00     0.138 A 
HETATM    8  C17 UNL     1      23.190   2.699  52.604  1.00  0.00     0.041 A 
HETATM    9  C18 UNL     1      24.440   2.913  53.112  1.00  0.00     0.055 A 
HETATM   10  C19 UNL     1      25.296   1.923  53.554  1.00  0.00     0.086 A 
ENDROOT
BRANCH   7  11
HETATM   11  N3  UNL     1      22.868   5.143  52.265  1.00  0.00    -0.369 N 
HETATM   12  H8  UNL     1      22.705   5.776  53.074  1.00  0.00     0.161 HD
BRANCH  11  13
HETATM   13  C8  UNL     1      23.559   5.608  51.096  1.00  0.00     0.092 A 
HETATM   14  C9  UNL     1      23.175   7.019  50.673  1.00  0.00     0.037 A 
HETATM   15  C10 UNL     1      24.544   6.699  51.115  1.00  0.00     0.043 A 
BRANCH  15  16
HETATM   16  C11 UNL     1      25.651   6.582  50.117  1.00  0.00    -0.052 A 
HETATM   17  C12 UNL     1      26.296   7.772  49.792  1.00  0.00     0.007 A 
HETATM   18  C13 UNL     1      27.336   7.788  48.879  1.00  0.00     0.001 A 
HETATM   19  C14 UNL     1      27.739   6.599  48.280  1.00  0.00     0.000 A 
HETATM   20  C15 UNL     1      27.097   5.406  48.602  1.00  0.00     0.001 A 
HETATM   21  C16 UNL     1      26.048   5.403  49.526  1.00  0.00     0.007 A 
ENDBRANCH  15  16
ENDBRANCH  11  13
ENDBRANCH   7  11
BRANCH  10  22
HETATM   22  O1  UNL     1      26.570   2.166  54.070  1.00  0.00    -0.279 OA
BRANCH  22  23
HETATM   23  C20 UNL     1      27.660   2.208  53.211  1.00  0.00     0.260 C 
HETATM   24  C21 UNL     1      28.908   1.711  53.866  1.00  0.00     0.126 C 
HETATM   25  O2  UNL     1      27.681   2.601  52.018  1.00  0.00    -0.265 OA
ENDBRANCH  22  23
ENDBRANCH  10  22
BRANCH   1  26
HETATM   26  C2  UNL     1      25.718  -0.505  53.932  1.00  0.00     0.037 C 
HETATM   27  C1  UNL     1      26.422  -1.176  52.778  1.00  0.00     0.010 C 
ENDBRANCH   1  26
TORSDOF 6
ENDMDL
MODEL 5
REMARK VINA RESULT:      -8.2      2.955      5.636
REMARK  6 active torsions:
REMARK  status: ('A' for Active; 'I' for Inactive)
REMARK    1  A    between atoms: C2_2  and  C3_3 
REMARK    2  A    between atoms: C7_9  and  N3_10 
REMARK    3  A    between atoms: N3_10  and  C8_11 
REMARK    4  A    between atoms: C10_13  and  C11_14 
REMARK    5  A    between atoms: C19_22  and  O1_23 
REMARK    6  A    between atoms: O1_23  and  C20_24 
ROOT
HETATM    1  C3  UNL     1      22.840   0.008  53.906  1.00  0.00    -0.022 A 
HETATM    2  C4  UNL     1      24.177  -0.139  53.624  1.00  0.00     0.042 A 
HETATM    3  C5  UNL     1      24.852   0.667  52.700  1.00  0.00     0.072 A 
HETATM    4  N1  UNL     1      26.151   0.512  52.437  1.00  0.00    -0.241 NA
HETATM    5  C6  UNL     1      26.726   1.329  51.534  1.00  0.00     0.235 A 
HETATM    6  N2  UNL     1      26.021   2.299  50.892  1.00  0.00    -0.224 NA
HETATM    7  C7  UNL     1      24.715   2.494  51.122  1.00  0.00     0.138 A 
HETATM    8  C17 UNL     1      24.148   1.654  52.041  1.00  0.00     0.041 A 
HETATM    9  C18 UNL     1      22.820   1.787  52.333  1.00  0.00     0.055 A 
HETATM   10  C19 UNL     1      22.125   1.009  53.238  1.00  0.00     0.086 A 
ENDROOT
BRANCH   7  11
HETATM   11  N3  UNL     1      24.018   3.532  50.415  1.00  0.00    -0.369 N 
HETATM   12  H8  UNL     1      23.028   3.804  50.585  1.00  0.00     0.161 HD
BRANCH  11  13
HETATM   13  C8  UNL     1      24.801   4.203  49.417  1.00  0.00     0.092 A 
HETATM   14  C9  UNL     1      24.025   5.239  48.616  1.00  0.00     0.037 A 
HETATM   15  C10 UNL     1      25.154   5.628  49.481  1.00  0.00     0.043 A 
BRANCH  15  16
HETATM   16  C11 UNL     1      26.473   5.993  48.881  1.00  0.00    -0.052 A 
HETATM   17  C12 UNL     1      27.404   4.962  48.803  1.00  0.00     0.007 A 
HETATM   18  C13 UNL     1      28.662   5.180  48.267  1.00  0.00     0.001 A 
HETATM   19  C14 UNL     1      28.995   6.447  47.800  1.00  0.00     0.000 A 
HETATM   20  C15 UNL     1      28.066   7.482  47.875  1.00  0.00     0.001 A 
HETATM   21  C16 UNL     1      26.800   7.248  48.419  1.00  0.00     0.007 A 
ENDBRANCH  15  16
ENDBRANCH  11  13
ENDBRANCH   7  11
BRANCH  10  22
HETATM   22  O1  UNL     1      20.768   1.163  53.520  1.00  0.00    -0.279 OA
BRANCH  22  23
HETATM   23  C20 UNL     1      19.894   1.525  52.504  1.00  0.00     0.260 C 
HETATM   24  C21 UNL     1      19.530   0.364  51.637  1.00  0.00     0.126 C 
HETATM   25  O2  UNL     1      19.418   2.665  52.273  1.00  0.00    -0.265 OA
ENDBRANCH  22  23
ENDBRANCH  10  22
BRANCH   1  26
HETATM   26  C2  UNL     1      22.151  -0.859  54.890  1.00  0.00     0.037 C 
HETATM   27  C1  UNL     1      21.434  -2.005  54.219  1.00  0.00     0.010 C 
ENDBRANCH   1  26
TORSDOF 6
ENDMDL
MODEL 6
REMARK VINA RESULT:      -7.8      3.189      6.910
REMARK  6 active torsions:
REMARK  status: ('A' for Active; 'I' for Inactive)
REMARK    1  A    between atoms: C2_2  and  C3_3 
REMARK    2  A    between atoms: C7_9  and  N3_10 
REMARK    3  A    between atoms: N3_10  and  C8_11 
REMARK    4  A    between atoms: C10_13  and  C11_14 
REMARK    5  A    between atoms: C19_22  and  O1_23 
REMARK    6  A    between atoms: O1_23  and  C20_24 
ROOT
HETATM    1  C3  UNL     1      24.799   0.622  53.452  1.00  0.00    -0.022 A 
HETATM    2  C4  UNL     1      23.526   0.486  52.953  1.00  0.00     0.042 A 
HETATM    3  C5  UNL     1      22.752   1.576  52.539  1.00  0.00     0.072 A 
HETATM    4  N1  UNL     1      21.517   1.428  52.056  1.00  0.00    -0.241 NA
HETATM    5  C6  UNL     1      20.838   2.528  51.679  1.00  0.00     0.235 A 
HETATM    6  N2  UNL     1      21.377   3.774  51.778  1.00  0.00    -0.224 NA
HETATM    7  C7  UNL     1      22.612   3.973  52.256  1.00  0.00     0.138 A 
HETATM    8  C17 UNL     1      23.286   2.844  52.635  1.00  0.00     0.041 A 
HETATM    9  C18 UNL     1      24.554   2.962  53.133  1.00  0.00     0.055 A 
HETATM   10  C19 UNL     1      25.342   1.907  53.549  1.00  0.00     0.086 A 
ENDROOT
BRANCH   7  11
HETATM   11  N3  UNL     1      23.133   5.310  52.339  1.00  0.00    -0.369 N 
HETATM   12  H8  UNL     1      23.412   5.784  53.223  1.00  0.00     0.161 HD
BRANCH  11  13
HETATM   13  C8  UNL     1      23.250   5.983  51.078  1.00  0.00     0.092 A 
HETATM   14  C9  UNL     1      24.642   6.532  50.798  1.00  0.00     0.037 A 
HETATM   15  C10 UNL     1      24.053   5.475  49.956  1.00  0.00     0.043 A 
BRANCH  15  16
HETATM   16  C11 UNL     1      23.532   5.798  48.593  1.00  0.00    -0.052 A 
HETATM   17  C12 UNL     1      23.983   6.995  48.044  1.00  0.00     0.007 A 
HETATM   18  C13 UNL     1      23.568   7.401  46.788  1.00  0.00     0.001 A 
HETATM   19  C14 UNL     1      22.689   6.599  46.066  1.00  0.00     0.000 A 
HETATM   20  C15 UNL     1      22.235   5.400  46.611  1.00  0.00     0.001 A 
HETATM   21  C16 UNL     1      22.662   5.003  47.881  1.00  0.00     0.007 A 
ENDBRANCH  15  16
ENDBRANCH  11  13
ENDBRANCH   7  11
BRANCH  10  22
HETATM   22  O1  UNL     1      26.634   2.052  54.055  1.00  0.00    -0.279 OA
BRANCH  22  23
HETATM   23  C20 UNL     1      27.692   2.270  53.182  1.00  0.00     0.260 C 
HETATM   24  C21 UNL     1      29.001   2.350  53.898  1.00  0.00     0.126 C 
HETATM   25  O2  UNL     1      27.641   2.394  51.933  1.00  0.00    -0.265 OA
ENDBRANCH  22  23
ENDBRANCH  10  22
BRANCH   1  26
HETATM   26  C2  UNL     1      25.597  -0.551  53.882  1.00  0.00     0.037 C 
HETATM   27  C1  UNL     1      26.371  -1.152  52.734  1.00  0.00     0.010 C 
ENDBRANCH   1  26
TORSDOF 6
ENDMDL
MODEL 7
REMARK VINA RESULT:      -7.8      2.250      5.689
REMARK  6 active torsions:
REMARK  status: ('A' for Active; 'I' for Inactive)
REMARK    1  A    between atoms: C2_2  and  C3_3 
REMARK    2  A    between atoms: C7_9  and  N3_10 
REMARK    3  A    between atoms: N3_10  and  C8_11 
REMARK    4  A    between atoms: C10_13  and  C11_14 
REMARK    5  A    between atoms: C19_22  and  O1_23 
REMARK    6  A    between atoms: O1_23  and  C20_24 
ROOT
HETATM    1  C3  UNL     1      22.974  -0.546  53.845  1.00  0.00    -0.022 A 
HETATM    2  C4  UNL     1      24.106  -0.647  54.617  1.00  0.00     0.042 A 
HETATM    3  C5  UNL     1      25.355  -0.174  54.199  1.00  0.00     0.072 A 
HETATM    4  N1  UNL     1      26.446  -0.279  54.960  1.00  0.00    -0.241 NA
HETATM    5  C6  UNL     1      27.610   0.200  54.484  1.00  0.00     0.235 A 
HETATM    6  N2  UNL     1      27.700   0.784  53.259  1.00  0.00    -0.224 NA
HETATM    7  C7  UNL     1      26.633   0.913  52.458  1.00  0.00     0.138 A 
HETATM    8  C17 UNL     1      25.459   0.419  52.958  1.00  0.00     0.041 A 
HETATM    9  C18 UNL     1      24.323   0.512  52.203  1.00  0.00     0.055 A 
HETATM   10  C19 UNL     1      23.077   0.056  52.587  1.00  0.00     0.086 A 
ENDROOT
BRANCH   7  11
HETATM   11  N3  UNL     1      26.783   1.538  51.173  1.00  0.00    -0.369 N 
HETATM   12  H8  UNL     1      27.345   1.150  50.387  1.00  0.00     0.161 HD
BRANCH  11  13
HETATM   13  C8  UNL     1      26.082   2.781  51.030  1.00  0.00     0.092 A 
HETATM   14  C9  UNL     1      26.624   3.671  49.919  1.00  0.00     0.037 A 
HETATM   15  C10 UNL     1      25.258   3.120  49.861  1.00  0.00     0.043 A 
BRANCH  15  16
HETATM   16  C11 UNL     1      24.079   3.997  50.138  1.00  0.00    -0.052 A 
HETATM   17  C12 UNL     1      24.039   4.569  51.405  1.00  0.00     0.007 A 
HETATM   18  C13 UNL     1      22.995   5.399  51.777  1.00  0.00     0.001 A 
HETATM   19  C14 UNL     1      21.975   5.663  50.869  1.00  0.00     0.000 A 
HETATM   20  C15 UNL     1      22.011   5.093  49.598  1.00  0.00     0.001 A 
HETATM   21  C16 UNL     1      23.071   4.257  49.236  1.00  0.00     0.007 A 
ENDBRANCH  15  16
ENDBRANCH  11  13
ENDBRANCH   7  11
BRANCH  10  22
HETATM   22  O1  UNL     1      21.931   0.162  51.798  1.00  0.00    -0.279 OA
BRANCH  22  23
HETATM   23  C20 UNL     1      21.410   1.416  51.511  1.00  0.00     0.260 C 
HETATM   24  C21 UNL     1      20.889   1.499  50.113  1.00  0.00     0.126 C 
HETATM   25  O2  UNL     1      21.345   2.412  52.274  1.00  0.00    -0.265 OA
ENDBRANCH  22  23
ENDBRANCH  10  22
BRANCH   1  26
HETATM   26  C2  UNL     1      21.663  -1.054  54.314  1.00  0.00     0.037 C 
HETATM   27  C1  UNL     1      20.811   0.049  54.893  1.00  0.00     0.010 C 
ENDBRANCH   1  26
TORSDOF 6
ENDMDL
MODEL 8
REMARK VINA RESULT:      -7.6      2.313      5.691
REMARK  6 active torsions:
REMARK  status: ('A' for Active; 'I' for Inactive)
REMARK    1  A    between atoms: C2_2  and  C3_3 
REMARK    2  A    between atoms: C7_9  and  N3_10 
REMARK    3  A    between atoms: N3_10  and  C8_11 
REMARK    4  A    between atoms: C10_13  and  C11_14 
REMARK    5  A    between atoms: C19_22  and  O1_23 
REMARK    6  A    between atoms: O1_23  and  C20_24 
ROOT
HETATM    1  C3  UNL     1      22.116   0.201  53.297  1.00  0.00    -0.022 A 
HETATM    2  C4  UNL     1      23.354  -0.384  53.188  1.00  0.00     0.042 A 
HETATM    3  C5  UNL     1      24.487   0.311  52.750  1.00  0.00     0.072 A 
HETATM    4  N1  UNL     1      25.684  -0.271  52.649  1.00  0.00    -0.241 NA
HETATM    5  C6  UNL     1      26.723   0.468  52.219  1.00  0.00     0.235 A 
HETATM    6  N2  UNL     1      26.584   1.781  51.888  1.00  0.00    -0.224 NA
HETATM    7  C7  UNL     1      25.404   2.409  51.972  1.00  0.00     0.138 A 
HETATM    8  C17 UNL     1      24.359   1.642  52.411  1.00  0.00     0.041 A 
HETATM    9  C18 UNL     1      23.120   2.209  52.525  1.00  0.00     0.055 A 
HETATM   10  C19 UNL     1      21.984   1.551  52.954  1.00  0.00     0.086 A 
ENDROOT
BRANCH   7  11
HETATM   11  N3  UNL     1      25.312   3.796  51.610  1.00  0.00    -0.369 N 
HETATM   12  H8  UNL     1      25.856   4.563  52.057  1.00  0.00     0.161 HD
BRANCH  11  13
HETATM   13  C8  UNL     1      24.386   4.076  50.551  1.00  0.00     0.092 A 
HETATM   14  C9  UNL     1      25.035   4.646  49.297  1.00  0.00     0.037 A 
HETATM   15  C10 UNL     1      24.357   3.337  49.280  1.00  0.00     0.043 A 
BRANCH  15  16
HETATM   16  C11 UNL     1      23.010   3.195  48.649  1.00  0.00    -0.052 A 
HETATM   17  C12 UNL     1      22.345   2.001  48.913  1.00  0.00     0.007 A 
HETATM   18  C13 UNL     1      21.090   1.755  48.383  1.00  0.00     0.001 A 
HETATM   19  C14 UNL     1      20.488   2.716  47.577  1.00  0.00     0.000 A 
HETATM   20  C15 UNL     1      21.150   3.913  47.310  1.00  0.00     0.001 A 
HETATM   21  C16 UNL     1      22.417   4.148  47.852  1.00  0.00     0.007 A 
ENDBRANCH  15  16
ENDBRANCH  11  13
ENDBRANCH   7  11
BRANCH  10  22
HETATM   22  O1  UNL     1      20.729   2.150  53.063  1.00  0.00    -0.279 OA
BRANCH  22  23
HETATM   23  C20 UNL     1      19.987   2.399  51.917  1.00  0.00     0.260 C 
HETATM   24  C21 UNL     1      20.159   3.802  51.432  1.00  0.00     0.126 C 
HETATM   25  O2  UNL     1      19.239   1.600  51.299  1.00  0.00    -0.265 OA
ENDBRANCH  22  23
ENDBRANCH  10  22
BRANCH   1  26
HETATM   26  C2  UNL     1      20.933  -0.560  53.766  1.00  0.00     0.037 C 
HETATM   27  C1  UNL     1      21.332  -1.813  54.508  1.00  0.00     0.010 C 
ENDBRANCH   1  26
TORSDOF 6
ENDMDL
MODEL 9
REMARK VINA RESULT:      -7.5      2.958      5.160
REMARK  6 active torsions:
REMARK  status: ('A' for Active; 'I' for Inactive)
REMARK    1  A    between atoms: C2_2  and  C3_3 
REMARK    2  A    between atoms: C7_9  and  N3_10 
REMARK    3  A    between atoms: N3_10  and  C8_11 
REMARK    4  A    between atoms: C10_13  and  C11_14 
REMARK    5  A    between atoms: C19_22  and  O1_23 
REMARK    6  A    between atoms: O1_23  and  C20_24 
ROOT
HETATM    1  C3  UNL     1      23.434   4.664  49.575  1.00  0.00    -0.022 A 
HETATM    2  C4  UNL     1      22.265   4.768  50.288  1.00  0.00     0.042 A 
HETATM    3  C5  UNL     1      21.805   3.762  51.146  1.00  0.00     0.072 A 
HETATM    4  N1  UNL     1      20.667   3.877  51.833  1.00  0.00    -0.241 NA
HETATM    5  C6  UNL     1      20.296   2.863  52.637  1.00  0.00     0.235 A 
HETATM    6  N2  UNL     1      21.046   1.735  52.764  1.00  0.00    -0.224 NA
HETATM    7  C7  UNL     1      22.195   1.573  52.095  1.00  0.00     0.138 A 
HETATM    8  C17 UNL     1      22.557   2.613  51.283  1.00  0.00     0.041 A 
HETATM    9  C18 UNL     1      23.717   2.525  50.566  1.00  0.00     0.055 A 
HETATM   10  C19 UNL     1      24.197   3.499  49.713  1.00  0.00     0.086 A 
ENDROOT
BRANCH   7  11
HETATM   11  N3  UNL     1      22.949   0.361  52.266  1.00  0.00    -0.369 N 
HETATM   12  H8  UNL     1      22.692  -0.560  51.854  1.00  0.00     0.161 HD
BRANCH  11  13
HETATM   13  C8  UNL     1      24.126   0.500  53.074  1.00  0.00     0.092 A 
HETATM   14  C9  UNL     1      24.242  -0.538  54.182  1.00  0.00     0.037 A 
HETATM   15  C10 UNL     1      25.225  -0.476  53.085  1.00  0.00     0.043 A 
BRANCH  15  16
HETATM   16  C11 UNL     1      26.587   0.091  53.325  1.00  0.00    -0.052 A 
HETATM   17  C12 UNL     1      26.633   1.457  53.587  1.00  0.00     0.007 A 
HETATM   18  C13 UNL     1      27.838   2.094  53.824  1.00  0.00     0.001 A 
HETATM   19  C14 UNL     1      29.018   1.357  53.800  1.00  0.00     0.000 A 
HETATM   20  C15 UNL     1      28.977  -0.010  53.538  1.00  0.00     0.001 A 
HETATM   21  C16 UNL     1      27.753  -0.641  53.300  1.00  0.00     0.007 A 
ENDBRANCH  15  16
ENDBRANCH  11  13
ENDBRANCH   7  11
BRANCH  10  22
HETATM   22  O1  UNL     1      25.385   3.388  48.991  1.00  0.00    -0.279 OA
BRANCH  22  23
HETATM   23  C20 UNL     1      26.594   3.681  49.610  1.00  0.00     0.260 C 
HETATM   24  C21 UNL     1      27.407   4.652  48.816  1.00  0.00     0.126 C 
HETATM   25  O2  UNL     1      27.025   3.232  50.701  1.00  0.00    -0.265 OA
ENDBRANCH  22  23
ENDBRANCH  10  22
BRANCH   1  26
HETATM   26  C2  UNL     1      23.897   5.746  48.675  1.00  0.00     0.037 C 
HETATM   27  C1  UNL     1      24.417   6.933  49.450  1.00  0.00     0.010 C 
ENDBRANCH   1  26
TORSDOF 6
ENDMDL
