MODEL 1
REMARK VINA RESULT:      -8.5      0.000      0.000
REMARK  7 active torsions:
REMARK  status: ('A' for Active; 'I' for Inactive)
REMARK    1  A    between atoms: O1_2  and  C2_3 
REMARK    2  A    between atoms: C6_9  and  N3_10 
REMARK    3  A    between atoms: N3_10  and  C7_11 
REMARK    4  A    between atoms: C15_21  and  O2_22 
REMARK    5  A    between atoms: O2_22  and  C16_23 
REMARK    6  A    between atoms: C16_23  and  C17_24 
REMARK    7  A    between atoms: C17_24  and  C18_25 
ROOT
HETATM    1  C2  UNL     1      20.158   0.261  52.514  1.00  0.00     0.103 A 
HETATM    2  C3  UNL     1      20.427  -0.349  53.746  1.00  0.00     0.072 A 
HETATM    3  C4  UNL     1      21.707  -0.603  54.143  1.00  0.00     0.075 A 
HETATM    4  N1  UNL     1      22.000  -1.194  55.325  1.00  0.00    -0.241 NA
HETATM    5  C5  UNL     1      23.304  -1.423  55.660  1.00  0.00     0.236 A 
HETATM    6  N2  UNL     1      24.316  -1.078  54.848  1.00  0.00    -0.224 NA
HETATM    7  C6  UNL     1      24.044  -0.488  53.667  1.00  0.00     0.142 A 
HETATM    8  C13 UNL     1      22.717  -0.238  53.289  1.00  0.00     0.042 A 
HETATM    9  C14 UNL     1      22.546   0.373  52.046  1.00  0.00     0.057 A 
HETATM   10  C15 UNL     1      21.227   0.600  51.710  1.00  0.00     0.103 A 
ENDROOT
BRANCH   7  11
HETATM   11  N3  UNL     1      25.193  -0.172  52.895  1.00  0.00    -0.340 N 
HETATM   12  H6  UNL     1      24.776   0.187  52.032  1.00  0.00     0.167 HD
BRANCH  11  13
HETATM   13  C7  UNL     1      26.594  -0.267  53.118  1.00  0.00     0.035 A 
HETATM   14  C8  UNL     1      27.203  -1.453  52.811  1.00  0.00     0.032 A 
HETATM   15  C9  UNL     1      28.558  -1.523  53.040  1.00  0.00     0.046 A 
HETATM   16  C10 UNL     1      29.230  -0.424  53.556  1.00  0.00     0.138 A 
HETATM   17  F1  UNL     1      30.580  -0.485  53.788  1.00  0.00    -0.204 F 
HETATM   18  C11 UNL     1      28.603   0.783  53.868  1.00  0.00     0.074 A 
HETATM   19 CL1  UNL     1      29.526   2.109  54.513  1.00  0.00    -0.081 Cl
HETATM   20  C12 UNL     1      27.255   0.831  53.633  1.00  0.00     0.056 A 
ENDBRANCH  11  13
ENDBRANCH   7  11
BRANCH  10  21
HETATM   21  O2  UNL     1      20.892   1.188  50.530  1.00  0.00    -0.348 OA
BRANCH  21  22
HETATM   22  C16 UNL     1      21.617   1.262  49.338  1.00  0.00     0.178 C 
BRANCH  22  23
HETATM   23  C17 UNL     1      21.742   2.648  48.794  1.00  0.00     0.062 C 
BRANCH  23  24
HETATM   24  C18 UNL     1      22.629   3.571  49.536  1.00  0.00     0.227 C 
HETATM   25  C19 UNL     1      23.986   3.053  49.916  1.00  0.00     0.062 C 
HETATM   26  C20 UNL     1      24.719   4.181  50.618  1.00  0.00     0.172 C 
HETATM   27  O3  UNL     1      24.046   4.743  51.668  1.00  0.00    -0.363 OA
HETATM   28  C21 UNL     1      22.846   4.118  51.866  1.00  0.00     0.437 C 
HETATM   29  N4  UNL     1      21.989   4.093  50.726  1.00  0.00     0.111 N 
HETATM   30  H22 UNL     1      21.578   5.006  50.516  1.00  0.00     0.319 HD
ENDBRANCH  23  24
ENDBRANCH  22  23
ENDBRANCH  21  22
ENDBRANCH  10  21
BRANCH   1  31
HETATM   31  O1  UNL     1      18.834   0.513  52.126  1.00  0.00    -0.353 OA
HETATM   32  C1  UNL     1      17.994  -0.464  51.601  1.00  0.00     0.210 C 
ENDBRANCH   1  31
TORSDOF 7
ENDMDL
MODEL 2
REMARK VINA RESULT:      -8.5      2.036      2.707
REMARK  7 active torsions:
REMARK  status: ('A' for Active; 'I' for Inactive)
REMARK    1  A    between atoms: O1_2  and  C2_3 
REMARK    2  A    between atoms: C6_9  and  N3_10 
REMARK    3  A    between atoms: N3_10  and  C7_11 
REMARK    4  A    between atoms: C15_21  and  O2_22 
REMARK    5  A    between atoms: O2_22  and  C16_23 
REMARK    6  A    between atoms: C16_23  and  C17_24 
REMARK    7  A    between atoms: C17_24  and  C18_25 
ROOT
HETATM    1  C2  UNL     1      20.713   2.716  52.507  1.00  0.00     0.103 A 
HETATM    2  C3  UNL     1      20.501   1.580  53.301  1.00  0.00     0.072 A 
HETATM    3  C4  UNL     1      21.497   0.672  53.512  1.00  0.00     0.075 A 
HETATM    4  N1  UNL     1      21.323  -0.437  54.271  1.00  0.00    -0.241 NA
HETATM    5  C5  UNL     1      22.361  -1.308  54.439  1.00  0.00     0.236 A 
HETATM    6  N2  UNL     1      23.560  -1.101  53.873  1.00  0.00    -0.224 NA
HETATM    7  C6  UNL     1      23.752  -0.003  53.115  1.00  0.00     0.142 A 
HETATM    8  C13 UNL     1      22.710   0.914  52.919  1.00  0.00     0.042 A 
HETATM    9  C14 UNL     1      23.013   2.014  52.116  1.00  0.00     0.057 A 
HETATM   10  C15 UNL     1      21.961   2.890  51.945  1.00  0.00     0.103 A 
ENDROOT
BRANCH   7  11
HETATM   11  N3  UNL     1      25.059   0.107  52.569  1.00  0.00    -0.340 N 
HETATM   12  H6  UNL     1      24.917  -0.228  51.613  1.00  0.00     0.167 HD
BRANCH  11  13
HETATM   13  C7  UNL     1      26.312   0.543  53.079  1.00  0.00     0.035 A 
HETATM   14  C8  UNL     1      26.415   1.850  53.468  1.00  0.00     0.032 A 
HETATM   15  C9  UNL     1      27.639   2.250  53.953  1.00  0.00     0.046 A 
HETATM   16  C10 UNL     1      28.685   1.341  54.027  1.00  0.00     0.138 A 
HETATM   17  F1  UNL     1      29.907   1.730  54.510  1.00  0.00    -0.204 F 
HETATM   18  C11 UNL     1      28.573   0.009  53.628  1.00  0.00     0.074 A 
HETATM   19 CL1  UNL     1      29.939  -1.062  53.755  1.00  0.00    -0.081 Cl
HETATM   20  C12 UNL     1      27.347  -0.368  53.148  1.00  0.00     0.056 A 
ENDBRANCH  11  13
ENDBRANCH   7  11
BRANCH  10  21
HETATM   21  O2  UNL     1      22.095   4.013  51.188  1.00  0.00    -0.348 OA
BRANCH  21  22
HETATM   22  C16 UNL     1      22.767   5.204  51.478  1.00  0.00     0.178 C 
BRANCH  22  23
HETATM   23  C17 UNL     1      23.484   5.791  50.306  1.00  0.00     0.062 C 
BRANCH  23  24
HETATM   24  C18 UNL     1      24.919   5.454  50.173  1.00  0.00     0.227 C 
HETATM   25  C19 UNL     1      25.477   5.389  48.780  1.00  0.00     0.062 C 
HETATM   26  C20 UNL     1      26.957   5.077  48.902  1.00  0.00     0.172 C 
HETATM   27  O3  UNL     1      27.255   3.973  49.652  1.00  0.00    -0.363 OA
HETATM   28  C21 UNL     1      26.114   3.371  50.106  1.00  0.00     0.437 C 
HETATM   29  N4  UNL     1      25.248   4.220  50.856  1.00  0.00     0.111 N 
HETATM   30  H22 UNL     1      25.609   4.436  51.788  1.00  0.00     0.319 HD
ENDBRANCH  23  24
ENDBRANCH  22  23
ENDBRANCH  21  22
ENDBRANCH  10  21
BRANCH   1  31
HETATM   31  O1  UNL     1      19.676   3.638  52.303  1.00  0.00    -0.353 OA
HETATM   32  C1  UNL     1      18.602   3.399  51.452  1.00  0.00     0.210 C 
ENDBRANCH   1  31
TORSDOF 7
ENDMDL
MODEL 3
REMARK VINA RESULT:      -8.4      3.680      6.988
REMARK  7 active torsions:
REMARK  status: ('A' for Active; 'I' for Inactive)
REMARK    1  A    between atoms: O1_2  and  C2_3 
REMARK    2  A    between atoms: C6_9  and  N3_10 
REMARK    3  A    between atoms: N3_10  and  C7_11 
REMARK    4  A    between atoms: C15_21  and  O2_22 
REMARK    5  A    between atoms: O2_22  and  C16_23 
REMARK    6  A    between atoms: C16_23  and  C17_24 
REMARK    7  A    between atoms: C17_24  and  C18_25 
ROOT
HETATM    1  C2  UNL     1      24.092   0.981  52.984  1.00  0.00     0.103 A 
HETATM    2  C3  UNL     1      22.988   1.094  52.128  1.00  0.00     0.072 A 
HETATM    3  C4  UNL     1      22.843   2.170  51.303  1.00  0.00     0.075 A 
HETATM    4  N1  UNL     1      21.787   2.311  50.467  1.00  0.00    -0.241 NA
HETATM    5  C5  UNL     1      21.701   3.416  49.670  1.00  0.00     0.236 A 
HETATM    6  N2  UNL     1      22.636   4.378  49.686  1.00  0.00    -0.224 NA
HETATM    7  C6  UNL     1      23.696   4.256  50.511  1.00  0.00     0.142 A 
HETATM    8  C13 UNL     1      23.818   3.135  51.345  1.00  0.00     0.042 A 
HETATM    9  C14 UNL     1      24.949   3.108  52.162  1.00  0.00     0.057 A 
HETATM   10  C15 UNL     1      25.031   1.992  52.968  1.00  0.00     0.103 A 
ENDROOT
BRANCH   7  11
HETATM   11  N3  UNL     1      24.617   5.334  50.442  1.00  0.00    -0.340 N 
HETATM   12  H6  UNL     1      24.222   5.993  51.118  1.00  0.00     0.167 HD
BRANCH  11  13
HETATM   13  C7  UNL     1      25.802   5.578  49.696  1.00  0.00     0.035 A 
HETATM   14  C8  UNL     1      26.556   4.495  49.337  1.00  0.00     0.032 A 
HETATM   15  C9  UNL     1      27.701   4.756  48.619  1.00  0.00     0.046 A 
HETATM   16  C10 UNL     1      28.032   6.065  48.298  1.00  0.00     0.138 A 
HETATM   17  F1  UNL     1      29.170   6.335  47.584  1.00  0.00    -0.204 F 
HETATM   18  C11 UNL     1      27.259   7.166  48.667  1.00  0.00     0.074 A 
HETATM   19 CL1  UNL     1      27.753   8.774  48.223  1.00  0.00    -0.081 Cl
HETATM   20  C12 UNL     1      26.125   6.883  49.382  1.00  0.00     0.056 A 
ENDBRANCH  11  13
ENDBRANCH   7  11
BRANCH  10  21
HETATM   21  O2  UNL     1      26.074   1.816  53.824  1.00  0.00    -0.348 OA
BRANCH  21  22
HETATM   22  C16 UNL     1      27.448   1.895  53.577  1.00  0.00     0.178 C 
BRANCH  22  23
HETATM   23  C17 UNL     1      28.276   1.085  54.520  1.00  0.00     0.062 C 
BRANCH  23  24
HETATM   24  C18 UNL     1      28.321  -0.373  54.274  1.00  0.00     0.227 C 
HETATM   25  C19 UNL     1      29.384  -0.874  53.338  1.00  0.00     0.062 C 
HETATM   26  C20 UNL     1      29.260  -2.386  53.283  1.00  0.00     0.172 C 
HETATM   27  O3  UNL     1      28.012  -2.852  52.975  1.00  0.00    -0.363 OA
HETATM   28  C21 UNL     1      27.147  -1.816  52.753  1.00  0.00     0.437 C 
HETATM   29  N4  UNL     1      27.041  -0.884  53.827  1.00  0.00     0.111 N 
HETATM   30  H22 UNL     1      26.528  -1.256  54.629  1.00  0.00     0.319 HD
ENDBRANCH  23  24
ENDBRANCH  22  23
ENDBRANCH  21  22
ENDBRANCH  10  21
BRANCH   1  31
HETATM   31  O1  UNL     1      24.222  -0.135  53.823  1.00  0.00    -0.353 OA
HETATM   32  C1  UNL     1      23.140  -0.901  54.246  1.00  0.00     0.210 C 
ENDBRANCH   1  31
TORSDOF 7
ENDMDL
MODEL 4
REMARK VINA RESULT:      -8.4      2.343      5.169
REMARK  7 active torsions:
REMARK  status: ('A' for Active; 'I' for Inactive)
REMARK    1  A    between atoms: O1_2  and  C2_3 
REMARK    2  A    between atoms: C6_9  and  N3_10 
REMARK    3  A    between atoms: N3_10  and  C7_11 
REMARK    4  A    between atoms: C15_21  and  O2_22 
REMARK    5  A    between atoms: O2_22  and  C16_23 
REMARK    6  A    between atoms: C16_23  and  C17_24 
REMARK    7  A    between atoms: C17_24  and  C18_25 
ROOT
HETATM    1  C2  UNL     1      22.023   4.344  50.483  1.00  0.00     0.103 A 
HETATM    2  C3  UNL     1      23.080   4.537  49.583  1.00  0.00     0.072 A 
HETATM    3  C4  UNL     1      24.344   4.119  49.880  1.00  0.00     0.075 A 
HETATM    4  N1  UNL     1      25.387   4.293  49.034  1.00  0.00    -0.241 NA
HETATM    5  C5  UNL     1      26.628   3.854  49.395  1.00  0.00     0.236 A 
HETATM    6  N2  UNL     1      26.853   3.249  50.571  1.00  0.00    -0.224 NA
HETATM    7  C6  UNL     1      25.827   3.066  51.427  1.00  0.00     0.142 A 
HETATM    8  C13 UNL     1      24.539   3.504  51.091  1.00  0.00     0.042 A 
HETATM    9  C14 UNL     1      23.550   3.269  52.048  1.00  0.00     0.057 A 
HETATM   10  C15 UNL     1      22.298   3.717  51.681  1.00  0.00     0.103 A 
ENDROOT
BRANCH   7  11
HETATM   11  N3  UNL     1      26.186   2.417  52.638  1.00  0.00    -0.340 N 
HETATM   12  H6  UNL     1      25.521   2.822  53.301  1.00  0.00     0.167 HD
BRANCH  11  13
HETATM   13  C7  UNL     1      27.169   1.452  52.992  1.00  0.00     0.035 A 
HETATM   14  C8  UNL     1      28.313   1.906  53.588  1.00  0.00     0.032 A 
HETATM   15  C9  UNL     1      29.251   0.955  53.917  1.00  0.00     0.046 A 
HETATM   16  C10 UNL     1      29.007  -0.383  53.639  1.00  0.00     0.138 A 
HETATM   17  F1  UNL     1      29.936  -1.337  53.964  1.00  0.00    -0.204 F 
HETATM   18  C11 UNL     1      27.838  -0.839  53.031  1.00  0.00     0.074 A 
HETATM   19 CL1  UNL     1      27.617  -2.537  52.719  1.00  0.00    -0.081 Cl
HETATM   20  C12 UNL     1      26.918   0.124  52.711  1.00  0.00     0.056 A 
ENDBRANCH  11  13
ENDBRANCH   7  11
BRANCH  10  21
HETATM   21  O2  UNL     1      21.226   3.563  52.504  1.00  0.00    -0.348 OA
BRANCH  21  22
HETATM   22  C16 UNL     1      20.280   2.535  52.548  1.00  0.00     0.178 C 
BRANCH  22  23
HETATM   23  C17 UNL     1      20.850   1.181  52.280  1.00  0.00     0.062 C 
BRANCH  23  24
HETATM   24  C18 UNL     1      21.376   0.442  53.450  1.00  0.00     0.227 C 
HETATM   25  C19 UNL     1      22.618  -0.375  53.237  1.00  0.00     0.062 C 
HETATM   26  C20 UNL     1      22.985  -0.994  54.574  1.00  0.00     0.172 C 
HETATM   27  O3  UNL     1      21.980  -1.694  55.182  1.00  0.00    -0.363 OA
HETATM   28  C21 UNL     1      20.853  -1.699  54.406  1.00  0.00     0.437 C 
HETATM   29  N4  UNL     1      20.367  -0.408  54.048  1.00  0.00     0.111 N 
HETATM   30  H22 UNL     1      19.931   0.086  54.831  1.00  0.00     0.319 HD
ENDBRANCH  23  24
ENDBRANCH  22  23
ENDBRANCH  21  22
ENDBRANCH  10  21
BRANCH   1  31
HETATM   31  O1  UNL     1      20.731   4.781  50.158  1.00  0.00    -0.353 OA
HETATM   32  C1  UNL     1      20.407   6.119  49.958  1.00  0.00     0.210 C 
ENDBRANCH   1  31
TORSDOF 7
ENDMDL
MODEL 5
REMARK VINA RESULT:      -8.4      3.490      6.754
REMARK  7 active torsions:
REMARK  status: ('A' for Active; 'I' for Inactive)
REMARK    1  A    between atoms: O1_2  and  C2_3 
REMARK    2  A    between atoms: C6_9  and  N3_10 
REMARK    3  A    between atoms: N3_10  and  C7_11 
REMARK    4  A    between atoms: C15_21  and  O2_22 
REMARK    5  A    between atoms: O2_22  and  C16_23 
REMARK    6  A    between atoms: C16_23  and  C17_24 
REMARK    7  A    between atoms: C17_24  and  C18_25 
ROOT
HETATM    1  C2  UNL     1      23.688   0.281  53.286  1.00  0.00     0.103 A 
HETATM    2  C3  UNL     1      22.327   0.579  53.433  1.00  0.00     0.072 A 
HETATM    3  C4  UNL     1      21.733   1.552  52.683  1.00  0.00     0.075 A 
HETATM    4  N1  UNL     1      20.422   1.866  52.803  1.00  0.00    -0.241 NA
HETATM    5  C5  UNL     1      19.891   2.855  52.025  1.00  0.00     0.236 A 
HETATM    6  N2  UNL     1      20.633   3.532  51.135  1.00  0.00    -0.224 NA
HETATM    7  C6  UNL     1      21.941   3.233  51.000  1.00  0.00     0.142 A 
HETATM    8  C13 UNL     1      22.521   2.225  51.783  1.00  0.00     0.042 A 
HETATM    9  C14 UNL     1      23.881   1.997  51.568  1.00  0.00     0.057 A 
HETATM   10  C15 UNL     1      24.414   1.001  52.359  1.00  0.00     0.103 A 
ENDROOT
BRANCH   7  11
HETATM   11  N3  UNL     1      22.621   4.016  50.031  1.00  0.00    -0.340 N 
HETATM   12  H6  UNL     1      22.194   3.693  49.159  1.00  0.00     0.167 HD
BRANCH  11  13
HETATM   13  C7  UNL     1      23.634   5.012  50.095  1.00  0.00     0.035 A 
HETATM   14  C8  UNL     1      23.384   6.118  50.860  1.00  0.00     0.032 A 
HETATM   15  C9  UNL     1      24.377   7.070  50.904  1.00  0.00     0.046 A 
HETATM   16  C10 UNL     1      25.553   6.876  50.193  1.00  0.00     0.138 A 
HETATM   17  F1  UNL     1      26.547   7.819  50.230  1.00  0.00    -0.204 F 
HETATM   18  C11 UNL     1      25.801   5.746  49.414  1.00  0.00     0.074 A 
HETATM   19 CL1  UNL     1      27.306   5.588  48.554  1.00  0.00    -0.081 Cl
HETATM   20  C12 UNL     1      24.800   4.812  49.384  1.00  0.00     0.056 A 
ENDBRANCH  11  13
ENDBRANCH   7  11
BRANCH  10  21
HETATM   21  O2  UNL     1      25.728   0.658  52.270  1.00  0.00    -0.348 OA
BRANCH  21  22
HETATM   22  C16 UNL     1      26.861   1.377  52.660  1.00  0.00     0.178 C 
BRANCH  22  23
HETATM   23  C17 UNL     1      27.425   0.945  53.974  1.00  0.00     0.062 C 
BRANCH  23  24
HETATM   24  C18 UNL     1      27.997  -0.419  54.031  1.00  0.00     0.227 C 
HETATM   25  C19 UNL     1      29.281  -0.651  53.286  1.00  0.00     0.062 C 
HETATM   26  C20 UNL     1      29.688  -2.093  53.529  1.00  0.00     0.172 C 
HETATM   27  O3  UNL     1      28.727  -3.021  53.240  1.00  0.00    -0.363 OA
HETATM   28  C21 UNL     1      27.598  -2.418  52.758  1.00  0.00     0.437 C 
HETATM   29  N4  UNL     1      27.039  -1.422  53.613  1.00  0.00     0.111 N 
HETATM   30  H22 UNL     1      26.582  -1.816  54.439  1.00  0.00     0.319 HD
ENDBRANCH  23  24
ENDBRANCH  22  23
ENDBRANCH  21  22
ENDBRANCH  10  21
BRANCH   1  31
HETATM   31  O1  UNL     1      24.279  -0.724  54.066  1.00  0.00    -0.353 OA
HETATM   32  C1  UNL     1      23.713  -1.207  55.242  1.00  0.00     0.210 C 
ENDBRANCH   1  31
TORSDOF 7
ENDMDL
MODEL 6
REMARK VINA RESULT:      -8.3      3.225      5.866
REMARK  7 active torsions:
REMARK  status: ('A' for Active; 'I' for Inactive)
REMARK    1  A    between atoms: O1_2  and  C2_3 
REMARK    2  A    between atoms: C6_9  and  N3_10 
REMARK    3  A    between atoms: N3_10  and  C7_11 
REMARK    4  A    between atoms: C15_21  and  O2_22 
REMARK    5  A    between atoms: O2_22  and  C16_23 
REMARK    6  A    between atoms: C16_23  and  C17_24 
REMARK    7  A    between atoms: C17_24  and  C18_25 
ROOT
HETATM    1  C2  UNL     1      22.406  -0.182  52.762  1.00  0.00     0.103 A 
HETATM    2  C3  UNL     1      21.366   0.237  51.921  1.00  0.00     0.072 A 
HETATM    3  C4  UNL     1      21.435   1.425  51.253  1.00  0.00     0.075 A 
HETATM    4  N1  UNL     1      20.447   1.860  50.436  1.00  0.00    -0.241 NA
HETATM    5  C5  UNL     1      20.579   3.061  49.800  1.00  0.00     0.236 A 
HETATM    6  N2  UNL     1      21.665   3.833  49.958  1.00  0.00    -0.224 NA
HETATM    7  C6  UNL     1      22.660   3.416  50.768  1.00  0.00     0.142 A 
HETATM    8  C13 UNL     1      22.560   2.189  51.438  1.00  0.00     0.042 A 
HETATM    9  C14 UNL     1      23.642   1.854  52.253  1.00  0.00     0.057 A 
HETATM   10  C15 UNL     1      23.505   0.641  52.896  1.00  0.00     0.103 A 
ENDROOT
BRANCH   7  11
HETATM   11  N3  UNL     1      23.754   4.317  50.857  1.00  0.00    -0.340 N 
HETATM   12  H6  UNL     1      23.474   4.914  51.639  1.00  0.00     0.167 HD
BRANCH  11  13
HETATM   13  C7  UNL     1      24.971   4.472  50.137  1.00  0.00     0.035 A 
HETATM   14  C8  UNL     1      25.742   3.357  49.954  1.00  0.00     0.032 A 
HETATM   15  C9  UNL     1      26.917   3.533  49.259  1.00  0.00     0.046 A 
HETATM   16  C10 UNL     1      27.259   4.792  48.787  1.00  0.00     0.138 A 
HETATM   17  F1  UNL     1      28.427   4.976  48.093  1.00  0.00    -0.204 F 
HETATM   18  C11 UNL     1      26.468   5.925  48.977  1.00  0.00     0.074 A 
HETATM   19 CL1  UNL     1      26.978   7.466  48.350  1.00  0.00    -0.081 Cl
HETATM   20  C12 UNL     1      25.304   5.728  49.672  1.00  0.00     0.056 A 
ENDBRANCH  11  13
ENDBRANCH   7  11
BRANCH  10  21
HETATM   21  O2  UNL     1      24.474   0.171  53.727  1.00  0.00    -0.348 OA
BRANCH  21  22
HETATM   22  C16 UNL     1      25.311  -0.938  53.577  1.00  0.00     0.178 C 
BRANCH  22  23
HETATM   23  C17 UNL     1      26.390  -0.744  52.562  1.00  0.00     0.062 C 
BRANCH  23  24
HETATM   24  C18 UNL     1      27.496   0.164  52.938  1.00  0.00     0.227 C 
HETATM   25  C19 UNL     1      27.985   0.090  54.357  1.00  0.00     0.062 C 
HETATM   26  C20 UNL     1      29.138   1.069  54.487  1.00  0.00     0.172 C 
HETATM   27  O3  UNL     1      28.862   2.345  54.081  1.00  0.00    -0.363 OA
HETATM   28  C21 UNL     1      27.562   2.453  53.667  1.00  0.00     0.437 C 
HETATM   29  N4  UNL     1      27.187   1.546  52.633  1.00  0.00     0.111 N 
HETATM   30  H22 UNL     1      27.588   1.789  51.724  1.00  0.00     0.319 HD
ENDBRANCH  23  24
ENDBRANCH  22  23
ENDBRANCH  21  22
ENDBRANCH  10  21
BRANCH   1  31
HETATM   31  O1  UNL     1      22.315  -1.407  53.439  1.00  0.00    -0.353 OA
HETATM   32  C1  UNL     1      21.534  -1.593  54.576  1.00  0.00     0.210 C 
ENDBRANCH   1  31
TORSDOF 7
ENDMDL
MODEL 7
REMARK VINA RESULT:      -7.9      4.156      6.623
REMARK  7 active torsions:
REMARK  status: ('A' for Active; 'I' for Inactive)
REMARK    1  A    between atoms: O1_2  and  C2_3 
REMARK    2  A    between atoms: C6_9  and  N3_10 
REMARK    3  A    between atoms: N3_10  and  C7_11 
REMARK    4  A    between atoms: C15_21  and  O2_22 
REMARK    5  A    between atoms: O2_22  and  C16_23 
REMARK    6  A    between atoms: C16_23  and  C17_24 
REMARK    7  A    between atoms: C17_24  and  C18_25 
ROOT
HETATM    1  C2  UNL     1      27.489   1.633  53.107  1.00  0.00     0.103 A 
HETATM    2  C3  UNL     1      27.108   0.761  54.136  1.00  0.00     0.072 A 
HETATM    3  C4  UNL     1      25.869   0.192  54.155  1.00  0.00     0.075 A 
HETATM    4  N1  UNL     1      25.469  -0.651  55.136  1.00  0.00    -0.241 NA
HETATM    5  C5  UNL     1      24.212  -1.184  55.096  1.00  0.00     0.236 A 
HETATM    6  N2  UNL     1      23.351  -0.899  54.108  1.00  0.00    -0.224 NA
HETATM    7  C6  UNL     1      23.731  -0.062  53.121  1.00  0.00     0.142 A 
HETATM    8  C13 UNL     1      25.013   0.505  53.129  1.00  0.00     0.042 A 
HETATM    9  C14 UNL     1      25.305   1.359  52.064  1.00  0.00     0.057 A 
HETATM   10  C15 UNL     1      26.574   1.898  52.109  1.00  0.00     0.103 A 
ENDROOT
BRANCH   7  11
HETATM   11  N3  UNL     1      22.737   0.166  52.133  1.00  0.00    -0.340 N 
HETATM   12  H6  UNL     1      23.067  -0.420  51.362  1.00  0.00     0.167 HD
BRANCH  11  13
HETATM   13  C7  UNL     1      21.554   0.954  52.080  1.00  0.00     0.035 A 
HETATM   14  C8  UNL     1      21.671   2.286  52.369  1.00  0.00     0.032 A 
HETATM   15  C9  UNL     1      20.513   3.028  52.317  1.00  0.00     0.046 A 
HETATM   16  C10 UNL     1      19.314   2.415  51.983  1.00  0.00     0.138 A 
HETATM   17  F1  UNL     1      18.156   3.146  51.927  1.00  0.00    -0.204 F 
HETATM   18  C11 UNL     1      19.202   1.056  51.689  1.00  0.00     0.074 A 
HETATM   19 CL1  UNL     1      17.655   0.372  51.281  1.00  0.00    -0.081 Cl
HETATM   20  C12 UNL     1      20.366   0.336  51.748  1.00  0.00     0.056 A 
ENDBRANCH  11  13
ENDBRANCH   7  11
BRANCH  10  21
HETATM   21  O2  UNL     1      27.012   2.751  51.144  1.00  0.00    -0.348 OA
BRANCH  21  22
HETATM   22  C16 UNL     1      26.483   3.002  49.875  1.00  0.00     0.178 C 
BRANCH  22  23
HETATM   23  C17 UNL     1      26.503   4.446  49.489  1.00  0.00     0.062 C 
BRANCH  23  24
HETATM   24  C18 UNL     1      25.262   5.214  49.741  1.00  0.00     0.227 C 
HETATM   25  C19 UNL     1      25.422   6.617  50.252  1.00  0.00     0.062 C 
HETATM   26  C20 UNL     1      24.031   7.208  50.386  1.00  0.00     0.172 C 
HETATM   27  O3  UNL     1      23.156   6.464  51.128  1.00  0.00    -0.363 OA
HETATM   28  C21 UNL     1      23.765   5.340  51.615  1.00  0.00     0.437 C 
HETATM   29  N4  UNL     1      24.360   4.505  50.625  1.00  0.00     0.111 N 
HETATM   30  H22 UNL     1      23.671   3.995  50.066  1.00  0.00     0.319 HD
ENDBRANCH  23  24
ENDBRANCH  22  23
ENDBRANCH  21  22
ENDBRANCH  10  21
BRANCH   1  31
HETATM   31  O1  UNL     1      28.769   2.207  53.106  1.00  0.00    -0.353 OA
HETATM   32  C1  UNL     1      29.586   2.248  54.232  1.00  0.00     0.210 C 
ENDBRANCH   1  31
TORSDOF 7
ENDMDL
MODEL 8
REMARK VINA RESULT:      -7.9      4.063      7.715
REMARK  7 active torsions:
REMARK  status: ('A' for Active; 'I' for Inactive)
REMARK    1  A    between atoms: O1_2  and  C2_3 
REMARK    2  A    between atoms: C6_9  and  N3_10 
REMARK    3  A    between atoms: N3_10  and  C7_11 
REMARK    4  A    between atoms: C15_21  and  O2_22 
REMARK    5  A    between atoms: O2_22  and  C16_23 
REMARK    6  A    between atoms: C16_23  and  C17_24 
REMARK    7  A    between atoms: C17_24  and  C18_25 
ROOT
HETATM    1  C2  UNL     1      26.017   3.462  49.993  1.00  0.00     0.103 A 
HETATM    2  C3  UNL     1      24.877   4.112  49.502  1.00  0.00     0.072 A 
HETATM    3  C4  UNL     1      23.658   3.937  50.089  1.00  0.00     0.075 A 
HETATM    4  N1  UNL     1      22.537   4.548  49.638  1.00  0.00    -0.241 NA
HETATM    5  C5  UNL     1      21.347   4.326  50.270  1.00  0.00     0.236 A 
HETATM    6  N2  UNL     1      21.250   3.516  51.335  1.00  0.00    -0.224 NA
HETATM    7  C6  UNL     1      22.355   2.900  51.801  1.00  0.00     0.142 A 
HETATM    8  C13 UNL     1      23.594   3.102  51.176  1.00  0.00     0.042 A 
HETATM    9  C14 UNL     1      24.674   2.415  51.734  1.00  0.00     0.057 A 
HETATM   10  C15 UNL     1      25.873   2.639  51.090  1.00  0.00     0.103 A 
ENDROOT
BRANCH   7  11
HETATM   11  N3  UNL     1      22.128   2.068  52.929  1.00  0.00    -0.340 N 
HETATM   12  H6  UNL     1      22.741   2.492  53.631  1.00  0.00     0.167 HD
BRANCH  11  13
HETATM   13  C7  UNL     1      21.311   0.930  53.173  1.00  0.00     0.035 A 
HETATM   14  C8  UNL     1      21.783  -0.009  54.048  1.00  0.00     0.032 A 
HETATM   15  C9  UNL     1      20.976  -1.103  54.265  1.00  0.00     0.046 A 
HETATM   16  C10 UNL     1      19.758  -1.205  53.609  1.00  0.00     0.138 A 
HETATM   17  F1  UNL     1      18.948  -2.291  53.819  1.00  0.00    -0.204 F 
HETATM   18  C11 UNL     1      19.283  -0.243  52.718  1.00  0.00     0.074 A 
HETATM   19 CL1  UNL     1      17.741  -0.455  51.938  1.00  0.00    -0.081 Cl
HETATM   20  C12 UNL     1      20.101   0.836  52.516  1.00  0.00     0.056 A 
ENDBRANCH  11  13
ENDBRANCH   7  11
BRANCH  10  21
HETATM   21  O2  UNL     1      27.020   2.042  51.512  1.00  0.00    -0.348 OA
BRANCH  21  22
HETATM   22  C16 UNL     1      27.692   2.170  52.731  1.00  0.00     0.178 C 
BRANCH  22  23
HETATM   23  C17 UNL     1      27.159   1.284  53.808  1.00  0.00     0.062 C 
BRANCH  23  24
HETATM   24  C18 UNL     1      27.784  -0.052  53.935  1.00  0.00     0.227 C 
HETATM   25  C19 UNL     1      29.093  -0.261  53.230  1.00  0.00     0.062 C 
HETATM   26  C20 UNL     1      29.553  -1.674  53.541  1.00  0.00     0.172 C 
HETATM   27  O3  UNL     1      28.636  -2.652  53.270  1.00  0.00    -0.363 OA
HETATM   28  C21 UNL     1      27.496  -2.116  52.739  1.00  0.00     0.437 C 
HETATM   29  N4  UNL     1      26.877  -1.111  53.538  1.00  0.00     0.111 N 
HETATM   30  H22 UNL     1      26.416  -1.489  54.369  1.00  0.00     0.319 HD
ENDBRANCH  23  24
ENDBRANCH  22  23
ENDBRANCH  21  22
ENDBRANCH  10  21
BRANCH   1  31
HETATM   31  O1  UNL     1      27.261   3.656  49.374  1.00  0.00    -0.353 OA
HETATM   32  C1  UNL     1      27.615   4.838  48.731  1.00  0.00     0.210 C 
ENDBRANCH   1  31
TORSDOF 7
ENDMDL
MODEL 9
REMARK VINA RESULT:      -7.9      5.253      8.049
REMARK  7 active torsions:
REMARK  status: ('A' for Active; 'I' for Inactive)
REMARK    1  A    between atoms: O1_2  and  C2_3 
REMARK    2  A    between atoms: C6_9  and  N3_10 
REMARK    3  A    between atoms: N3_10  and  C7_11 
REMARK    4  A    between atoms: C15_21  and  O2_22 
REMARK    5  A    between atoms: O2_22  and  C16_23 
REMARK    6  A    between atoms: C16_23  and  C17_24 
REMARK    7  A    between atoms: C17_24  and  C18_25 
ROOT
HETATM    1  C2  UNL     1      26.688   6.624  48.396  1.00  0.00     0.103 A 
HETATM    2  C3  UNL     1      25.437   6.606  49.027  1.00  0.00     0.072 A 
HETATM    3  C4  UNL     1      25.027   5.523  49.749  1.00  0.00     0.075 A 
HETATM    4  N1  UNL     1      23.824   5.473  50.367  1.00  0.00    -0.241 NA
HETATM    5  C5  UNL     1      23.474   4.357  51.071  1.00  0.00     0.236 A 
HETATM    6  N2  UNL     1      24.290   3.296  51.172  1.00  0.00    -0.224 NA
HETATM    7  C6  UNL     1      25.493   3.327  50.563  1.00  0.00     0.142 A 
HETATM    8  C13 UNL     1      25.886   4.456  49.831  1.00  0.00     0.042 A 
HETATM    9  C14 UNL     1      27.148   4.385  49.238  1.00  0.00     0.057 A 
HETATM   10  C15 UNL     1      27.497   5.513  48.525  1.00  0.00     0.103 A 
ENDROOT
BRANCH   7  11
HETATM   11  N3  UNL     1      26.266   2.150  50.739  1.00  0.00    -0.340 N 
HETATM   12  H6  UNL     1      26.363   1.815  49.777  1.00  0.00     0.167 HD
BRANCH  11  13
HETATM   13  C7  UNL     1      26.825   1.491  51.868  1.00  0.00     0.035 A 
HETATM   14  C8  UNL     1      26.347   0.245  52.172  1.00  0.00     0.032 A 
HETATM   15  C9  UNL     1      26.900  -0.371  53.272  1.00  0.00     0.046 A 
HETATM   16  C10 UNL     1      27.887   0.275  54.003  1.00  0.00     0.138 A 
HETATM   17  F1  UNL     1      28.443  -0.331  55.100  1.00  0.00    -0.204 F 
HETATM   18  C11 UNL     1      28.370   1.545  53.688  1.00  0.00     0.074 A 
HETATM   19 CL1  UNL     1      29.609   2.280  54.663  1.00  0.00    -0.081 Cl
HETATM   20  C12 UNL     1      27.806   2.140  52.591  1.00  0.00     0.056 A 
ENDBRANCH  11  13
ENDBRANCH   7  11
BRANCH  10  21
HETATM   21  O2  UNL     1      28.695   5.600  47.887  1.00  0.00    -0.348 OA
BRANCH  21  22
HETATM   22  C16 UNL     1      29.986   5.614  48.422  1.00  0.00     0.178 C 
BRANCH  22  23
HETATM   23  C17 UNL     1      31.025   5.059  47.502  1.00  0.00     0.062 C 
BRANCH  23  24
HETATM   24  C18 UNL     1      32.392   4.928  48.051  1.00  0.00     0.227 C 
HETATM   25  C19 UNL     1      33.490   5.655  47.328  1.00  0.00     0.062 C 
HETATM   26  C20 UNL     1      34.776   5.410  48.097  1.00  0.00     0.172 C 
HETATM   27  O3  UNL     1      35.067   4.095  48.331  1.00  0.00    -0.363 OA
HETATM   28  C21 UNL     1      34.119   3.280  47.777  1.00  0.00     0.437 C 
HETATM   29  N4  UNL     1      32.783   3.541  48.200  1.00  0.00     0.111 N 
HETATM   30  H22 UNL     1      32.603   3.242  49.162  1.00  0.00     0.319 HD
ENDBRANCH  23  24
ENDBRANCH  22  23
ENDBRANCH  21  22
ENDBRANCH  10  21
BRANCH   1  31
HETATM   31  O1  UNL     1      27.091   7.747  47.659  1.00  0.00    -0.353 OA
HETATM   32  C1  UNL     1      26.251   8.421  46.778  1.00  0.00     0.210 C 
ENDBRANCH   1  31
TORSDOF 7
ENDMDL
