MODEL 1
REMARK VINA RESULT:      -6.4      0.000      0.000
REMARK  8 active torsions:
REMARK  status: ('A' for Active; 'I' for Inactive)
REMARK    1  A    between atoms: C2_2  and  P1_3 
REMARK    2  A    between atoms: P1_3  and  C3_4 
REMARK    3  A    between atoms: C4_5  and  C5_6 
REMARK    4  A    between atoms: C5_6  and  N1_7 
REMARK    5  A    between atoms: C10_14  and  N4_15 
REMARK    6  A    between atoms: N4_15  and  C11_16 
REMARK    7  A    between atoms: C11_16  and  C12_17 
REMARK    8  A    between atoms: C12_17  and  N5_18 
ROOT
HETATM    1  N1  UNL     1      25.385   2.041  51.356  1.00  0.00    -0.320 N 
HETATM    2  C6  UNL     1      24.036   2.087  51.200  1.00  0.00     0.212 A 
HETATM    3  N2  UNL     1      23.490   1.230  52.078  1.00  0.00    -0.238 NA
HETATM    4  C7  UNL     1      24.453   0.640  52.786  1.00  0.00     0.129 A 
HETATM    5  C8  UNL     1      24.503  -0.304  53.808  1.00  0.00     0.082 A 
HETATM    6  C9  UNL     1      23.191  -0.822  54.252  1.00  0.00     0.074 C 
HETATM    7  N3  UNL     1      25.714  -0.673  54.304  1.00  0.00    -0.066 NA
HETATM    8  C10 UNL     1      26.832  -0.123  53.800  1.00  0.00     0.724 A 
HETATM    9  N6  UNL     1      26.884   0.807  52.801  1.00  0.00    -0.043 NA
HETATM   10  C13 UNL     1      25.648   1.154  52.327  1.00  0.00     0.181 A 
ENDROOT
BRANCH   8  11
HETATM   11  N4  UNL     1      27.959  -0.667  54.496  1.00  0.00    -0.221 N 
HETATM   12  H13 UNL     1      28.090  -0.908  55.513  1.00  0.00     0.177 HD
BRANCH  11  13
HETATM   13  C11 UNL     1      28.969  -0.850  53.502  1.00  0.00     0.168 C 
BRANCH  13  14
HETATM   14  C12 UNL     1      29.516  -2.255  53.414  1.00  0.00     0.286 C 
BRANCH  14  15
HETATM   15  N5  UNL     1      28.512  -3.228  53.116  1.00  0.00     0.079 N 
HETATM   16  H18 UNL     1      28.166  -3.736  53.969  1.00  0.00     0.312 HD
HETATM   17  H19 UNL     1      27.637  -2.725  52.769  1.00  0.00     0.312 HD
ENDBRANCH  14  15
ENDBRANCH  13  14
ENDBRANCH  11  13
ENDBRANCH   8  11
BRANCH   1  18
HETATM   18  C5  UNL     1      26.217   2.885  50.512  1.00  0.00     0.159 C 
BRANCH  18  19
HETATM   19  C4  UNL     1      25.396   4.104  50.184  1.00  0.00    -0.005 C 
HETATM   20  C3  UNL     1      25.954   5.137  49.557  1.00  0.00     0.013 C 
BRANCH  20  21
HETATM   21  P1  UNL     1      26.106   6.798  48.758  1.00  0.00    -0.039 P 
BRANCH  21  22
HETATM   22  C2  UNL     1      27.485   7.175  47.897  1.00  0.00    -0.015 C 
HETATM   23  C1  UNL     1      28.610   6.230  48.064  1.00  0.00     0.037 C 
ENDBRANCH  21  22
ENDBRANCH  20  21
ENDBRANCH  18  19
ENDBRANCH   1  18
TORSDOF 8
ENDMDL
MODEL 2
REMARK VINA RESULT:      -6.1      2.158      2.555
REMARK  8 active torsions:
REMARK  status: ('A' for Active; 'I' for Inactive)
REMARK    1  A    between atoms: C2_2  and  P1_3 
REMARK    2  A    between atoms: P1_3  and  C3_4 
REMARK    3  A    between atoms: C4_5  and  C5_6 
REMARK    4  A    between atoms: C5_6  and  N1_7 
REMARK    5  A    between atoms: C10_14  and  N4_15 
REMARK    6  A    between atoms: N4_15  and  C11_16 
REMARK    7  A    between atoms: C11_16  and  C12_17 
REMARK    8  A    between atoms: C12_17  and  N5_18 
ROOT
HETATM    1  N1  UNL     1      24.198   1.595  51.806  1.00  0.00    -0.320 N 
HETATM    2  C6  UNL     1      22.854   1.433  51.908  1.00  0.00     0.212 A 
HETATM    3  N2  UNL     1      22.618   0.556  52.897  1.00  0.00    -0.238 NA
HETATM    4  C7  UNL     1      23.774   0.154  53.425  1.00  0.00     0.129 A 
HETATM    5  C8  UNL     1      24.157  -0.713  54.444  1.00  0.00     0.082 A 
HETATM    6  C9  UNL     1      23.046  -1.392  55.144  1.00  0.00     0.074 C 
HETATM    7  N3  UNL     1      25.480  -0.871  54.712  1.00  0.00    -0.066 NA
HETATM    8  C10 UNL     1      26.388  -0.191  53.989  1.00  0.00     0.724 A 
HETATM    9  N6  UNL     1      26.111   0.678  52.973  1.00  0.00    -0.043 NA
HETATM   10  C13 UNL     1      24.770   0.812  52.734  1.00  0.00     0.181 A 
ENDROOT
BRANCH   8  11
HETATM   11  N4  UNL     1      27.694  -0.524  54.473  1.00  0.00    -0.221 N 
HETATM   12  H13 UNL     1      28.069  -0.587  55.455  1.00  0.00     0.177 HD
BRANCH  11  13
HETATM   13  C11 UNL     1      28.479  -0.781  53.307  1.00  0.00     0.168 C 
BRANCH  13  14
HETATM   14  C12 UNL     1      29.295  -2.050  53.366  1.00  0.00     0.286 C 
BRANCH  14  15
HETATM   15  N5  UNL     1      28.512  -3.228  53.160  1.00  0.00     0.079 N 
HETATM   16  H18 UNL     1      28.327  -3.759  54.048  1.00  0.00     0.312 HD
HETATM   17  H19 UNL     1      27.533  -2.941  52.848  1.00  0.00     0.312 HD
ENDBRANCH  14  15
ENDBRANCH  13  14
ENDBRANCH  11  13
ENDBRANCH   8  11
BRANCH   1  18
HETATM   18  C5  UNL     1      24.720   2.504  50.796  1.00  0.00     0.159 C 
BRANCH  18  19
HETATM   19  C4  UNL     1      23.569   2.835  49.884  1.00  0.00    -0.005 C 
HETATM   20  C3  UNL     1      23.531   4.008  49.255  1.00  0.00     0.013 C 
BRANCH  20  21
HETATM   21  P1  UNL     1      22.912   5.363  48.159  1.00  0.00    -0.039 P 
BRANCH  21  22
HETATM   22  C2  UNL     1      21.932   4.990  46.861  1.00  0.00    -0.015 C 
HETATM   23  C1  UNL     1      21.875   3.556  46.506  1.00  0.00     0.037 C 
ENDBRANCH  21  22
ENDBRANCH  20  21
ENDBRANCH  18  19
ENDBRANCH   1  18
TORSDOF 8
ENDMDL
MODEL 3
REMARK VINA RESULT:      -6.1      1.531      2.137
REMARK  8 active torsions:
REMARK  status: ('A' for Active; 'I' for Inactive)
REMARK    1  A    between atoms: C2_2  and  P1_3 
REMARK    2  A    between atoms: P1_3  and  C3_4 
REMARK    3  A    between atoms: C4_5  and  C5_6 
REMARK    4  A    between atoms: C5_6  and  N1_7 
REMARK    5  A    between atoms: C10_14  and  N4_15 
REMARK    6  A    between atoms: N4_15  and  C11_16 
REMARK    7  A    between atoms: C11_16  and  C12_17 
REMARK    8  A    between atoms: C12_17  and  N5_18 
ROOT
HETATM    1  N1  UNL     1      23.789   1.220  51.830  1.00  0.00    -0.320 N 
HETATM    2  C6  UNL     1      22.466   0.940  51.948  1.00  0.00     0.212 A 
HETATM    3  N2  UNL     1      22.307   0.141  53.015  1.00  0.00    -0.238 NA
HETATM    4  C7  UNL     1      23.491  -0.097  53.578  1.00  0.00     0.129 A 
HETATM    5  C8  UNL     1      23.947  -0.824  54.674  1.00  0.00     0.082 A 
HETATM    6  C9  UNL     1      22.900  -1.538  55.435  1.00  0.00     0.074 C 
HETATM    7  N3  UNL     1      25.277  -0.830  54.954  1.00  0.00    -0.066 NA
HETATM    8  C10 UNL     1      26.121  -0.136  54.169  1.00  0.00     0.724 A 
HETATM    9  N6  UNL     1      25.771   0.603  53.077  1.00  0.00    -0.043 NA
HETATM   10  C13 UNL     1      24.425   0.586  52.827  1.00  0.00     0.181 A 
ENDROOT
BRANCH   8  11
HETATM   11  N4  UNL     1      27.450  -0.296  54.682  1.00  0.00    -0.221 N 
HETATM   12  H13 UNL     1      27.792  -0.687  55.597  1.00  0.00     0.177 HD
BRANCH  11  13
HETATM   13  C11 UNL     1      28.315   0.205  53.660  1.00  0.00     0.168 C 
BRANCH  13  14
HETATM   14  C12 UNL     1      29.008   1.500  54.004  1.00  0.00     0.286 C 
BRANCH  14  15
HETATM   15  N5  UNL     1      28.147   2.638  53.910  1.00  0.00     0.079 N 
HETATM   16  H18 UNL     1      27.792   2.805  52.935  1.00  0.00     0.312 HD
HETATM   17  H19 UNL     1      27.253   2.439  54.456  1.00  0.00     0.312 HD
ENDBRANCH  14  15
ENDBRANCH  13  14
ENDBRANCH  11  13
ENDBRANCH   8  11
BRANCH   1  18
HETATM   18  C5  UNL     1      24.230   2.076  50.739  1.00  0.00     0.159 C 
BRANCH  18  19
HETATM   19  C4  UNL     1      24.297   3.474  51.292  1.00  0.00    -0.005 C 
HETATM   20  C3  UNL     1      24.745   4.472  50.535  1.00  0.00     0.013 C 
BRANCH  20  21
HETATM   21  P1  UNL     1      25.234   6.188  50.046  1.00  0.00    -0.039 P 
BRANCH  21  22
HETATM   22  C2  UNL     1      26.044   6.436  48.608  1.00  0.00    -0.015 C 
HETATM   23  C1  UNL     1      27.400   5.852  48.540  1.00  0.00     0.037 C 
ENDBRANCH  21  22
ENDBRANCH  20  21
ENDBRANCH  18  19
ENDBRANCH   1  18
TORSDOF 8
ENDMDL
MODEL 4
REMARK VINA RESULT:      -6.0      3.843      6.332
REMARK  8 active torsions:
REMARK  status: ('A' for Active; 'I' for Inactive)
REMARK    1  A    between atoms: C2_2  and  P1_3 
REMARK    2  A    between atoms: P1_3  and  C3_4 
REMARK    3  A    between atoms: C4_5  and  C5_6 
REMARK    4  A    between atoms: C5_6  and  N1_7 
REMARK    5  A    between atoms: C10_14  and  N4_15 
REMARK    6  A    between atoms: N4_15  and  C11_16 
REMARK    7  A    between atoms: C11_16  and  C12_17 
REMARK    8  A    between atoms: C12_17  and  N5_18 
ROOT
HETATM    1  N1  UNL     1      22.827   0.908  53.026  1.00  0.00    -0.320 N 
HETATM    2  C6  UNL     1      22.536   2.035  52.325  1.00  0.00     0.212 A 
HETATM    3  N2  UNL     1      23.661   2.445  51.718  1.00  0.00    -0.238 NA
HETATM    4  C7  UNL     1      24.659   1.612  52.012  1.00  0.00     0.129 A 
HETATM    5  C8  UNL     1      26.009   1.519  51.687  1.00  0.00     0.082 A 
HETATM    6  C9  UNL     1      26.519   2.589  50.803  1.00  0.00     0.074 C 
HETATM    7  N3  UNL     1      26.739   0.488  52.191  1.00  0.00    -0.066 NA
HETATM    8  C10 UNL     1      26.144  -0.414  52.991  1.00  0.00     0.724 A 
HETATM    9  N6  UNL     1      24.831  -0.407  53.366  1.00  0.00    -0.043 NA
HETATM   10  C13 UNL     1      24.130   0.643  52.839  1.00  0.00     0.181 A 
ENDROOT
BRANCH   8  11
HETATM   11  N4  UNL     1      27.119  -1.392  53.373  1.00  0.00    -0.221 N 
HETATM   12  H13 UNL     1      27.018  -2.418  53.585  1.00  0.00     0.177 HD
BRANCH  11  13
HETATM   13  C11 UNL     1      28.362  -0.690  53.426  1.00  0.00     0.168 C 
BRANCH  13  14
HETATM   14  C12 UNL     1      28.654  -0.029  54.751  1.00  0.00     0.286 C 
BRANCH  14  15
HETATM   15  N5  UNL     1      28.764   1.393  54.654  1.00  0.00     0.079 N 
HETATM   16  H18 UNL     1      29.574   1.782  55.198  1.00  0.00     0.312 HD
HETATM   17  H19 UNL     1      29.007   1.652  53.648  1.00  0.00     0.312 HD
ENDBRANCH  14  15
ENDBRANCH  13  14
ENDBRANCH  11  13
ENDBRANCH   8  11
BRANCH   1  18
HETATM   18  C5  UNL     1      21.767   0.260  53.783  1.00  0.00     0.159 C 
BRANCH  18  19
HETATM   19  C4  UNL     1      20.565   0.209  52.878  1.00  0.00    -0.005 C 
HETATM   20  C3  UNL     1      19.498  -0.507  53.224  1.00  0.00     0.013 C 
BRANCH  20  21
HETATM   21  P1  UNL     1      17.812  -1.260  53.118  1.00  0.00    -0.039 P 
BRANCH  21  22
HETATM   22  C2  UNL     1      16.819  -0.878  51.832  1.00  0.00    -0.015 C 
HETATM   23  C1  UNL     1      17.475  -0.155  50.722  1.00  0.00     0.037 C 
ENDBRANCH  21  22
ENDBRANCH  20  21
ENDBRANCH  18  19
ENDBRANCH   1  18
TORSDOF 8
ENDMDL
MODEL 5
REMARK VINA RESULT:      -5.8      2.707      5.792
REMARK  8 active torsions:
REMARK  status: ('A' for Active; 'I' for Inactive)
REMARK    1  A    between atoms: C2_2  and  P1_3 
REMARK    2  A    between atoms: P1_3  and  C3_4 
REMARK    3  A    between atoms: C4_5  and  C5_6 
REMARK    4  A    between atoms: C5_6  and  N1_7 
REMARK    5  A    between atoms: C10_14  and  N4_15 
REMARK    6  A    between atoms: N4_15  and  C11_16 
REMARK    7  A    between atoms: C11_16  and  C12_17 
REMARK    8  A    between atoms: C12_17  and  N5_18 
ROOT
HETATM    1  N1  UNL     1      24.022   0.229  53.553  1.00  0.00    -0.320 N 
HETATM    2  C6  UNL     1      24.444  -0.829  54.292  1.00  0.00     0.212 A 
HETATM    3  N2  UNL     1      25.783  -0.885  54.206  1.00  0.00    -0.238 NA
HETATM    4  C7  UNL     1      26.225   0.107  53.432  1.00  0.00     0.129 A 
HETATM    5  C8  UNL     1      27.468   0.550  52.991  1.00  0.00     0.082 A 
HETATM    6  C9  UNL     1      28.623  -0.246  53.461  1.00  0.00     0.074 C 
HETATM    7  N3  UNL     1      27.530   1.642  52.184  1.00  0.00    -0.066 NA
HETATM    8  C10 UNL     1      26.394   2.268  51.830  1.00  0.00     0.724 A 
HETATM    9  N6  UNL     1      25.132   1.910  52.210  1.00  0.00    -0.043 NA
HETATM   10  C13 UNL     1      25.110   0.808  53.021  1.00  0.00     0.181 A 
ENDROOT
BRANCH   8  11
HETATM   11  N4  UNL     1      26.732   3.382  50.996  1.00  0.00    -0.221 N 
HETATM   12  H13 UNL     1      27.495   4.103  51.085  1.00  0.00     0.177 HD
BRANCH  11  13
HETATM   13  C11 UNL     1      25.786   3.358  49.925  1.00  0.00     0.168 C 
BRANCH  13  14
HETATM   14  C12 UNL     1      25.424   4.717  49.376  1.00  0.00     0.286 C 
BRANCH  14  15
HETATM   15  N5  UNL     1      25.861   5.792  50.211  1.00  0.00     0.079 N 
HETATM   16  H18 UNL     1      25.412   5.784  51.161  1.00  0.00     0.312 HD
HETATM   17  H19 UNL     1      26.895   5.654  50.437  1.00  0.00     0.312 HD
ENDBRANCH  14  15
ENDBRANCH  13  14
ENDBRANCH  11  13
ENDBRANCH   8  11
BRANCH   1  18
HETATM   18  C5  UNL     1      22.597   0.509  53.479  1.00  0.00     0.159 C 
BRANCH  18  19
HETATM   19  C4  UNL     1      22.144   0.070  52.113  1.00  0.00    -0.005 C 
HETATM   20  C3  UNL     1      21.242   0.786  51.446  1.00  0.00     0.013 C 
BRANCH  20  21
HETATM   21  P1  UNL     1      20.098   1.290  50.081  1.00  0.00    -0.039 P 
BRANCH  21  22
HETATM   22  C2  UNL     1      20.730   1.847  48.641  1.00  0.00    -0.015 C 
HETATM   23  C1  UNL     1      22.206   1.831  48.552  1.00  0.00     0.037 C 
ENDBRANCH  21  22
ENDBRANCH  20  21
ENDBRANCH  18  19
ENDBRANCH   1  18
TORSDOF 8
ENDMDL
MODEL 6
REMARK VINA RESULT:      -5.8      3.204      6.762
REMARK  8 active torsions:
REMARK  status: ('A' for Active; 'I' for Inactive)
REMARK    1  A    between atoms: C2_2  and  P1_3 
REMARK    2  A    between atoms: P1_3  and  C3_4 
REMARK    3  A    between atoms: C4_5  and  C5_6 
REMARK    4  A    between atoms: C5_6  and  N1_7 
REMARK    5  A    between atoms: C10_14  and  N4_15 
REMARK    6  A    between atoms: N4_15  and  C11_16 
REMARK    7  A    between atoms: C11_16  and  C12_17 
REMARK    8  A    between atoms: C12_17  and  N5_18 
ROOT
HETATM    1  N1  UNL     1      24.971  -0.023  53.685  1.00  0.00    -0.320 N 
HETATM    2  C6  UNL     1      25.672  -0.194  54.836  1.00  0.00     0.212 A 
HETATM    3  N2  UNL     1      26.777   0.566  54.762  1.00  0.00    -0.238 NA
HETATM    4  C7  UNL     1      26.799   1.214  53.597  1.00  0.00     0.129 A 
HETATM    5  C8  UNL     1      27.656   2.116  52.974  1.00  0.00     0.082 A 
HETATM    6  C9  UNL     1      28.864   2.474  53.747  1.00  0.00     0.074 C 
HETATM    7  N3  UNL     1      27.335   2.583  51.739  1.00  0.00    -0.066 NA
HETATM    8  C10 UNL     1      26.202   2.166  51.147  1.00  0.00     0.724 A 
HETATM    9  N6  UNL     1      25.301   1.287  51.677  1.00  0.00    -0.043 NA
HETATM   10  C13 UNL     1      25.658   0.839  52.920  1.00  0.00     0.181 A 
ENDROOT
BRANCH   8  11
HETATM   11  N4  UNL     1      26.093   2.810  49.872  1.00  0.00    -0.221 N 
HETATM   12  H13 UNL     1      25.641   2.492  48.976  1.00  0.00     0.177 HD
BRANCH  11  13
HETATM   13  C11 UNL     1      26.753   4.069  50.023  1.00  0.00     0.168 C 
BRANCH  13  14
HETATM   14  C12 UNL     1      27.315   4.641  48.744  1.00  0.00     0.286 C 
BRANCH  14  15
HETATM   15  N5  UNL     1      28.329   5.623  48.969  1.00  0.00     0.079 N 
HETATM   16  H18 UNL     1      28.960   5.386  49.775  1.00  0.00     0.312 HD
HETATM   17  H19 UNL     1      28.997   5.625  48.137  1.00  0.00     0.312 HD
ENDBRANCH  14  15
ENDBRANCH  13  14
ENDBRANCH  11  13
ENDBRANCH   8  11
BRANCH   1  18
HETATM   18  C5  UNL     1      23.721  -0.747  53.513  1.00  0.00     0.159 C 
BRANCH  18  19
HETATM   19  C4  UNL     1      22.615   0.252  53.728  1.00  0.00    -0.005 C 
HETATM   20  C3  UNL     1      21.645   0.379  52.827  1.00  0.00     0.013 C 
BRANCH  20  21
HETATM   21  P1  UNL     1      20.104   1.013  52.022  1.00  0.00    -0.039 P 
BRANCH  21  22
HETATM   22  C2  UNL     1      18.843  -0.037  51.717  1.00  0.00    -0.015 C 
HETATM   23  C1  UNL     1      18.427  -0.871  52.864  1.00  0.00     0.037 C 
ENDBRANCH  21  22
ENDBRANCH  20  21
ENDBRANCH  18  19
ENDBRANCH   1  18
TORSDOF 8
ENDMDL
MODEL 7
REMARK VINA RESULT:      -5.8      3.656      7.227
REMARK  8 active torsions:
REMARK  status: ('A' for Active; 'I' for Inactive)
REMARK    1  A    between atoms: C2_2  and  P1_3 
REMARK    2  A    between atoms: P1_3  and  C3_4 
REMARK    3  A    between atoms: C4_5  and  C5_6 
REMARK    4  A    between atoms: C5_6  and  N1_7 
REMARK    5  A    between atoms: C10_14  and  N4_15 
REMARK    6  A    between atoms: N4_15  and  C11_16 
REMARK    7  A    between atoms: C11_16  and  C12_17 
REMARK    8  A    between atoms: C12_17  and  N5_18 
ROOT
HETATM    1  N1  UNL     1      23.192   0.870  52.414  1.00  0.00    -0.320 N 
HETATM    2  C6  UNL     1      23.341  -0.269  53.138  1.00  0.00     0.212 A 
HETATM    3  N2  UNL     1      24.657  -0.514  53.257  1.00  0.00    -0.238 NA
HETATM    4  C7  UNL     1      25.348   0.436  52.627  1.00  0.00     0.129 A 
HETATM    5  C8  UNL     1      26.694   0.714  52.414  1.00  0.00     0.082 A 
HETATM    6  C9  UNL     1      27.639  -0.259  53.003  1.00  0.00     0.074 C 
HETATM    7  N3  UNL     1      27.034   1.820  51.700  1.00  0.00    -0.066 NA
HETATM    8  C10 UNL     1      26.066   2.618  51.216  1.00  0.00     0.724 A 
HETATM    9  N6  UNL     1      24.723   2.429  51.372  1.00  0.00    -0.043 NA
HETATM   10  C13 UNL     1      24.420   1.308  52.096  1.00  0.00     0.181 A 
ENDROOT
BRANCH   8  11
HETATM   11  N4  UNL     1      26.683   3.707  50.519  1.00  0.00    -0.221 N 
HETATM   12  H13 UNL     1      27.619   4.170  50.656  1.00  0.00     0.177 HD
BRANCH  11  13
HETATM   13  C11 UNL     1      25.743   4.100  49.517  1.00  0.00     0.168 C 
BRANCH  13  14
HETATM   14  C12 UNL     1      25.300   5.540  49.602  1.00  0.00     0.286 C 
BRANCH  14  15
HETATM   15  N5  UNL     1      26.275   6.390  50.211  1.00  0.00     0.079 N 
HETATM   16  H18 UNL     1      27.040   5.856  50.697  1.00  0.00     0.312 HD
HETATM   17  H19 UNL     1      26.801   6.914  49.445  1.00  0.00     0.312 HD
ENDBRANCH  14  15
ENDBRANCH  13  14
ENDBRANCH  11  13
ENDBRANCH   8  11
BRANCH   1  18
HETATM   18  C5  UNL     1      21.848   1.355  52.140  1.00  0.00     0.159 C 
BRANCH  18  19
HETATM   19  C4  UNL     1      20.973   0.138  52.009  1.00  0.00    -0.005 C 
HETATM   20  C3  UNL     1      19.660   0.274  51.837  1.00  0.00     0.013 C 
BRANCH  20  21
HETATM   21  P1  UNL     1      17.888  -0.201  51.597  1.00  0.00    -0.039 P 
BRANCH  21  22
HETATM   22  C2  UNL     1      17.163  -1.249  52.674  1.00  0.00    -0.015 C 
HETATM   23  C1  UNL     1      18.094  -2.026  53.521  1.00  0.00     0.037 C 
ENDBRANCH  21  22
ENDBRANCH  20  21
ENDBRANCH  18  19
ENDBRANCH   1  18
TORSDOF 8
ENDMDL
MODEL 8
REMARK VINA RESULT:      -5.7      3.602      7.989
REMARK  8 active torsions:
REMARK  status: ('A' for Active; 'I' for Inactive)
REMARK    1  A    between atoms: C2_2  and  P1_3 
REMARK    2  A    between atoms: P1_3  and  C3_4 
REMARK    3  A    between atoms: C4_5  and  C5_6 
REMARK    4  A    between atoms: C5_6  and  N1_7 
REMARK    5  A    between atoms: C10_14  and  N4_15 
REMARK    6  A    between atoms: N4_15  and  C11_16 
REMARK    7  A    between atoms: C11_16  and  C12_17 
REMARK    8  A    between atoms: C12_17  and  N5_18 
ROOT
HETATM    1  N1  UNL     1      25.623   3.289  50.529  1.00  0.00    -0.320 N 
HETATM    2  C6  UNL     1      26.626   2.873  49.713  1.00  0.00     0.212 A 
HETATM    3  N2  UNL     1      27.106   3.949  49.068  1.00  0.00    -0.238 NA
HETATM    4  C7  UNL     1      26.437   5.036  49.450  1.00  0.00     0.129 A 
HETATM    5  C8  UNL     1      26.481   6.393  49.144  1.00  0.00     0.082 A 
HETATM    6  C9  UNL     1      27.501   6.780  48.145  1.00  0.00     0.074 C 
HETATM    7  N3  UNL     1      25.611   7.236  49.760  1.00  0.00    -0.066 NA
HETATM    8  C10 UNL     1      24.730   6.744  50.648  1.00  0.00     0.724 A 
HETATM    9  N6  UNL     1      24.609   5.434  51.012  1.00  0.00    -0.043 NA
HETATM   10  C13 UNL     1      25.501   4.617  50.372  1.00  0.00     0.181 A 
ENDROOT
BRANCH   8  11
HETATM   11  N4  UNL     1      23.945   7.830  51.156  1.00  0.00    -0.221 N 
HETATM   12  H13 UNL     1      24.068   8.425  52.016  1.00  0.00     0.177 HD
BRANCH  11  13
HETATM   13  C11 UNL     1      22.873   7.993  50.226  1.00  0.00     0.168 C 
BRANCH  13  14
HETATM   14  C12 UNL     1      21.539   7.474  50.707  1.00  0.00     0.286 C 
BRANCH  14  15
HETATM   15  N5  UNL     1      21.654   6.296  51.508  1.00  0.00     0.079 N 
HETATM   16  H18 UNL     1      21.287   5.435  51.030  1.00  0.00     0.312 HD
HETATM   17  H19 UNL     1      22.689   6.070  51.641  1.00  0.00     0.312 HD
ENDBRANCH  14  15
ENDBRANCH  13  14
ENDBRANCH  11  13
ENDBRANCH   8  11
BRANCH   1  18
HETATM   18  C5  UNL     1      24.929   2.305  51.345  1.00  0.00     0.159 C 
BRANCH  18  19
HETATM   19  C4  UNL     1      25.959   1.286  51.755  1.00  0.00    -0.005 C 
HETATM   20  C3  UNL     1      26.183   1.044  53.044  1.00  0.00     0.013 C 
BRANCH  20  21
HETATM   21  P1  UNL     1      26.930   0.285  54.557  1.00  0.00    -0.039 P 
BRANCH  21  22
HETATM   22  C2  UNL     1      28.591   0.195  54.700  1.00  0.00    -0.015 C 
HETATM   23  C1  UNL     1      29.265  -0.644  53.687  1.00  0.00     0.037 C 
ENDBRANCH  21  22
ENDBRANCH  20  21
ENDBRANCH  18  19
ENDBRANCH   1  18
TORSDOF 8
ENDMDL
MODEL 9
REMARK VINA RESULT:      -5.6      2.531      4.078
REMARK  8 active torsions:
REMARK  status: ('A' for Active; 'I' for Inactive)
REMARK    1  A    between atoms: C2_2  and  P1_3 
REMARK    2  A    between atoms: P1_3  and  C3_4 
REMARK    3  A    between atoms: C4_5  and  C5_6 
REMARK    4  A    between atoms: C5_6  and  N1_7 
REMARK    5  A    between atoms: C10_14  and  N4_15 
REMARK    6  A    between atoms: N4_15  and  C11_16 
REMARK    7  A    between atoms: C11_16  and  C12_17 
REMARK    8  A    between atoms: C12_17  and  N5_18 
ROOT
HETATM    1  N1  UNL     1      25.392   1.769  51.925  1.00  0.00    -0.320 N 
HETATM    2  C6  UNL     1      26.556   2.364  51.554  1.00  0.00     0.212 A 
HETATM    3  N2  UNL     1      27.527   1.911  52.364  1.00  0.00    -0.238 NA
HETATM    4  C7  UNL     1      27.014   1.046  53.238  1.00  0.00     0.129 A 
HETATM    5  C8  UNL     1      27.510   0.273  54.284  1.00  0.00     0.082 A 
HETATM    6  C9  UNL     1      28.960   0.414  54.539  1.00  0.00     0.074 C 
HETATM    7  N3  UNL     1      26.655  -0.525  54.976  1.00  0.00    -0.066 NA
HETATM    8  C10 UNL     1      25.354  -0.551  54.638  1.00  0.00     0.724 A 
HETATM    9  N6  UNL     1      24.775   0.168  53.633  1.00  0.00    -0.043 NA
HETATM   10  C13 UNL     1      25.667   0.959  52.959  1.00  0.00     0.181 A 
ENDROOT
BRANCH   8  11
HETATM   11  N4  UNL     1      24.680  -1.471  55.505  1.00  0.00    -0.221 N 
HETATM   12  H13 UNL     1      25.034  -2.318  56.021  1.00  0.00     0.177 HD
BRANCH  11  13
HETATM   13  C11 UNL     1      23.326  -1.015  55.565  1.00  0.00     0.168 C 
BRANCH  13  14
HETATM   14  C12 UNL     1      22.343  -1.865  54.797  1.00  0.00     0.286 C 
BRANCH  14  15
HETATM   15  N5  UNL     1      21.853  -1.223  53.617  1.00  0.00     0.079 N 
HETATM   16  H18 UNL     1      20.805  -1.149  53.594  1.00  0.00     0.312 HD
HETATM   17  H19 UNL     1      22.162  -0.202  53.627  1.00  0.00     0.312 HD
ENDBRANCH  14  15
ENDBRANCH  13  14
ENDBRANCH  11  13
ENDBRANCH   8  11
BRANCH   1  18
HETATM   18  C5  UNL     1      24.176   2.096  51.197  1.00  0.00     0.159 C 
BRANCH  18  19
HETATM   19  C4  UNL     1      23.558   3.272  51.904  1.00  0.00    -0.005 C 
HETATM   20  C3  UNL     1      23.263   4.379  51.227  1.00  0.00     0.013 C 
BRANCH  20  21
HETATM   21  P1  UNL     1      22.653   6.095  50.898  1.00  0.00    -0.039 P 
BRANCH  21  22
HETATM   22  C2  UNL     1      23.738   7.363  50.867  1.00  0.00    -0.015 C 
HETATM   23  C1  UNL     1      23.513   8.359  49.799  1.00  0.00     0.037 C 
ENDBRANCH  21  22
ENDBRANCH  20  21
ENDBRANCH  18  19
ENDBRANCH   1  18
TORSDOF 8
ENDMDL
