MODEL 1
REMARK VINA RESULT:      -7.7      0.000      0.000
REMARK  4 active torsions:
REMARK  status: ('A' for Active; 'I' for Inactive)
REMARK    1  A    between atoms: N1_1  and  C1_2 
REMARK    2  A    between atoms: C2_3  and  C3_4 
REMARK    3  A    between atoms: C4_5  and  C5_6 
REMARK    4  A    between atoms: C6_7  and  C7_8 
ROOT
HETATM    1  C7  UNL     1      24.910   3.960  50.173  1.00  0.00     0.115 C 
HETATM    2  C8  UNL     1      24.136   3.197  49.165  1.00  0.00     0.050 C 
HETATM    3  C9  UNL     1      22.665   3.193  49.223  1.00  0.00     0.044 C 
HETATM    4  C10 UNL     1      21.987   2.538  50.326  1.00  0.00    -0.032 A 
HETATM    5  C11 UNL     1      21.907   1.152  50.119  1.00  0.00     0.011 A 
HETATM    6  C12 UNL     1      21.306   0.237  50.957  1.00  0.00     0.020 A 
HETATM    7  C13 UNL     1      20.716   0.684  52.120  1.00  0.00     0.013 A 
HETATM    8 BR1  UNL     1      19.829  -0.367  53.433  1.00  0.00    -0.051 Br
HETATM    9  C14 UNL     1      20.764   2.028  52.372  1.00  0.00     0.048 A 
HETATM   10  C15 UNL     1      21.374   2.894  51.506  1.00  0.00     0.037 A 
HETATM   11  N2  UNL     1      21.571   4.293  51.579  1.00  0.00    -0.359 N 
HETATM   12  C16 UNL     1      22.866   4.416  52.263  1.00  0.00     0.268 C 
HETATM   13  N3  UNL     1      23.728   3.319  51.984  1.00  0.00    -0.269 N 
HETATM   14  O1  UNL     1      24.901   3.540  51.465  1.00  0.00    -0.266 OA
HETATM   15  S1  UNL     1      23.653   5.932  51.612  1.00  0.00    -0.118 SA
HETATM   16  C17 UNL     1      24.572   5.463  50.097  1.00  0.00     0.122 C 
HETATM   17  H16 UNL     1      21.070   5.170  51.294  1.00  0.00     0.162 HD
HETATM   18  H18 UNL     1      23.673   2.548  52.685  1.00  0.00     0.191 HD
ENDROOT
BRANCH   1  19
HETATM   19  C6  UNL     1      26.351   3.925  49.653  1.00  0.00     0.014 C 
HETATM   20  C5  UNL     1      26.827   4.983  48.975  1.00  0.00    -0.001 C 
BRANCH  20  21
HETATM   21  C4  UNL     1      28.181   5.048  48.440  1.00  0.00    -0.000 C 
HETATM   22  C3  UNL     1      28.786   6.169  48.083  1.00  0.00     0.001 C 
BRANCH  22  23
HETATM   23  C2  UNL     1      28.152   7.474  48.190  1.00  0.00     0.016 C 
HETATM   24  C1  UNL     1      28.757   8.461  48.831  1.00  0.00     0.080 C 
BRANCH  24  25
HETATM   25  N1  UNL     1      30.031   8.367  49.456  1.00  0.00    -0.408 N 
HETATM   26  H1  UNL     1      29.977   8.600  50.491  1.00  0.00     0.155 HD
HETATM   27  H2  UNL     1      30.862   8.090  48.867  1.00  0.00     0.155 HD
ENDBRANCH  24  25
ENDBRANCH  22  23
ENDBRANCH  20  21
ENDBRANCH   1  19
TORSDOF 4
ENDMDL
MODEL 2
REMARK VINA RESULT:      -7.6      6.013      8.236
REMARK  4 active torsions:
REMARK  status: ('A' for Active; 'I' for Inactive)
REMARK    1  A    between atoms: N1_1  and  C1_2 
REMARK    2  A    between atoms: C2_3  and  C3_4 
REMARK    3  A    between atoms: C4_5  and  C5_6 
REMARK    4  A    between atoms: C6_7  and  C7_8 
ROOT
HETATM    1  C7  UNL     1      31.715   7.867  48.246  1.00  0.00     0.115 C 
HETATM    2  C8  UNL     1      30.964   6.932  47.375  1.00  0.00     0.050 C 
HETATM    3  C9  UNL     1      29.639   7.317  46.861  1.00  0.00     0.044 C 
HETATM    4  C10 UNL     1      28.521   7.456  47.777  1.00  0.00    -0.032 A 
HETATM    5  C11 UNL     1      27.958   6.206  48.079  1.00  0.00     0.011 A 
HETATM    6  C12 UNL     1      26.870   5.979  48.895  1.00  0.00     0.020 A 
HETATM    7  C13 UNL     1      26.247   7.054  49.491  1.00  0.00     0.013 A 
HETATM    8 BR1  UNL     1      24.740   7.009  50.650  1.00  0.00    -0.051 Br
HETATM    9  C14 UNL     1      26.756   8.298  49.231  1.00  0.00     0.048 A 
HETATM   10  C15 UNL     1      27.839   8.467  48.413  1.00  0.00     0.037 A 
HETATM   11  N2  UNL     1      28.543   9.636  48.037  1.00  0.00    -0.359 N 
HETATM   12  C16 UNL     1      29.585   9.747  49.068  1.00  0.00     0.268 C 
HETATM   13  N3  UNL     1      29.990   8.477  49.563  1.00  0.00    -0.269 N 
HETATM   14  O1  UNL     1      31.242   8.129  49.491  1.00  0.00    -0.266 OA
HETATM   15  S1  UNL     1      31.029  10.525  48.262  1.00  0.00    -0.118 SA
HETATM   16  C17 UNL     1      32.019   9.183  47.501  1.00  0.00     0.122 C 
HETATM   17  H16 UNL     1      28.506  10.364  47.282  1.00  0.00     0.162 HD
HETATM   18  H18 UNL     1      29.476   8.173  50.419  1.00  0.00     0.191 HD
ENDROOT
BRANCH   1  19
HETATM   19  C6  UNL     1      33.106   7.236  48.370  1.00  0.00     0.014 C 
HETATM   20  C5  UNL     1      33.225   5.899  48.319  1.00  0.00    -0.001 C 
BRANCH  20  21
HETATM   21  C4  UNL     1      34.502   5.204  48.427  1.00  0.00    -0.000 C 
HETATM   22  C3  UNL     1      34.764   4.039  47.857  1.00  0.00     0.001 C 
BRANCH  22  23
HETATM   23  C2  UNL     1      33.790   3.321  47.050  1.00  0.00     0.016 C 
HETATM   24  C1  UNL     1      33.178   2.252  47.535  1.00  0.00     0.080 C 
BRANCH  24  25
HETATM   25  N1  UNL     1      33.391   1.710  48.833  1.00  0.00    -0.408 N 
HETATM   26  H1  UNL     1      33.712   2.454  49.520  1.00  0.00     0.155 HD
HETATM   27  H2  UNL     1      33.219   0.678  48.982  1.00  0.00     0.155 HD
ENDBRANCH  24  25
ENDBRANCH  22  23
ENDBRANCH  20  21
ENDBRANCH   1  19
TORSDOF 4
ENDMDL
MODEL 3
REMARK VINA RESULT:      -7.5      4.256      5.876
REMARK  4 active torsions:
REMARK  status: ('A' for Active; 'I' for Inactive)
REMARK    1  A    between atoms: N1_1  and  C1_2 
REMARK    2  A    between atoms: C2_3  and  C3_4 
REMARK    3  A    between atoms: C4_5  and  C5_6 
REMARK    4  A    between atoms: C6_7  and  C7_8 
ROOT
HETATM    1  C7  UNL     1      24.259   1.740  52.067  1.00  0.00     0.115 C 
HETATM    2  C8  UNL     1      24.732   2.979  52.728  1.00  0.00     0.050 C 
HETATM    3  C9  UNL     1      23.754   3.966  53.215  1.00  0.00     0.044 C 
HETATM    4  C10 UNL     1      22.944   4.709  52.267  1.00  0.00    -0.032 A 
HETATM    5  C11 UNL     1      23.658   5.793  51.733  1.00  0.00     0.011 A 
HETATM    6  C12 UNL     1      23.181   6.715  50.825  1.00  0.00     0.020 A 
HETATM    7  C13 UNL     1      21.883   6.598  50.375  1.00  0.00     0.013 A 
HETATM    8 BR1  UNL     1      20.994   7.731  49.134  1.00  0.00    -0.051 Br
HETATM    9  C14 UNL     1      21.140   5.557  50.864  1.00  0.00     0.048 A 
HETATM   10  C15 UNL     1      21.664   4.669  51.764  1.00  0.00     0.037 A 
HETATM   11  N2  UNL     1      21.101   3.520  52.366  1.00  0.00    -0.359 N 
HETATM   12  C16 UNL     1      21.457   2.441  51.432  1.00  0.00     0.268 C 
HETATM   13  N3  UNL     1      22.687   2.694  50.763  1.00  0.00    -0.269 N 
HETATM   14  O1  UNL     1      23.656   1.830  50.855  1.00  0.00    -0.266 OA
HETATM   15  S1  UNL     1      21.662   0.931  52.441  1.00  0.00    -0.118 SA
HETATM   16  C17 UNL     1      23.396   0.901  53.033  1.00  0.00     0.122 C 
HETATM   17  H16 UNL     1      20.549   3.276  53.225  1.00  0.00     0.162 HD
HETATM   18  H18 UNL     1      22.577   3.167  49.840  1.00  0.00     0.191 HD
ENDROOT
BRANCH   1  19
HETATM   19  C6  UNL     1      25.519   0.878  51.929  1.00  0.00     0.014 C 
HETATM   20  C5  UNL     1      25.635  -0.236  52.671  1.00  0.00    -0.001 C 
BRANCH  20  21
HETATM   21  C4  UNL     1      26.791  -1.121  52.613  1.00  0.00    -0.000 C 
HETATM   22  C3  UNL     1      27.862  -0.996  53.379  1.00  0.00     0.001 C 
BRANCH  22  23
HETATM   23  C2  UNL     1      27.999   0.055  54.375  1.00  0.00     0.016 C 
HETATM   24  C1  UNL     1      29.079   0.818  54.398  1.00  0.00     0.080 C 
BRANCH  24  25
HETATM   25  N1  UNL     1      30.176   0.707  53.498  1.00  0.00    -0.408 N 
HETATM   26  H1  UNL     1      31.074   0.452  54.005  1.00  0.00     0.155 HD
HETATM   27  H2  UNL     1      30.003   0.878  52.471  1.00  0.00     0.155 HD
ENDBRANCH  24  25
ENDBRANCH  22  23
ENDBRANCH  20  21
ENDBRANCH   1  19
TORSDOF 4
ENDMDL
MODEL 4
REMARK VINA RESULT:      -7.5      2.494      3.421
REMARK  4 active torsions:
REMARK  status: ('A' for Active; 'I' for Inactive)
REMARK    1  A    between atoms: N1_1  and  C1_2 
REMARK    2  A    between atoms: C2_3  and  C3_4 
REMARK    3  A    between atoms: C4_5  and  C5_6 
REMARK    4  A    between atoms: C6_7  and  C7_8 
ROOT
HETATM    1  C7  UNL     1      24.296   6.187  50.556  1.00  0.00     0.115 C 
HETATM    2  C8  UNL     1      25.327   5.480  49.759  1.00  0.00     0.050 C 
HETATM    3  C9  UNL     1      25.124   4.070  49.388  1.00  0.00     0.044 C 
HETATM    4  C10 UNL     1      25.130   3.045  50.415  1.00  0.00    -0.032 A 
HETATM    5  C11 UNL     1      26.441   2.685  50.762  1.00  0.00     0.011 A 
HETATM    6  C12 UNL     1      26.806   1.727  51.685  1.00  0.00     0.020 A 
HETATM    7  C13 UNL     1      25.820   1.032  52.350  1.00  0.00     0.013 A 
HETATM    8 BR1  UNL     1      26.058  -0.327  53.658  1.00  0.00    -0.051 Br
HETATM    9  C14 UNL     1      24.521   1.343  52.050  1.00  0.00     0.048 A 
HETATM   10  C15 UNL     1      24.214   2.304  51.126  1.00  0.00     0.037 A 
HETATM   11  N2  UNL     1      22.965   2.804  50.690  1.00  0.00    -0.359 N 
HETATM   12  C16 UNL     1      22.710   3.923  51.609  1.00  0.00     0.268 C 
HETATM   13  N3  UNL     1      23.914   4.541  52.049  1.00  0.00    -0.269 N 
HETATM   14  O1  UNL     1      24.093   5.814  51.845  1.00  0.00    -0.266 OA
HETATM   15  S1  UNL     1      21.752   5.161  50.665  1.00  0.00    -0.118 SA
HETATM   16  C17 UNL     1      22.955   6.235  49.795  1.00  0.00     0.122 C 
HETATM   17  H16 UNL     1      22.252   2.593  49.949  1.00  0.00     0.162 HD
HETATM   18  H18 UNL     1      24.278   4.163  52.950  1.00  0.00     0.191 HD
ENDROOT
BRANCH   1  19
HETATM   19  C6  UNL     1      24.736   7.655  50.530  1.00  0.00     0.014 C 
HETATM   20  C5  UNL     1      25.989   7.955  50.151  1.00  0.00    -0.001 C 
BRANCH  20  21
HETATM   21  C4  UNL     1      26.504   9.318  50.093  1.00  0.00    -0.000 C 
HETATM   22  C3  UNL     1      27.667   9.651  49.559  1.00  0.00     0.001 C 
BRANCH  22  23
HETATM   23  C2  UNL     1      28.568   8.676  48.964  1.00  0.00     0.016 C 
HETATM   24  C1  UNL     1      29.869   8.740  49.195  1.00  0.00     0.080 C 
BRANCH  24  25
HETATM   25  N1  UNL     1      30.506   9.717  50.010  1.00  0.00    -0.408 N 
HETATM   26  H1  UNL     1      29.814  10.442  50.363  1.00  0.00     0.155 HD
HETATM   27  H2  UNL     1      31.545   9.634  50.177  1.00  0.00     0.155 HD
ENDBRANCH  24  25
ENDBRANCH  22  23
ENDBRANCH  20  21
ENDBRANCH   1  19
TORSDOF 4
ENDMDL
MODEL 5
REMARK VINA RESULT:      -7.4      4.452      8.107
REMARK  4 active torsions:
REMARK  status: ('A' for Active; 'I' for Inactive)
REMARK    1  A    between atoms: N1_1  and  C1_2 
REMARK    2  A    between atoms: C2_3  and  C3_4 
REMARK    3  A    between atoms: C4_5  and  C5_6 
REMARK    4  A    between atoms: C6_7  and  C7_8 
ROOT
HETATM    1  C7  UNL     1      22.710   1.324  51.598  1.00  0.00     0.115 C 
HETATM    2  C8  UNL     1      22.797   0.226  52.590  1.00  0.00     0.050 C 
HETATM    3  C9  UNL     1      23.646   0.384  53.783  1.00  0.00     0.044 C 
HETATM    4  C10 UNL     1      25.088   0.449  53.640  1.00  0.00    -0.032 A 
HETATM    5  C11 UNL     1      25.642  -0.834  53.510  1.00  0.00     0.011 A 
HETATM    6  C12 UNL     1      26.981  -1.134  53.381  1.00  0.00     0.020 A 
HETATM    7  C13 UNL     1      27.898  -0.105  53.375  1.00  0.00     0.013 A 
HETATM    8 BR1  UNL     1      29.786  -0.253  53.212  1.00  0.00    -0.051 Br
HETATM    9  C14 UNL     1      27.413   1.169  53.499  1.00  0.00     0.048 A 
HETATM   10  C15 UNL     1      26.072   1.411  53.623  1.00  0.00     0.037 A 
HETATM   11  N2  UNL     1      25.356   2.627  53.728  1.00  0.00    -0.359 N 
HETATM   12  C16 UNL     1      25.060   2.965  52.328  1.00  0.00     0.268 C 
HETATM   13  N3  UNL     1      24.911   1.807  51.515  1.00  0.00    -0.269 N 
HETATM   14  O1  UNL     1      23.805   1.625  50.854  1.00  0.00    -0.266 OA
HETATM   15  S1  UNL     1      23.466   3.858  52.337  1.00  0.00    -0.118 SA
HETATM   16  C17 UNL     1      22.135   2.600  52.245  1.00  0.00     0.122 C 
HETATM   17  H16 UNL     1      25.021   3.276  54.481  1.00  0.00     0.162 HD
HETATM   18  H18 UNL     1      25.789   1.511  51.035  1.00  0.00     0.191 HD
ENDROOT
BRANCH   1  19
HETATM   19  C6  UNL     1      21.577   0.898  50.658  1.00  0.00     0.014 C 
HETATM   20  C5  UNL     1      20.317   1.268  50.944  1.00  0.00    -0.001 C 
BRANCH  20  21
HETATM   21  C4  UNL     1      19.171   0.915  50.116  1.00  0.00    -0.000 C 
HETATM   22  C3  UNL     1      18.167   0.156  50.521  1.00  0.00     0.001 C 
BRANCH  22  23
HETATM   23  C2  UNL     1      18.101  -0.415  51.858  1.00  0.00     0.016 C 
HETATM   24  C1  UNL     1      16.986  -0.982  52.289  1.00  0.00     0.080 C 
BRANCH  24  25
HETATM   25  N1  UNL     1      15.784  -1.094  51.535  1.00  0.00    -0.408 N 
HETATM   26  H1  UNL     1      14.953  -1.321  52.156  1.00  0.00     0.155 HD
HETATM   27  H2  UNL     1      15.830  -0.949  50.490  1.00  0.00     0.155 HD
ENDBRANCH  24  25
ENDBRANCH  22  23
ENDBRANCH  20  21
ENDBRANCH   1  19
TORSDOF 4
ENDMDL
MODEL 6
REMARK VINA RESULT:      -7.2      4.114      6.728
REMARK  4 active torsions:
REMARK  status: ('A' for Active; 'I' for Inactive)
REMARK    1  A    between atoms: N1_1  and  C1_2 
REMARK    2  A    between atoms: C2_3  and  C3_4 
REMARK    3  A    between atoms: C4_5  and  C5_6 
REMARK    4  A    between atoms: C6_7  and  C7_8 
ROOT
HETATM    1  C7  UNL     1      23.618   2.921  51.778  1.00  0.00     0.115 C 
HETATM    2  C8  UNL     1      23.535   4.267  52.392  1.00  0.00     0.050 C 
HETATM    3  C9  UNL     1      23.003   5.396  51.611  1.00  0.00     0.044 C 
HETATM    4  C10 UNL     1      23.746   5.897  50.469  1.00  0.00    -0.032 A 
HETATM    5  C11 UNL     1      24.774   6.762  50.875  1.00  0.00     0.011 A 
HETATM    6  C12 UNL     1      25.651   7.430  50.047  1.00  0.00     0.020 A 
HETATM    7  C13 UNL     1      25.541   7.261  48.684  1.00  0.00     0.013 A 
HETATM    8 BR1  UNL     1      26.619   8.064  47.338  1.00  0.00    -0.051 Br
HETATM    9  C14 UNL     1      24.554   6.428  48.231  1.00  0.00     0.048 A 
HETATM   10  C15 UNL     1      23.710   5.788  49.098  1.00  0.00     0.037 A 
HETATM   11  N2  UNL     1      22.659   4.871  48.860  1.00  0.00    -0.359 N 
HETATM   12  C16 UNL     1      23.334   3.566  48.905  1.00  0.00     0.268 C 
HETATM   13  N3  UNL     1      24.452   3.569  49.785  1.00  0.00    -0.269 N 
HETATM   14  O1  UNL     1      24.499   2.714  50.765  1.00  0.00    -0.266 OA
HETATM   15  S1  UNL     1      22.110   2.372  49.550  1.00  0.00    -0.118 SA
HETATM   16  C17 UNL     1      22.216   2.416  51.379  1.00  0.00     0.122 C 
HETATM   17  H16 UNL     1      21.626   4.894  48.679  1.00  0.00     0.162 HD
HETATM   18  H18 UNL     1      25.359   3.782  49.317  1.00  0.00     0.191 HD
ENDROOT
BRANCH   1  19
HETATM   19  C6  UNL     1      23.978   1.992  52.943  1.00  0.00     0.014 C 
HETATM   20  C5  UNL     1      24.111   0.676  52.712  1.00  0.00    -0.001 C 
BRANCH  20  21
HETATM   21  C4  UNL     1      24.451  -0.289  53.750  1.00  0.00    -0.000 C 
HETATM   22  C3  UNL     1      25.619  -0.904  53.841  1.00  0.00     0.001 C 
BRANCH  22  23
HETATM   23  C2  UNL     1      26.703  -0.676  52.898  1.00  0.00     0.016 C 
HETATM   24  C1  UNL     1      27.924  -0.410  53.334  1.00  0.00     0.080 C 
BRANCH  24  25
HETATM   25  N1  UNL     1      28.298  -0.321  54.704  1.00  0.00    -0.408 N 
HETATM   26  H1  UNL     1      28.640   0.654  54.953  1.00  0.00     0.155 HD
HETATM   27  H2  UNL     1      28.207  -1.182  55.308  1.00  0.00     0.155 HD
ENDBRANCH  24  25
ENDBRANCH  22  23
ENDBRANCH  20  21
ENDBRANCH   1  19
TORSDOF 4
ENDMDL
MODEL 7
REMARK VINA RESULT:      -7.1      5.647     10.019
REMARK  4 active torsions:
REMARK  status: ('A' for Active; 'I' for Inactive)
REMARK    1  A    between atoms: N1_1  and  C1_2 
REMARK    2  A    between atoms: C2_3  and  C3_4 
REMARK    3  A    between atoms: C4_5  and  C5_6 
REMARK    4  A    between atoms: C6_7  and  C7_8 
ROOT
HETATM    1  C7  UNL     1      29.126   7.083  47.767  1.00  0.00     0.115 C 
HETATM    2  C8  UNL     1      29.815   5.839  48.185  1.00  0.00     0.050 C 
HETATM    3  C9  UNL     1      31.283   5.819  48.295  1.00  0.00     0.044 C 
HETATM    4  C10 UNL     1      32.099   5.941  47.101  1.00  0.00    -0.032 A 
HETATM    5  C11 UNL     1      32.207   4.709  46.436  1.00  0.00     0.011 A 
HETATM    6  C12 UNL     1      32.927   4.466  45.285  1.00  0.00     0.020 A 
HETATM    7  C13 UNL     1      33.622   5.503  44.701  1.00  0.00     0.013 A 
HETATM    8 BR1  UNL     1      34.682   5.429  43.124  1.00  0.00    -0.051 Br
HETATM    9  C14 UNL     1      33.551   6.728  45.308  1.00  0.00     0.048 A 
HETATM   10  C15 UNL     1      32.820   6.915  46.450  1.00  0.00     0.037 A 
HETATM   11  N2  UNL     1      32.581   8.080  47.216  1.00  0.00    -0.359 N 
HETATM   12  C16 UNL     1      31.362   8.637  46.611  1.00  0.00     0.268 C 
HETATM   13  N3  UNL     1      30.517   7.625  46.077  1.00  0.00    -0.269 N 
HETATM   14  O1  UNL     1      29.288   7.529  46.495  1.00  0.00    -0.266 OA
HETATM   15  S1  UNL     1      30.455   9.478  47.957  1.00  0.00    -0.118 SA
HETATM   16  C17 UNL     1      29.398   8.222  48.771  1.00  0.00     0.122 C 
HETATM   17  H16 UNL     1      33.016   8.588  48.025  1.00  0.00     0.162 HD
HETATM   18  H18 UNL     1      30.675   7.433  45.064  1.00  0.00     0.191 HD
ENDROOT
BRANCH   1  19
HETATM   19  C6  UNL     1      27.640   6.792  48.002  1.00  0.00     0.014 C 
HETATM   20  C5  UNL     1      27.289   5.692  48.689  1.00  0.00    -0.001 C 
BRANCH  20  21
HETATM   21  C4  UNL     1      25.906   5.327  48.966  1.00  0.00    -0.000 C 
HETATM   22  C3  UNL     1      25.529   4.154  49.446  1.00  0.00     0.001 C 
BRANCH  22  23
HETATM   23  C2  UNL     1      26.471   3.089  49.753  1.00  0.00     0.016 C 
HETATM   24  C1  UNL     1      26.552   2.600  50.980  1.00  0.00     0.080 C 
BRANCH  24  25
HETATM   25  N1  UNL     1      25.766   3.035  52.084  1.00  0.00    -0.408 N 
HETATM   26  H1  UNL     1      26.209   3.866  52.575  1.00  0.00     0.155 HD
HETATM   27  H2  UNL     1      24.870   2.519  52.298  1.00  0.00     0.155 HD
ENDBRANCH  24  25
ENDBRANCH  22  23
ENDBRANCH  20  21
ENDBRANCH   1  19
TORSDOF 4
ENDMDL
MODEL 8
REMARK VINA RESULT:      -7.0      4.225      6.083
REMARK  4 active torsions:
REMARK  status: ('A' for Active; 'I' for Inactive)
REMARK    1  A    between atoms: N1_1  and  C1_2 
REMARK    2  A    between atoms: C2_3  and  C3_4 
REMARK    3  A    between atoms: C4_5  and  C5_6 
REMARK    4  A    between atoms: C6_7  and  C7_8 
ROOT
HETATM    1  C7  UNL     1      22.776   1.859  50.994  1.00  0.00     0.115 C 
HETATM    2  C8  UNL     1      22.627   0.696  51.901  1.00  0.00     0.050 C 
HETATM    3  C9  UNL     1      23.276   0.713  53.223  1.00  0.00     0.044 C 
HETATM    4  C10 UNL     1      24.724   0.677  53.317  1.00  0.00    -0.032 A 
HETATM    5  C11 UNL     1      25.206  -0.634  53.180  1.00  0.00     0.011 A 
HETATM    6  C12 UNL     1      26.527  -1.027  53.243  1.00  0.00     0.020 A 
HETATM    7  C13 UNL     1      27.497  -0.073  53.461  1.00  0.00     0.013 A 
HETATM    8 BR1  UNL     1      29.373  -0.354  53.590  1.00  0.00    -0.051 Br
HETATM    9  C14 UNL     1      27.082   1.224  53.602  1.00  0.00     0.048 A 
HETATM   10  C15 UNL     1      25.758   1.560  53.529  1.00  0.00     0.037 A 
HETATM   11  N2  UNL     1      25.115   2.817  53.610  1.00  0.00    -0.359 N 
HETATM   12  C16 UNL     1      25.076   3.266  52.210  1.00  0.00     0.268 C 
HETATM   13  N3  UNL     1      24.987   2.177  51.299  1.00  0.00    -0.269 N 
HETATM   14  O1  UNL     1      23.995   2.123  50.459  1.00  0.00    -0.266 OA
HETATM   15  S1  UNL     1      23.563   4.275  52.033  1.00  0.00    -0.118 SA
HETATM   16  C17 UNL     1      22.186   3.132  51.636  1.00  0.00     0.122 C 
HETATM   17  H16 UNL     1      24.704   3.441  54.347  1.00  0.00     0.162 HD
HETATM   18  H18 UNL     1      25.910   1.846  50.944  1.00  0.00     0.191 HD
ENDROOT
BRANCH   1  19
HETATM   19  C6  UNL     1      21.786   1.583  49.857  1.00  0.00     0.014 C 
HETATM   20  C5  UNL     1      21.020   2.587  49.398  1.00  0.00    -0.001 C 
BRANCH  20  21
HETATM   21  C4  UNL     1      20.051   2.427  48.322  1.00  0.00    -0.000 C 
HETATM   22  C3  UNL     1      19.874   3.302  47.345  1.00  0.00     0.001 C 
BRANCH  22  23
HETATM   23  C2  UNL     1      20.642   4.533  47.242  1.00  0.00     0.016 C 
HETATM   24  C1  UNL     1      21.578   4.663  46.316  1.00  0.00     0.080 C 
BRANCH  24  25
HETATM   25  N1  UNL     1      21.924   3.665  45.362  1.00  0.00    -0.408 N 
HETATM   26  H1  UNL     1      22.040   4.078  44.390  1.00  0.00     0.155 HD
HETATM   27  H2  UNL     1      22.026   2.667  45.691  1.00  0.00     0.155 HD
ENDBRANCH  24  25
ENDBRANCH  22  23
ENDBRANCH  20  21
ENDBRANCH   1  19
TORSDOF 4
ENDMDL
MODEL 9
REMARK VINA RESULT:      -6.9      3.869      5.178
REMARK  4 active torsions:
REMARK  status: ('A' for Active; 'I' for Inactive)
REMARK    1  A    between atoms: N1_1  and  C1_2 
REMARK    2  A    between atoms: C2_3  and  C3_4 
REMARK    3  A    between atoms: C4_5  and  C5_6 
REMARK    4  A    between atoms: C6_7  and  C7_8 
ROOT
HETATM    1  C7  UNL     1      24.563   2.437  52.615  1.00  0.00     0.115 C 
HETATM    2  C8  UNL     1      23.768   1.211  52.366  1.00  0.00     0.050 C 
HETATM    3  C9  UNL     1      22.901   1.131  51.179  1.00  0.00     0.044 C 
HETATM    4  C10 UNL     1      21.729   1.982  51.081  1.00  0.00    -0.032 A 
HETATM    5  C11 UNL     1      20.655   1.448  51.809  1.00  0.00     0.011 A 
HETATM    6  C12 UNL     1      19.390   1.988  51.909  1.00  0.00     0.020 A 
HETATM    7  C13 UNL     1      19.113   3.164  51.245  1.00  0.00     0.013 A 
HETATM    8 BR1  UNL     1      17.461   4.105  51.222  1.00  0.00    -0.051 Br
HETATM    9  C14 UNL     1      20.126   3.729  50.519  1.00  0.00     0.048 A 
HETATM   10  C15 UNL     1      21.364   3.151  50.454  1.00  0.00     0.037 A 
HETATM   11  N2  UNL     1      22.549   3.569  49.805  1.00  0.00    -0.359 N 
HETATM   12  C16 UNL     1      23.227   4.379  50.828  1.00  0.00     0.268 C 
HETATM   13  N3  UNL     1      22.939   3.929  52.146  1.00  0.00    -0.269 N 
HETATM   14  O1  UNL     1      23.915   3.586  52.935  1.00  0.00    -0.266 OA
HETATM   15  S1  UNL     1      25.021   4.178  50.542  1.00  0.00    -0.118 SA
HETATM   16  C17 UNL     1      25.557   2.686  51.462  1.00  0.00     0.122 C 
HETATM   17  H16 UNL     1      23.012   3.454  48.870  1.00  0.00     0.162 HD
HETATM   18  H18 UNL     1      22.135   4.420  52.595  1.00  0.00     0.191 HD
ENDROOT
BRANCH   1  19
HETATM   19  C6  UNL     1      25.496   2.058  53.770  1.00  0.00     0.014 C 
HETATM   20  C5  UNL     1      25.836   0.769  53.940  1.00  0.00    -0.001 C 
BRANCH  20  21
HETATM   21  C4  UNL     1      26.715   0.306  55.006  1.00  0.00    -0.000 C 
HETATM   22  C3  UNL     1      28.034   0.259  54.914  1.00  0.00     0.001 C 
BRANCH  22  23
HETATM   23  C2  UNL     1      28.754   0.671  53.719  1.00  0.00     0.016 C 
HETATM   24  C1  UNL     1      29.744  -0.069  53.246  1.00  0.00     0.080 C 
BRANCH  24  25
HETATM   25  N1  UNL     1      30.195  -1.291  53.820  1.00  0.00    -0.408 N 
HETATM   26  H1  UNL     1      29.967  -2.122  53.199  1.00  0.00     0.155 HD
HETATM   27  H2  UNL     1      30.684  -1.257  54.755  1.00  0.00     0.155 HD
ENDBRANCH  24  25
ENDBRANCH  22  23
ENDBRANCH  20  21
ENDBRANCH   1  19
TORSDOF 4
ENDMDL
