MODEL 1
REMARK VINA RESULT:      -8.9      0.000      0.000
REMARK  2 active torsions:
REMARK  status: ('A' for Active; 'I' for Inactive)
REMARK    1  A    between atoms: C5_7  and  N3_8 
REMARK    2  A    between atoms: N3_8  and  C6_9 
ROOT
HETATM    1  C6  UNL     1      26.189   4.653  49.527  1.00  0.00     0.079 C 
HETATM    2  N4  UNL     1      27.466   4.396  49.035  1.00  0.00    -0.359 NA
HETATM    3  C7  UNL     1      28.259   5.310  48.378  1.00  0.00     0.427 C 
HETATM    4  N5  UNL     1      28.727   6.300  47.914  1.00  0.00    -0.168 NA
HETATM    5  N6  UNL     1      28.718   7.595  47.702  1.00  0.00    -0.278 N 
HETATM    6  C8  UNL     1      28.202   8.605  46.947  1.00  0.00     0.092 A 
HETATM    7  C9  UNL     1      29.391   9.147  46.719  1.00  0.00     0.010 A 
HETATM    8  C10 UNL     1      29.276   8.848  48.182  1.00  0.00     0.161 A 
HETATM    9  C11 UNL     1      28.409   9.843  48.858  1.00  0.00     0.300 C 
HETATM   10  N7  UNL     1      27.105   9.480  49.219  1.00  0.00     0.085 N 
HETATM   11  C12 UNL     1      26.863   8.606  50.271  1.00  0.00     0.270 C 
HETATM   12  C13 UNL     1      25.548   7.806  50.014  1.00  0.00     0.041 C 
HETATM   13  C14 UNL     1      25.852   7.184  48.678  1.00  0.00    -0.019 C 
HETATM   14  C15 UNL     1      25.980   6.021  49.235  1.00  0.00     0.074 C 
HETATM   15  C16 UNL     1      25.892   7.636  47.277  1.00  0.00     0.014 C 
HETATM   16  C17 UNL     1      26.788   8.631  46.734  1.00  0.00     0.040 C 
HETATM   17  H12 UNL     1      26.502  10.331  49.274  1.00  0.00     0.315 HD
ENDROOT
BRANCH   1  18
HETATM   18  N3  UNL     1      26.345   3.311  49.929  1.00  0.00    -0.346 N 
HETATM   19  H6  UNL     1      27.051   3.338  49.083  1.00  0.00     0.167 HD
BRANCH  18  20
HETATM   20  C5  UNL     1      25.821   2.427  50.887  1.00  0.00     0.034 A 
HETATM   21  C4  UNL     1      26.718   1.563  51.501  1.00  0.00     0.044 A 
HETATM   22  C3  UNL     1      26.243   0.645  52.426  1.00  0.00     0.013 A 
HETATM   23  C2  UNL     1      26.852  -0.326  53.188  1.00  0.00     0.152 A 
HETATM   24  C20 UNL     1      24.871   0.634  52.697  1.00  0.00     0.064 A 
HETATM   25  N2  UNL     1      25.893  -0.921  53.909  1.00  0.00    -0.184 NA
HETATM   26  N1  UNL     1      24.746  -0.361  53.620  1.00  0.00    -0.274 N 
HETATM   27  C1  UNL     1      23.458  -0.773  54.204  1.00  0.00     0.180 C 
HETATM   28  C19 UNL     1      24.074   1.517  52.050  1.00  0.00     0.034 A 
HETATM   29  C18 UNL     1      24.443   2.449  51.136  1.00  0.00     0.032 A 
ENDBRANCH  18  20
ENDBRANCH   1  18
TORSDOF 2
ENDMDL
MODEL 2
REMARK VINA RESULT:      -8.6      5.416      7.486
REMARK  2 active torsions:
REMARK  status: ('A' for Active; 'I' for Inactive)
REMARK    1  A    between atoms: C5_7  and  N3_8 
REMARK    2  A    between atoms: N3_8  and  C6_9 
ROOT
HETATM    1  C6  UNL     1      23.788   2.537  50.948  1.00  0.00     0.079 C 
HETATM    2  N4  UNL     1      23.263   3.214  52.046  1.00  0.00    -0.359 NA
HETATM    3  C7  UNL     1      21.964   3.655  52.156  1.00  0.00     0.427 C 
HETATM    4  N5  UNL     1      20.802   3.856  51.996  1.00  0.00    -0.168 NA
HETATM    5  N6  UNL     1      19.675   3.678  51.349  1.00  0.00    -0.278 N 
HETATM    6  C8  UNL     1      18.932   4.047  50.267  1.00  0.00     0.092 A 
HETATM    7  C9  UNL     1      17.834   4.230  50.988  1.00  0.00     0.010 A 
HETATM    8  C10 UNL     1      18.439   2.915  51.369  1.00  0.00     0.161 A 
HETATM    9  C11 UNL     1      18.175   1.891  50.329  1.00  0.00     0.300 C 
HETATM   10  N7  UNL     1      19.208   1.516  49.461  1.00  0.00     0.085 N 
HETATM   11  C12 UNL     1      20.278   0.746  49.899  1.00  0.00     0.270 C 
HETATM   12  C13 UNL     1      21.559   1.086  49.074  1.00  0.00     0.041 C 
HETATM   13  C14 UNL     1      21.658   2.570  49.305  1.00  0.00    -0.019 C 
HETATM   14  C15 UNL     1      22.684   2.393  50.077  1.00  0.00     0.074 C 
HETATM   15  C16 UNL     1      20.974   3.774  48.805  1.00  0.00     0.014 C 
HETATM   16  C17 UNL     1      19.577   4.094  48.992  1.00  0.00     0.040 C 
HETATM   17  H12 UNL     1      18.807   1.153  48.567  1.00  0.00     0.315 HD
ENDROOT
BRANCH   1  18
HETATM   18  N3  UNL     1      24.920   2.563  51.789  1.00  0.00    -0.346 N 
HETATM   19  H6  UNL     1      24.555   3.594  51.931  1.00  0.00     0.167 HD
BRANCH  18  20
HETATM   20  C5  UNL     1      25.965   1.710  52.180  1.00  0.00     0.034 A 
HETATM   21  C4  UNL     1      25.717   0.345  52.122  1.00  0.00     0.044 A 
HETATM   22  C3  UNL     1      26.704  -0.537  52.534  1.00  0.00     0.013 A 
HETATM   23  C2  UNL     1      26.772  -1.910  52.602  1.00  0.00     0.152 A 
HETATM   24  C20 UNL     1      27.913  -0.004  52.995  1.00  0.00     0.064 A 
HETATM   25  N2  UNL     1      27.981  -2.222  53.088  1.00  0.00    -0.184 NA
HETATM   26  N1  UNL     1      28.639  -1.113  53.314  1.00  0.00    -0.274 N 
HETATM   27  C1  UNL     1      29.999  -1.062  53.876  1.00  0.00     0.180 C 
HETATM   28  C19 UNL     1      28.064   1.341  53.013  1.00  0.00     0.034 A 
HETATM   29  C18 UNL     1      27.163   2.280  52.631  1.00  0.00     0.032 A 
ENDBRANCH  18  20
ENDBRANCH   1  18
TORSDOF 2
ENDMDL
MODEL 3
REMARK VINA RESULT:      -8.6      1.519      2.116
REMARK  2 active torsions:
REMARK  status: ('A' for Active; 'I' for Inactive)
REMARK    1  A    between atoms: C5_7  and  N3_8 
REMARK    2  A    between atoms: N3_8  and  C6_9 
ROOT
HETATM    1  C6  UNL     1      27.307   5.437  48.608  1.00  0.00     0.079 C 
HETATM    2  N4  UNL     1      28.587   4.896  48.519  1.00  0.00    -0.359 NA
HETATM    3  C7  UNL     1      29.707   5.580  48.102  1.00  0.00     0.427 C 
HETATM    4  N5  UNL     1      30.484   6.418  47.771  1.00  0.00    -0.168 NA
HETATM    5  N6  UNL     1      30.808   7.667  47.533  1.00  0.00    -0.278 N 
HETATM    6  C8  UNL     1      30.749   8.690  46.635  1.00  0.00     0.092 A 
HETATM    7  C9  UNL     1      32.041   8.969  46.754  1.00  0.00     0.010 A 
HETATM    8  C10 UNL     1      31.458   8.823  48.125  1.00  0.00     0.161 A 
HETATM    9  C11 UNL     1      30.665  10.022  48.491  1.00  0.00     0.300 C 
HETATM   10  N7  UNL     1      29.266   9.950  48.463  1.00  0.00     0.085 N 
HETATM   11  C12 UNL     1      28.559   9.232  49.419  1.00  0.00     0.270 C 
HETATM   12  C13 UNL     1      27.232   8.684  48.807  1.00  0.00     0.041 C 
HETATM   13  C14 UNL     1      27.763   7.903  47.634  1.00  0.00    -0.019 C 
HETATM   14  C15 UNL     1      27.481   6.789  48.234  1.00  0.00     0.074 C 
HETATM   15  C16 UNL     1      28.291   8.218  46.297  1.00  0.00     0.014 C 
HETATM   16  C17 UNL     1      29.492   8.971  46.016  1.00  0.00     0.040 C 
HETATM   17  H12 UNL     1      28.864  10.904  48.317  1.00  0.00     0.315 HD
ENDROOT
BRANCH   1  18
HETATM   18  N3  UNL     1      27.058   4.128  49.072  1.00  0.00    -0.346 N 
HETATM   19  H6  UNL     1      27.992   3.956  48.512  1.00  0.00     0.167 HD
BRANCH  18  20
HETATM   20  C5  UNL     1      26.088   3.439  49.819  1.00  0.00     0.034 A 
HETATM   21  C4  UNL     1      26.550   2.583  50.809  1.00  0.00     0.044 A 
HETATM   22  C3  UNL     1      25.633   1.850  51.547  1.00  0.00     0.013 A 
HETATM   23  C2  UNL     1      25.760   0.938  52.570  1.00  0.00     0.152 A 
HETATM   24  C20 UNL     1      24.275   2.011  51.255  1.00  0.00     0.064 A 
HETATM   25  N2  UNL     1      24.524   0.542  52.903  1.00  0.00    -0.184 NA
HETATM   26  N1  UNL     1      23.666   1.168  52.137  1.00  0.00    -0.274 N 
HETATM   27  C1  UNL     1      22.209   0.967  52.200  1.00  0.00     0.180 C 
HETATM   28  C19 UNL     1      23.919   2.871  50.273  1.00  0.00     0.034 A 
HETATM   29  C18 UNL     1      24.738   3.629  49.500  1.00  0.00     0.032 A 
ENDBRANCH  18  20
ENDBRANCH   1  18
TORSDOF 2
ENDMDL
MODEL 4
REMARK VINA RESULT:      -8.4      2.374      8.416
REMARK  2 active torsions:
REMARK  status: ('A' for Active; 'I' for Inactive)
REMARK    1  A    between atoms: C5_7  and  N3_8 
REMARK    2  A    between atoms: N3_8  and  C6_9 
ROOT
HETATM    1  C6  UNL     1      26.452   4.685  49.141  1.00  0.00     0.079 C 
HETATM    2  N4  UNL     1      27.082   3.725  49.930  1.00  0.00    -0.359 NA
HETATM    3  C7  UNL     1      26.449   2.916  50.847  1.00  0.00     0.427 C 
HETATM    4  N5  UNL     1      25.645   2.330  51.499  1.00  0.00    -0.168 NA
HETATM    5  N6  UNL     1      24.407   2.023  51.809  1.00  0.00    -0.278 N 
HETATM    6  C8  UNL     1      23.289   2.415  52.483  1.00  0.00     0.092 A 
HETATM    7  C9  UNL     1      23.130   1.232  53.061  1.00  0.00     0.010 A 
HETATM    8  C10 UNL     1      23.380   1.018  51.600  1.00  0.00     0.161 A 
HETATM    9  C11 UNL     1      22.169   1.338  50.805  1.00  0.00     0.300 C 
HETATM   10  N7  UNL     1      22.124   2.538  50.083  1.00  0.00     0.085 N 
HETATM   11  C12 UNL     1      22.885   2.720  48.936  1.00  0.00     0.270 C 
HETATM   12  C13 UNL     1      23.252   4.228  48.768  1.00  0.00     0.041 C 
HETATM   13  C14 UNL     1      23.938   4.499  50.080  1.00  0.00    -0.019 C 
HETATM   14  C15 UNL     1      25.086   4.562  49.481  1.00  0.00     0.074 C 
HETATM   15  C16 UNL     1      23.520   4.720  51.474  1.00  0.00     0.014 C 
HETATM   16  C17 UNL     1      22.840   3.762  52.316  1.00  0.00     0.040 C 
HETATM   17  H12 UNL     1      21.131   2.830  49.943  1.00  0.00     0.315 HD
ENDROOT
BRANCH   1  18
HETATM   18  N3  UNL     1      27.780   4.817  48.683  1.00  0.00    -0.346 N 
HETATM   19  H6  UNL     1      27.787   3.755  48.980  1.00  0.00     0.167 HD
BRANCH  18  20
HETATM   20  C5  UNL     1      28.625   5.813  48.167  1.00  0.00     0.034 A 
HETATM   21  C4  UNL     1      29.986   5.536  48.151  1.00  0.00     0.044 A 
HETATM   22  C3  UNL     1      30.864   6.504  47.687  1.00  0.00     0.013 A 
HETATM   23  C2  UNL     1      32.233   6.544  47.547  1.00  0.00     0.152 A 
HETATM   24  C20 UNL     1      30.332   7.723  47.255  1.00  0.00     0.064 A 
HETATM   25  N2  UNL     1      32.543   7.747  47.045  1.00  0.00    -0.184 NA
HETATM   26  N1  UNL     1      31.437   8.427  46.878  1.00  0.00    -0.274 N 
HETATM   27  C1  UNL     1      31.388   9.806  46.365  1.00  0.00     0.180 C 
HETATM   28  C19 UNL     1      28.991   7.901  47.306  1.00  0.00     0.034 A 
HETATM   29  C18 UNL     1      28.056   7.019  47.739  1.00  0.00     0.032 A 
ENDBRANCH  18  20
ENDBRANCH   1  18
TORSDOF 2
ENDMDL
MODEL 5
REMARK VINA RESULT:      -8.3      1.716      2.349
REMARK  2 active torsions:
REMARK  status: ('A' for Active; 'I' for Inactive)
REMARK    1  A    between atoms: C5_7  and  N3_8 
REMARK    2  A    between atoms: N3_8  and  C6_9 
ROOT
HETATM    1  C6  UNL     1      23.819   3.670  49.894  1.00  0.00     0.079 C 
HETATM    2  N4  UNL     1      25.183   3.498  49.670  1.00  0.00    -0.359 NA
HETATM    3  C7  UNL     1      26.042   4.481  49.231  1.00  0.00     0.427 C 
HETATM    4  N5  UNL     1      26.538   5.514  48.915  1.00  0.00    -0.168 NA
HETATM    5  N6  UNL     1      26.500   6.816  48.757  1.00  0.00    -0.278 N 
HETATM    6  C8  UNL     1      26.095   7.838  47.952  1.00  0.00     0.092 A 
HETATM    7  C9  UNL     1      27.273   8.446  48.000  1.00  0.00     0.010 A 
HETATM    8  C10 UNL     1      26.875   8.068  49.393  1.00  0.00     0.161 A 
HETATM    9  C11 UNL     1      25.832   8.986  49.912  1.00  0.00     0.300 C 
HETATM   10  N7  UNL     1      24.505   8.544  49.978  1.00  0.00     0.085 N 
HETATM   11  C12 UNL     1      24.100   7.607  50.920  1.00  0.00     0.270 C 
HETATM   12  C13 UNL     1      22.913   6.760  50.362  1.00  0.00     0.041 C 
HETATM   13  C14 UNL     1      23.522   6.222  49.095  1.00  0.00    -0.019 C 
HETATM   14  C15 UNL     1      23.598   5.039  49.619  1.00  0.00     0.074 C 
HETATM   15  C16 UNL     1      23.826   6.745  47.753  1.00  0.00     0.014 C 
HETATM   16  C17 UNL     1      24.757   7.808  47.449  1.00  0.00     0.040 C 
HETATM   17  H12 UNL     1      23.855   9.362  49.938  1.00  0.00     0.315 HD
ENDROOT
BRANCH   1  18
HETATM   18  N3  UNL     1      23.965   2.317  50.266  1.00  0.00    -0.346 N 
HETATM   19  H6  UNL     1      24.190   2.243  49.190  1.00  0.00     0.167 HD
BRANCH  18  20
HETATM   20  C5  UNL     1      23.837   1.518  51.414  1.00  0.00     0.034 A 
HETATM   21  C4  UNL     1      25.011   1.147  52.054  1.00  0.00     0.044 A 
HETATM   22  C3  UNL     1      24.940   0.326  53.170  1.00  0.00     0.013 A 
HETATM   23  C2  UNL     1      25.891  -0.211  54.008  1.00  0.00     0.152 A 
HETATM   24  C20 UNL     1      23.676  -0.092  53.599  1.00  0.00     0.064 A 
HETATM   25  N2  UNL     1      25.243  -0.939  54.927  1.00  0.00    -0.184 NA
HETATM   26  N1  UNL     1      23.958  -0.866  54.685  1.00  0.00    -0.274 N 
HETATM   27  C1  UNL     1      22.931  -1.563  55.478  1.00  0.00     0.180 C 
HETATM   28  C19 UNL     1      22.586   0.324  52.912  1.00  0.00     0.034 A 
HETATM   29  C18 UNL     1      22.555   1.124  51.817  1.00  0.00     0.032 A 
ENDBRANCH  18  20
ENDBRANCH   1  18
TORSDOF 2
ENDMDL
MODEL 6
REMARK VINA RESULT:      -8.3      3.561      7.372
REMARK  2 active torsions:
REMARK  status: ('A' for Active; 'I' for Inactive)
REMARK    1  A    between atoms: C5_7  and  N3_8 
REMARK    2  A    between atoms: N3_8  and  C6_9 
ROOT
HETATM    1  C6  UNL     1      28.153   5.957  48.277  1.00  0.00     0.079 C 
HETATM    2  N4  UNL     1      27.885   4.665  48.724  1.00  0.00    -0.359 NA
HETATM    3  C7  UNL     1      26.734   4.275  49.373  1.00  0.00     0.427 C 
HETATM    4  N5  UNL     1      25.642   4.223  49.842  1.00  0.00    -0.168 NA
HETATM    5  N6  UNL     1      24.459   4.736  50.079  1.00  0.00    -0.278 N 
HETATM    6  C8  UNL     1      23.741   5.583  50.869  1.00  0.00     0.092 A 
HETATM    7  C9  UNL     1      22.773   4.698  51.070  1.00  0.00     0.010 A 
HETATM    8  C10 UNL     1      23.085   4.738  49.606  1.00  0.00     0.161 A 
HETATM    9  C11 UNL     1      22.512   5.953  48.977  1.00  0.00     0.300 C 
HETATM   10  N7  UNL     1      23.361   7.018  48.650  1.00  0.00     0.085 N 
HETATM   11  C12 UNL     1      24.253   6.932  47.590  1.00  0.00     0.270 C 
HETATM   12  C13 UNL     1      25.511   7.812  47.872  1.00  0.00     0.041 C 
HETATM   13  C14 UNL     1      25.969   7.238  49.186  1.00  0.00    -0.019 C 
HETATM   14  C15 UNL     1      26.982   6.679  48.602  1.00  0.00     0.074 C 
HETATM   15  C16 UNL     1      25.546   7.329  50.592  1.00  0.00     0.014 C 
HETATM   16  C17 UNL     1      24.280   6.882  51.127  1.00  0.00     0.040 C 
HETATM   17  H12 UNL     1      22.819   7.912  48.631  1.00  0.00     0.315 HD
ENDROOT
BRANCH   1  18
HETATM   18  N3  UNL     1      29.321   5.295  47.844  1.00  0.00    -0.346 N 
HETATM   19  H6  UNL     1      28.560   4.708  47.305  1.00  0.00     0.167 HD
BRANCH  18  20
HETATM   20  C5  UNL     1      30.709   5.357  48.052  1.00  0.00     0.034 A 
HETATM   21  C4  UNL     1      31.478   4.364  47.461  1.00  0.00     0.044 A 
HETATM   22  C3  UNL     1      32.849   4.360  47.669  1.00  0.00     0.013 A 
HETATM   23  C2  UNL     1      33.865   3.537  47.239  1.00  0.00     0.152 A 
HETATM   24  C20 UNL     1      33.395   5.366  48.473  1.00  0.00     0.064 A 
HETATM   25  N2  UNL     1      35.005   4.012  47.758  1.00  0.00    -0.184 NA
HETATM   26  N1  UNL     1      34.726   5.074  48.473  1.00  0.00    -0.274 N 
HETATM   27  C1  UNL     1      35.731   5.851  49.217  1.00  0.00     0.180 C 
HETATM   28  C19 UNL     1      32.566   6.294  49.006  1.00  0.00     0.034 A 
HETATM   29  C18 UNL     1      31.220   6.382  48.859  1.00  0.00     0.032 A 
ENDBRANCH  18  20
ENDBRANCH   1  18
TORSDOF 2
ENDMDL
MODEL 7
REMARK VINA RESULT:      -8.2      2.299      8.547
REMARK  2 active torsions:
REMARK  status: ('A' for Active; 'I' for Inactive)
REMARK    1  A    between atoms: C5_7  and  N3_8 
REMARK    2  A    between atoms: N3_8  and  C6_9 
ROOT
HETATM    1  C6  UNL     1      26.473   4.749  49.054  1.00  0.00     0.079 C 
HETATM    2  N4  UNL     1      27.088   3.754  49.811  1.00  0.00    -0.359 NA
HETATM    3  C7  UNL     1      26.451   2.955  50.733  1.00  0.00     0.427 C 
HETATM    4  N5  UNL     1      25.644   2.389  51.399  1.00  0.00    -0.168 NA
HETATM    5  N6  UNL     1      24.405   2.123  51.739  1.00  0.00    -0.278 N 
HETATM    6  C8  UNL     1      23.321   2.544  52.449  1.00  0.00     0.092 A 
HETATM    7  C9  UNL     1      23.134   1.359  53.014  1.00  0.00     0.010 A 
HETATM    8  C10 UNL     1      23.336   1.159  51.544  1.00  0.00     0.161 A 
HETATM    9  C11 UNL     1      22.117   1.535  50.788  1.00  0.00     0.300 C 
HETATM   10  N7  UNL     1      22.096   2.746  50.085  1.00  0.00     0.085 N 
HETATM   11  C12 UNL     1      22.831   2.919  48.920  1.00  0.00     0.270 C 
HETATM   12  C13 UNL     1      23.249   4.415  48.763  1.00  0.00     0.041 C 
HETATM   13  C14 UNL     1      23.980   4.640  50.060  1.00  0.00    -0.019 C 
HETATM   14  C15 UNL     1      25.113   4.671  49.430  1.00  0.00     0.074 C 
HETATM   15  C16 UNL     1      23.609   4.854  51.468  1.00  0.00     0.014 C 
HETATM   16  C17 UNL     1      22.918   3.909  52.315  1.00  0.00     0.040 C 
HETATM   17  H12 UNL     1      21.111   3.077  49.977  1.00  0.00     0.315 HD
ENDROOT
BRANCH   1  18
HETATM   18  N3  UNL     1      27.792   4.839  48.561  1.00  0.00    -0.346 N 
HETATM   19  H6  UNL     1      27.729   3.753  48.734  1.00  0.00     0.167 HD
BRANCH  18  20
HETATM   20  C5  UNL     1      28.692   5.827  48.129  1.00  0.00     0.034 A 
HETATM   21  C4  UNL     1      28.151   7.053  47.764  1.00  0.00     0.044 A 
HETATM   22  C3  UNL     1      28.995   8.048  47.294  1.00  0.00     0.013 A 
HETATM   23  C2  UNL     1      28.783   9.337  46.860  1.00  0.00     0.152 A 
HETATM   24  C20 UNL     1      30.362   7.765  47.207  1.00  0.00     0.064 A 
HETATM   25  N2  UNL     1      29.975   9.840  46.515  1.00  0.00    -0.184 NA
HETATM   26  N1  UNL     1      30.888   8.923  46.719  1.00  0.00    -0.274 N 
HETATM   27  C1  UNL     1      32.320   9.109  46.428  1.00  0.00     0.180 C 
HETATM   28  C19 UNL     1      30.797   6.541  47.588  1.00  0.00     0.034 A 
HETATM   29  C18 UNL     1      30.054   5.509  48.061  1.00  0.00     0.032 A 
ENDBRANCH  18  20
ENDBRANCH   1  18
TORSDOF 2
ENDMDL
MODEL 8
REMARK VINA RESULT:      -8.2      4.698      6.477
REMARK  2 active torsions:
REMARK  status: ('A' for Active; 'I' for Inactive)
REMARK    1  A    between atoms: C5_7  and  N3_8 
REMARK    2  A    between atoms: N3_8  and  C6_9 
ROOT
HETATM    1  C6  UNL     1      24.137   2.086  51.700  1.00  0.00     0.079 C 
HETATM    2  N4  UNL     1      24.643   3.084  50.870  1.00  0.00    -0.359 NA
HETATM    3  C7  UNL     1      23.924   3.750  49.904  1.00  0.00     0.427 C 
HETATM    4  N5  UNL     1      23.060   4.184  49.211  1.00  0.00    -0.168 NA
HETATM    5  N6  UNL     1      21.799   4.300  48.868  1.00  0.00    -0.278 N 
HETATM    6  C8  UNL     1      20.760   3.723  48.201  1.00  0.00     0.092 A 
HETATM    7  C9  UNL     1      20.450   4.842  47.559  1.00  0.00     0.010 A 
HETATM    8  C10 UNL     1      20.638   5.161  49.010  1.00  0.00     0.161 A 
HETATM    9  C11 UNL     1      19.467   4.716  49.804  1.00  0.00     0.300 C 
HETATM   10  N7  UNL     1      19.573   3.559  50.587  1.00  0.00     0.085 N 
HETATM   11  C12 UNL     1      20.328   3.542  51.753  1.00  0.00     0.270 C 
HETATM   12  C13 UNL     1      20.897   2.111  52.005  1.00  0.00     0.041 C 
HETATM   13  C14 UNL     1      21.641   1.873  50.718  1.00  0.00    -0.019 C 
HETATM   14  C15 UNL     1      22.774   2.000  51.335  1.00  0.00     0.074 C 
HETATM   15  C16 UNL     1      21.287   1.526  49.332  1.00  0.00     0.014 C 
HETATM   16  C17 UNL     1      20.498   2.336  48.431  1.00  0.00     0.040 C 
HETATM   17  H12 UNL     1      18.627   3.138  50.729  1.00  0.00     0.315 HD
ENDROOT
BRANCH   1  18
HETATM   18  N3  UNL     1      25.460   2.164  52.182  1.00  0.00    -0.346 N 
HETATM   19  H6  UNL     1      25.225   3.237  52.101  1.00  0.00     0.167 HD
BRANCH  18  20
HETATM   20  C5  UNL     1      26.510   1.297  52.528  1.00  0.00     0.034 A 
HETATM   21  C4  UNL     1      26.283  -0.062  52.363  1.00  0.00     0.044 A 
HETATM   22  C3  UNL     1      27.275  -0.960  52.728  1.00  0.00     0.013 A 
HETATM   23  C2  UNL     1      27.361  -2.334  52.694  1.00  0.00     0.152 A 
HETATM   24  C20 UNL     1      28.466  -0.448  53.251  1.00  0.00     0.064 A 
HETATM   25  N2  UNL     1      28.565  -2.666  53.179  1.00  0.00    -0.184 NA
HETATM   26  N1  UNL     1      29.202  -1.568  53.501  1.00  0.00    -0.274 N 
HETATM   27  C1  UNL     1      30.551  -1.541  54.092  1.00  0.00     0.180 C 
HETATM   28  C19 UNL     1      28.598   0.894  53.373  1.00  0.00     0.034 A 
HETATM   29  C18 UNL     1      27.690   1.848  53.044  1.00  0.00     0.032 A 
ENDBRANCH  18  20
ENDBRANCH   1  18
TORSDOF 2
ENDMDL
MODEL 9
REMARK VINA RESULT:      -8.1      2.618      8.361
REMARK  2 active torsions:
REMARK  status: ('A' for Active; 'I' for Inactive)
REMARK    1  A    between atoms: C5_7  and  N3_8 
REMARK    2  A    between atoms: N3_8  and  C6_9 
ROOT
HETATM    1  C6  UNL     1      24.905   4.989  50.050  1.00  0.00     0.079 C 
HETATM    2  N4  UNL     1      24.571   4.130  49.005  1.00  0.00    -0.359 NA
HETATM    3  C7  UNL     1      23.744   3.035  49.115  1.00  0.00     0.427 C 
HETATM    4  N5  UNL     1      22.966   2.217  49.490  1.00  0.00    -0.168 NA
HETATM    5  N6  UNL     1      22.136   1.732  50.384  1.00  0.00    -0.278 N 
HETATM    6  C8  UNL     1      22.022   1.013  51.536  1.00  0.00     0.092 A 
HETATM    7  C9  UNL     1      21.058   0.243  51.049  1.00  0.00     0.010 A 
HETATM    8  C10 UNL     1      20.729   1.669  50.738  1.00  0.00     0.161 A 
HETATM    9  C11 UNL     1      20.228   2.371  51.945  1.00  0.00     0.300 C 
HETATM   10  N7  UNL     1      21.074   3.264  52.615  1.00  0.00     0.085 N 
HETATM   11  C12 UNL     1      21.397   4.501  52.072  1.00  0.00     0.270 C 
HETATM   12  C13 UNL     1      22.818   4.942  52.546  1.00  0.00     0.041 C 
HETATM   13  C14 UNL     1      23.644   3.769  52.090  1.00  0.00    -0.019 C 
HETATM   14  C15 UNL     1      24.169   4.490  51.149  1.00  0.00     0.074 C 
HETATM   15  C16 UNL     1      23.881   2.391  52.549  1.00  0.00     0.014 C 
HETATM   16  C17 UNL     1      22.891   1.341  52.623  1.00  0.00     0.040 C 
HETATM   17  H12 UNL     1      20.786   3.342  53.617  1.00  0.00     0.315 HD
ENDROOT
BRANCH   1  18
HETATM   18  N3  UNL     1      25.606   5.600  48.990  1.00  0.00    -0.346 N 
HETATM   19  H6  UNL     1      24.686   5.304  48.461  1.00  0.00     0.167 HD
BRANCH  18  20
HETATM   20  C5  UNL     1      26.849   6.215  48.761  1.00  0.00     0.034 A 
HETATM   21  C4  UNL     1      27.910   5.383  48.433  1.00  0.00     0.044 A 
HETATM   22  C3  UNL     1      29.166   5.939  48.236  1.00  0.00     0.013 A 
HETATM   23  C2  UNL     1      30.392   5.404  47.911  1.00  0.00     0.152 A 
HETATM   24  C20 UNL     1      29.302   7.323  48.380  1.00  0.00     0.064 A 
HETATM   25  N2  UNL     1      31.263   6.420  47.856  1.00  0.00    -0.184 NA
HETATM   26  N1  UNL     1      30.626   7.531  48.129  1.00  0.00    -0.274 N 
HETATM   27  C1  UNL     1      31.267   8.856  48.185  1.00  0.00     0.180 C 
HETATM   28  C19 UNL     1      28.209   8.054  48.700  1.00  0.00     0.034 A 
HETATM   29  C18 UNL     1      26.946   7.604  48.910  1.00  0.00     0.032 A 
ENDBRANCH  18  20
ENDBRANCH   1  18
TORSDOF 2
ENDMDL
