MODEL 1
REMARK VINA RESULT:      -8.2      0.000      0.000
REMARK  2 active torsions:
REMARK  status: ('A' for Active; 'I' for Inactive)
REMARK    1  A    between atoms: C7_7  and  C8_8 
REMARK    2  A    between atoms: C14_16  and  O1_17 
ROOT
HETATM    1  C1  UNL     1      30.322   5.646  47.829  1.00  0.00     0.018 C 
HETATM    2  C2  UNL     1      29.158   5.574  48.136  1.00  0.00    -0.078 C 
HETATM    3  C3  UNL     1      27.772   5.515  48.503  1.00  0.00     0.017 A 
HETATM    4  C4  UNL     1      26.902   6.521  48.167  1.00  0.00     0.020 A 
HETATM    5  C5  UNL     1      25.592   6.430  48.533  1.00  0.00     0.002 A 
HETATM    6  C6  UNL     1      25.165   5.335  49.230  1.00  0.00     0.013 A 
HETATM    7  C7  UNL     1      25.977   4.265  49.614  1.00  0.00    -0.010 A 
HETATM    8  C17 UNL     1      27.274   4.447  49.202  1.00  0.00     0.034 A 
ENDROOT
BRANCH   7   9
HETATM    9  C8  UNL     1      25.453   3.117  50.359  1.00  0.00     0.046 C 
HETATM   10  N1  UNL     1      24.190   3.032  50.204  1.00  0.00    -0.246 NA
HETATM   11  C9  UNL     1      23.332   2.067  50.754  1.00  0.00     0.232 C 
HETATM   12  N2  UNL     1      22.167   2.244  51.341  1.00  0.00    -0.254 NA
HETATM   13  C10 UNL     1      21.672   3.585  51.454  1.00  0.00     0.118 C 
HETATM   14  C11 UNL     1      22.547   4.192  52.215  1.00  0.00     0.019 C 
HETATM   15  C12 UNL     1      23.760   4.099  52.972  1.00  0.00    -0.000 C 
HETATM   16  C13 UNL     1      24.450   2.983  53.073  1.00  0.00     0.004 C 
HETATM   17  C14 UNL     1      25.299   1.857  53.274  1.00  0.00     0.141 C 
HETATM   18  C15 UNL     1      25.860   1.288  51.998  1.00  0.00     0.042 C 
HETATM   19  C16 UNL     1      26.470   2.291  51.078  1.00  0.00     0.063 C 
BRANCH  17  20
HETATM   20  O1  UNL     1      26.273   1.913  54.276  1.00  0.00    -0.392 OA
HETATM   21  H11 UNL     1      25.880   2.283  55.123  1.00  0.00     0.210 HD
ENDBRANCH  17  20
ENDBRANCH   7   9
TORSDOF 2
ENDMDL
MODEL 2
REMARK VINA RESULT:      -7.7      0.688      2.166
REMARK  2 active torsions:
REMARK  status: ('A' for Active; 'I' for Inactive)
REMARK    1  A    between atoms: C7_7  and  C8_8 
REMARK    2  A    between atoms: C14_16  and  O1_17 
ROOT
HETATM    1  C1  UNL     1      23.965   8.450  48.027  1.00  0.00     0.018 C 
HETATM    2  C2  UNL     1      24.711   7.540  48.290  1.00  0.00    -0.078 C 
HETATM    3  C3  UNL     1      25.612   6.462  48.582  1.00  0.00     0.017 A 
HETATM    4  C4  UNL     1      26.918   6.493  48.165  1.00  0.00     0.020 A 
HETATM    5  C5  UNL     1      27.745   5.450  48.461  1.00  0.00     0.002 A 
HETATM    6  C6  UNL     1      27.258   4.388  49.170  1.00  0.00     0.013 A 
HETATM    7  C7  UNL     1      25.946   4.271  49.634  1.00  0.00    -0.010 A 
HETATM    8  C17 UNL     1      25.192   5.365  49.288  1.00  0.00     0.034 A 
ENDROOT
BRANCH   7   9
HETATM    9  C8  UNL     1      25.488   3.103  50.392  1.00  0.00     0.046 C 
HETATM   10  N1  UNL     1      24.233   2.943  50.236  1.00  0.00    -0.246 NA
HETATM   11  C9  UNL     1      23.431   1.937  50.796  1.00  0.00     0.232 C 
HETATM   12  N2  UNL     1      22.256   2.053  51.380  1.00  0.00    -0.254 NA
HETATM   13  C10 UNL     1      21.685   3.364  51.476  1.00  0.00     0.118 C 
HETATM   14  C11 UNL     1      22.521   4.030  52.230  1.00  0.00     0.019 C 
HETATM   15  C12 UNL     1      23.735   4.017  52.990  1.00  0.00    -0.000 C 
HETATM   16  C13 UNL     1      24.489   2.944  53.106  1.00  0.00     0.004 C 
HETATM   17  C14 UNL     1      25.402   1.872  53.322  1.00  0.00     0.141 C 
HETATM   18  C15 UNL     1      25.997   1.321  52.054  1.00  0.00     0.042 C 
HETATM   19  C16 UNL     1      26.550   2.346  51.123  1.00  0.00     0.063 C 
BRANCH  17  20
HETATM   20  O1  UNL     1      26.368   1.996  54.325  1.00  0.00    -0.392 OA
HETATM   21  H11 UNL     1      26.968   2.779  54.136  1.00  0.00     0.210 HD
ENDBRANCH  17  20
ENDBRANCH   7   9
TORSDOF 2
ENDMDL
MODEL 3
REMARK VINA RESULT:      -7.6      3.086      5.812
REMARK  2 active torsions:
REMARK  status: ('A' for Active; 'I' for Inactive)
REMARK    1  A    between atoms: C7_7  and  C8_8 
REMARK    2  A    between atoms: C14_16  and  O1_17 
ROOT
HETATM    1  C1  UNL     1      27.110  -1.184  52.985  1.00  0.00     0.018 C 
HETATM    2  C2  UNL     1      26.007  -0.701  53.059  1.00  0.00    -0.078 C 
HETATM    3  C3  UNL     1      24.685  -0.150  53.148  1.00  0.00     0.017 A 
HETATM    4  C4  UNL     1      23.670  -0.831  53.770  1.00  0.00     0.020 A 
HETATM    5  C5  UNL     1      22.427  -0.276  53.835  1.00  0.00     0.002 A 
HETATM    6  C6  UNL     1      22.212   0.954  53.278  1.00  0.00     0.013 A 
HETATM    7  C7  UNL     1      23.182   1.717  52.627  1.00  0.00    -0.010 A 
HETATM    8  C17 UNL     1      24.397   1.077  52.612  1.00  0.00     0.034 A 
ENDROOT
BRANCH   7   9
HETATM    9  C8  UNL     1      22.885   3.033  52.052  1.00  0.00     0.046 C 
HETATM   10  N1  UNL     1      21.940   2.936  51.201  1.00  0.00    -0.246 NA
HETATM   11  C9  UNL     1      21.372   3.973  50.445  1.00  0.00     0.232 C 
HETATM   12  N2  UNL     1      21.084   3.989  49.160  1.00  0.00    -0.254 NA
HETATM   13  C10 UNL     1      21.372   2.812  48.396  1.00  0.00     0.118 C 
HETATM   14  C11 UNL     1      22.673   2.688  48.463  1.00  0.00     0.019 C 
HETATM   15  C12 UNL     1      23.911   3.212  48.959  1.00  0.00    -0.000 C 
HETATM   16  C13 UNL     1      23.978   4.304  49.691  1.00  0.00     0.004 C 
HETATM   17  C14 UNL     1      24.209   5.463  50.487  1.00  0.00     0.141 C 
HETATM   18  C15 UNL     1      23.502   5.433  51.816  1.00  0.00     0.042 C 
HETATM   19  C16 UNL     1      23.683   4.174  52.596  1.00  0.00     0.063 C 
BRANCH  17  20
HETATM   20  O1  UNL     1      25.514   5.946  50.617  1.00  0.00    -0.392 OA
HETATM   21  H11 UNL     1      26.168   5.293  50.226  1.00  0.00     0.210 HD
ENDBRANCH  17  20
ENDBRANCH   7   9
TORSDOF 2
ENDMDL
MODEL 4
REMARK VINA RESULT:      -7.5      3.075      5.288
REMARK  2 active torsions:
REMARK  status: ('A' for Active; 'I' for Inactive)
REMARK    1  A    between atoms: C7_7  and  C8_8 
REMARK    2  A    between atoms: C14_16  and  O1_17 
ROOT
HETATM    1  C1  UNL     1      29.043   2.482  53.833  1.00  0.00     0.018 C 
HETATM    2  C2  UNL     1      27.981   1.916  53.755  1.00  0.00    -0.078 C 
HETATM    3  C3  UNL     1      26.729   1.220  53.669  1.00  0.00     0.017 A 
HETATM    4  C4  UNL     1      26.486   0.097  54.417  1.00  0.00     0.020 A 
HETATM    5  C5  UNL     1      25.284  -0.538  54.309  1.00  0.00     0.002 A 
HETATM    6  C6  UNL     1      24.340  -0.043  53.455  1.00  0.00     0.013 A 
HETATM    7  C7  UNL     1      24.499   1.090  52.656  1.00  0.00    -0.010 A 
HETATM    8  C17 UNL     1      25.737   1.659  52.833  1.00  0.00     0.034 A 
ENDROOT
BRANCH   7   9
HETATM    9  C8  UNL     1      23.442   1.570  51.761  1.00  0.00     0.046 C 
HETATM   10  N1  UNL     1      23.936   2.335  50.869  1.00  0.00    -0.246 NA
HETATM   11  C9  UNL     1      23.246   2.984  49.833  1.00  0.00     0.232 C 
HETATM   12  N2  UNL     1      23.351   4.235  49.435  1.00  0.00    -0.254 NA
HETATM   13  C10 UNL     1      24.282   5.080  50.123  1.00  0.00     0.118 C 
HETATM   14  C11 UNL     1      23.827   5.137  51.348  1.00  0.00     0.019 C 
HETATM   15  C12 UNL     1      22.818   4.731  52.282  1.00  0.00    -0.000 C 
HETATM   16  C13 UNL     1      21.810   3.955  51.946  1.00  0.00     0.004 C 
HETATM   17  C14 UNL     1      20.670   3.127  51.734  1.00  0.00     0.141 C 
HETATM   18  C15 UNL     1      21.011   1.743  51.251  1.00  0.00     0.042 C 
HETATM   19  C16 UNL     1      22.069   1.046  52.038  1.00  0.00     0.063 C 
BRANCH  17  20
HETATM   20  O1  UNL     1      19.667   3.093  52.707  1.00  0.00    -0.392 OA
HETATM   21  H11 UNL     1      19.981   2.584  53.514  1.00  0.00     0.210 HD
ENDBRANCH  17  20
ENDBRANCH   7   9
TORSDOF 2
ENDMDL
MODEL 5
REMARK VINA RESULT:      -7.4      5.089      9.034
REMARK  2 active torsions:
REMARK  status: ('A' for Active; 'I' for Inactive)
REMARK    1  A    between atoms: C7_7  and  C8_8 
REMARK    2  A    between atoms: C14_16  and  O1_17 
ROOT
HETATM    1  C1  UNL     1      26.806   3.767  49.402  1.00  0.00     0.018 C 
HETATM    2  C2  UNL     1      27.459   4.642  48.890  1.00  0.00    -0.078 C 
HETATM    3  C3  UNL     1      28.217   5.689  48.265  1.00  0.00     0.017 A 
HETATM    4  C4  UNL     1      27.600   6.775  47.700  1.00  0.00     0.020 A 
HETATM    5  C5  UNL     1      28.352   7.750  47.115  1.00  0.00     0.002 A 
HETATM    6  C6  UNL     1      29.713   7.628  47.101  1.00  0.00     0.013 A 
HETATM    7  C7  UNL     1      30.426   6.560  47.651  1.00  0.00    -0.010 A 
HETATM    8  C17 UNL     1      29.585   5.633  48.214  1.00  0.00     0.034 A 
ENDROOT
BRANCH   7   9
HETATM    9  C8  UNL     1      31.890   6.493  47.604  1.00  0.00     0.046 C 
HETATM   10  N1  UNL     1      32.319   7.021  46.526  1.00  0.00    -0.246 NA
HETATM   11  C9  UNL     1      33.656   7.151  46.119  1.00  0.00     0.232 C 
HETATM   12  N2  UNL     1      34.184   6.897  44.940  1.00  0.00    -0.254 NA
HETATM   13  C10 UNL     1      33.313   6.425  43.905  1.00  0.00     0.118 C 
HETATM   14  C11 UNL     1      32.872   5.275  44.349  1.00  0.00     0.019 C 
HETATM   15  C12 UNL     1      32.885   4.301  45.399  1.00  0.00    -0.000 C 
HETATM   16  C13 UNL     1      33.606   4.443  46.491  1.00  0.00     0.004 C 
HETATM   17  C14 UNL     1      34.328   4.456  47.719  1.00  0.00     0.141 C 
HETATM   18  C15 UNL     1      34.007   5.637  48.596  1.00  0.00     0.042 C 
HETATM   19  C16 UNL     1      32.551   5.888  48.801  1.00  0.00     0.063 C 
BRANCH  17  20
HETATM   20  O1  UNL     1      34.416   3.278  48.466  1.00  0.00    -0.392 OA
HETATM   21  H11 UNL     1      35.235   3.293  49.046  1.00  0.00     0.210 HD
ENDBRANCH  17  20
ENDBRANCH   7   9
TORSDOF 2
ENDMDL
MODEL 6
REMARK VINA RESULT:      -7.4      2.453      4.235
REMARK  2 active torsions:
REMARK  status: ('A' for Active; 'I' for Inactive)
REMARK    1  A    between atoms: C7_7  and  C8_8 
REMARK    2  A    between atoms: C14_16  and  O1_17 
ROOT
HETATM    1  C1  UNL     1      26.989   4.375  49.010  1.00  0.00     0.018 C 
HETATM    2  C2  UNL     1      26.629   3.645  49.899  1.00  0.00    -0.078 C 
HETATM    3  C3  UNL     1      26.225   2.769  50.961  1.00  0.00     0.017 A 
HETATM    4  C4  UNL     1      27.066   2.480  52.006  1.00  0.00     0.020 A 
HETATM    5  C5  UNL     1      26.647   1.643  52.997  1.00  0.00     0.002 A 
HETATM    6  C6  UNL     1      25.394   1.103  52.934  1.00  0.00     0.013 A 
HETATM    7  C7  UNL     1      24.472   1.340  51.912  1.00  0.00    -0.010 A 
HETATM    8  C17 UNL     1      24.983   2.191  50.963  1.00  0.00     0.034 A 
ENDROOT
BRANCH   7   9
HETATM    9  C8  UNL     1      23.139   0.729  51.906  1.00  0.00     0.046 C 
HETATM   10  N1  UNL     1      22.489   1.105  50.876  1.00  0.00    -0.246 NA
HETATM   11  C9  UNL     1      21.184   0.735  50.516  1.00  0.00     0.232 C 
HETATM   12  N2  UNL     1      20.201   1.502  50.092  1.00  0.00    -0.254 NA
HETATM   13  C10 UNL     1      20.455   2.906  49.966  1.00  0.00     0.118 C 
HETATM   14  C11 UNL     1      20.710   3.303  51.186  1.00  0.00     0.019 C 
HETATM   15  C12 UNL     1      20.839   2.949  52.569  1.00  0.00    -0.000 C 
HETATM   16  C13 UNL     1      20.652   1.723  53.009  1.00  0.00     0.004 C 
HETATM   17  C14 UNL     1      20.483   0.452  53.630  1.00  0.00     0.141 C 
HETATM   18  C15 UNL     1      21.414  -0.607  53.103  1.00  0.00     0.042 C 
HETATM   19  C16 UNL     1      22.848  -0.205  53.036  1.00  0.00     0.063 C 
BRANCH  17  20
HETATM   20  O1  UNL     1      20.376   0.388  55.022  1.00  0.00    -0.392 OA
HETATM   21  H11 UNL     1      20.041   1.261  55.387  1.00  0.00     0.210 HD
ENDBRANCH  17  20
ENDBRANCH   7   9
TORSDOF 2
ENDMDL
MODEL 7
REMARK VINA RESULT:      -7.4      3.008      6.447
REMARK  2 active torsions:
REMARK  status: ('A' for Active; 'I' for Inactive)
REMARK    1  A    between atoms: C7_7  and  C8_8 
REMARK    2  A    between atoms: C14_16  and  O1_17 
ROOT
HETATM    1  C1  UNL     1      21.114  -1.915  54.549  1.00  0.00     0.018 C 
HETATM    2  C2  UNL     1      21.949  -1.131  54.172  1.00  0.00    -0.078 C 
HETATM    3  C3  UNL     1      22.958  -0.207  53.741  1.00  0.00     0.017 A 
HETATM    4  C4  UNL     1      24.292  -0.490  53.886  1.00  0.00     0.020 A 
HETATM    5  C5  UNL     1      25.223   0.412  53.465  1.00  0.00     0.002 A 
HETATM    6  C6  UNL     1      24.811   1.588  52.904  1.00  0.00     0.013 A 
HETATM    7  C7  UNL     1      23.479   1.960  52.717  1.00  0.00    -0.010 A 
HETATM    8  C17 UNL     1      22.618   0.991  53.170  1.00  0.00     0.034 A 
ENDROOT
BRANCH   7   9
HETATM    9  C8  UNL     1      23.105   3.239  52.104  1.00  0.00     0.046 C 
HETATM   10  N1  UNL     1      22.182   3.059  51.243  1.00  0.00    -0.246 NA
HETATM   11  C9  UNL     1      21.559   4.037  50.452  1.00  0.00     0.232 C 
HETATM   12  N2  UNL     1      21.289   4.001  49.164  1.00  0.00    -0.254 NA
HETATM   13  C10 UNL     1      21.664   2.826  48.435  1.00  0.00     0.118 C 
HETATM   14  C11 UNL     1      22.970   2.789  48.523  1.00  0.00     0.019 C 
HETATM   15  C12 UNL     1      24.163   3.406  49.020  1.00  0.00    -0.000 C 
HETATM   16  C13 UNL     1      24.149   4.517  49.724  1.00  0.00     0.004 C 
HETATM   17  C14 UNL     1      24.292   5.709  50.493  1.00  0.00     0.141 C 
HETATM   18  C15 UNL     1      23.569   5.667  51.812  1.00  0.00     0.042 C 
HETATM   19  C16 UNL     1      23.819   4.443  52.627  1.00  0.00     0.063 C 
BRANCH  17  20
HETATM   20  O1  UNL     1      25.561   6.280  50.627  1.00  0.00    -0.392 OA
HETATM   21  H11 UNL     1      25.592   7.172  50.167  1.00  0.00     0.210 HD
ENDBRANCH  17  20
ENDBRANCH   7   9
TORSDOF 2
ENDMDL
MODEL 8
REMARK VINA RESULT:      -7.3      4.644      8.561
REMARK  2 active torsions:
REMARK  status: ('A' for Active; 'I' for Inactive)
REMARK    1  A    between atoms: C7_7  and  C8_8 
REMARK    2  A    between atoms: C14_16  and  O1_17 
ROOT
HETATM    1  C1  UNL     1      25.322   3.817  49.724  1.00  0.00     0.018 C 
HETATM    2  C2  UNL     1      26.122   4.576  49.236  1.00  0.00    -0.078 C 
HETATM    3  C3  UNL     1      27.056   5.488  48.641  1.00  0.00     0.017 A 
HETATM    4  C4  UNL     1      26.654   6.711  48.168  1.00  0.00     0.020 A 
HETATM    5  C5  UNL     1      27.570   7.552  47.609  1.00  0.00     0.002 A 
HETATM    6  C6  UNL     1      28.876   7.161  47.527  1.00  0.00     0.013 A 
HETATM    7  C7  UNL     1      29.375   5.939  47.980  1.00  0.00    -0.010 A 
HETATM    8  C17 UNL     1      28.382   5.163  48.525  1.00  0.00     0.034 A 
ENDROOT
BRANCH   7   9
HETATM    9  C8  UNL     1      30.792   5.583  47.864  1.00  0.00     0.046 C 
HETATM   10  N1  UNL     1      31.515   6.471  48.424  1.00  0.00    -0.246 NA
HETATM   11  C9  UNL     1      32.915   6.485  48.525  1.00  0.00     0.232 C 
HETATM   12  N2  UNL     1      33.744   7.484  48.307  1.00  0.00    -0.254 NA
HETATM   13  C10 UNL     1      33.184   8.743  47.912  1.00  0.00     0.118 C 
HETATM   14  C11 UNL     1      32.613   8.500  46.760  1.00  0.00     0.019 C 
HETATM   15  C12 UNL     1      32.314   7.539  45.740  1.00  0.00    -0.000 C 
HETATM   16  C13 UNL     1      32.707   6.285  45.807  1.00  0.00     0.004 C 
HETATM   17  C14 UNL     1      33.060   4.906  45.740  1.00  0.00     0.141 C 
HETATM   18  C15 UNL     1      32.532   4.091  46.891  1.00  0.00     0.042 C 
HETATM   19  C16 UNL     1      31.082   4.283  47.183  1.00  0.00     0.063 C 
BRANCH  17  20
HETATM   20  O1  UNL     1      32.912   4.228  44.527  1.00  0.00    -0.392 OA
HETATM   21  H11 UNL     1      32.328   4.754  43.902  1.00  0.00     0.210 HD
ENDBRANCH  17  20
ENDBRANCH   7   9
TORSDOF 2
ENDMDL
MODEL 9
REMARK VINA RESULT:      -7.2      2.863      4.565
REMARK  2 active torsions:
REMARK  status: ('A' for Active; 'I' for Inactive)
REMARK    1  A    between atoms: C7_7  and  C8_8 
REMARK    2  A    between atoms: C14_16  and  O1_17 
ROOT
HETATM    1  C1  UNL     1      27.821   5.342  48.386  1.00  0.00     0.018 C 
HETATM    2  C2  UNL     1      27.075   4.663  49.046  1.00  0.00    -0.078 C 
HETATM    3  C3  UNL     1      26.203   3.835  49.829  1.00  0.00     0.017 A 
HETATM    4  C4  UNL     1      26.696   2.825  50.616  1.00  0.00     0.020 A 
HETATM    5  C5  UNL     1      25.837   2.059  51.346  1.00  0.00     0.002 A 
HETATM    6  C6  UNL     1      24.496   2.309  51.282  1.00  0.00     0.013 A 
HETATM    7  C7  UNL     1      23.905   3.311  50.510  1.00  0.00    -0.010 A 
HETATM    8  C17 UNL     1      24.847   4.027  49.813  1.00  0.00     0.034 A 
ENDROOT
BRANCH   7   9
HETATM    9  C8  UNL     1      22.455   3.528  50.488  1.00  0.00     0.046 C 
HETATM   10  N1  UNL     1      21.955   3.261  51.631  1.00  0.00    -0.246 NA
HETATM   11  C9  UNL     1      20.605   3.349  52.006  1.00  0.00     0.232 C 
HETATM   12  N2  UNL     1      19.883   2.479  52.681  1.00  0.00    -0.254 NA
HETATM   13  C10 UNL     1      20.521   1.270  53.109  1.00  0.00     0.118 C 
HETATM   14  C11 UNL     1      20.853   0.664  51.998  1.00  0.00     0.019 C 
HETATM   15  C12 UNL     1      20.852   0.685  50.565  1.00  0.00    -0.000 C 
HETATM   16  C13 UNL     1      20.323   1.669  49.869  1.00  0.00     0.004 C 
HETATM   17  C14 UNL     1      19.794   2.653  48.985  1.00  0.00     0.141 C 
HETATM   18  C15 UNL     1      20.403   4.018  49.167  1.00  0.00     0.042 C 
HETATM   19  C16 UNL     1      21.894   4.040  49.201  1.00  0.00     0.063 C 
BRANCH  17  20
HETATM   20  O1  UNL     1      19.648   2.338  47.631  1.00  0.00    -0.392 OA
HETATM   21  H11 UNL     1      20.054   1.441  47.435  1.00  0.00     0.210 HD
ENDBRANCH  17  20
ENDBRANCH   7   9
TORSDOF 2
ENDMDL
