MODEL 1
REMARK VINA RESULT:      -8.2      0.000      0.000
REMARK  4 active torsions:
REMARK  status: ('A' for Active; 'I' for Inactive)
REMARK    1  A    between atoms: C7_7  and  N1_8 
REMARK       I    between atoms: N2_13  and  C11_14 
REMARK       I    between atoms: C11_14  and  N3_15 
REMARK    2  A    between atoms: N4_16  and  C12_17 
REMARK    3  A    between atoms: C12_17  and  N5_18 
REMARK    4  A    between atoms: N5_18  and  C13_19 
ROOT
HETATM    1  N1  UNL     1      26.134   0.396  53.462  1.00  0.00    -0.350 N 
HETATM    2  C8  UNL     1      25.707  -0.081  54.785  1.00  0.00     0.136 C 
HETATM    3  C9  UNL     1      24.453  -0.934  54.533  1.00  0.00     0.102 C 
HETATM    4  S1  UNL     1      23.546   0.278  53.509  1.00  0.00    -0.090 SA
HETATM    5  C10 UNL     1      25.023   1.146  52.919  1.00  0.00     0.184 C 
HETATM    6  N2  UNL     1      25.205   2.207  52.181  1.00  0.00    -0.039 NA
HETATM    7  C11 UNL     1      24.162   2.975  51.627  1.00  0.00     0.719 C 
HETATM    8  N3  UNL     1      23.836   2.699  50.260  1.00  0.00    -0.231 N 
HETATM    9  N4  UNL     1      23.593   3.860  52.409  1.00  0.00    -0.086 NA
HETATM   10  H14 UNL     1      24.602   3.240  49.767  1.00  0.00     0.174 HD
HETATM   11  H15 UNL     1      23.065   2.128  49.808  1.00  0.00     0.174 HD
ENDROOT
BRANCH   9  12
HETATM   12  C12 UNL     1      22.503   4.669  51.851  1.00  0.00     0.290 C 
BRANCH  12  13
HETATM   13  N5  UNL     1      22.876   6.037  51.662  1.00  0.00    -0.371 N 
HETATM   14  H18 UNL     1      22.570   6.784  52.350  1.00  0.00     0.161 HD
BRANCH  13  15
HETATM   15  C13 UNL     1      23.668   6.472  50.562  1.00  0.00     0.030 A 
HETATM   16  C14 UNL     1      23.401   6.072  49.251  1.00  0.00     0.029 A 
HETATM   17  C15 UNL     1      24.202   6.523  48.225  1.00  0.00     0.004 A 
HETATM   18  C16 UNL     1      25.270   7.368  48.435  1.00  0.00     0.019 A 
HETATM   19  C17 UNL     1      25.567   7.789  49.732  1.00  0.00     0.013 A 
HETATM   20 BR1  UNL     1      27.033   8.954  50.066  1.00  0.00    -0.051 Br
HETATM   21  C18 UNL     1      24.738   7.314  50.752  1.00  0.00     0.048 A 
ENDBRANCH  13  15
ENDBRANCH  12  13
ENDBRANCH   9  12
BRANCH   1  22
HETATM   22  C7  UNL     1      27.460   0.146  52.864  1.00  0.00     0.118 A 
HETATM   23  C2  UNL     1      27.761  -1.284  52.784  1.00  0.00    -0.061 A 
HETATM   24  C1  UNL     1      26.816  -2.303  52.265  1.00  0.00     0.045 C 
HETATM   25  C3  UNL     1      28.948  -1.733  53.204  1.00  0.00     0.004 A 
HETATM   26  C4  UNL     1      30.036  -0.929  53.749  1.00  0.00    -0.004 A 
HETATM   27  C5  UNL     1      29.772   0.366  53.814  1.00  0.00    -0.024 A 
HETATM   28  C6  UNL     1      28.517   1.029  53.392  1.00  0.00     0.057 A 
ENDBRANCH   1  22
TORSDOF 4
ENDMDL
MODEL 2
REMARK VINA RESULT:      -7.7      2.903      4.912
REMARK  4 active torsions:
REMARK  status: ('A' for Active; 'I' for Inactive)
REMARK    1  A    between atoms: C7_7  and  N1_8 
REMARK       I    between atoms: N2_13  and  C11_14 
REMARK       I    between atoms: C11_14  and  N3_15 
REMARK    2  A    between atoms: N4_16  and  C12_17 
REMARK    3  A    between atoms: C12_17  and  N5_18 
REMARK    4  A    between atoms: N5_18  and  C13_19 
ROOT
HETATM    1  N1  UNL     1      23.243   0.735  53.230  1.00  0.00    -0.350 N 
HETATM    2  C8  UNL     1      24.161  -0.329  52.797  1.00  0.00     0.136 C 
HETATM    3  C9  UNL     1      25.486  -0.055  53.527  1.00  0.00     0.102 C 
HETATM    4  S1  UNL     1      25.638   1.711  53.083  1.00  0.00    -0.090 SA
HETATM    5  C10 UNL     1      23.861   1.987  52.857  1.00  0.00     0.184 C 
HETATM    6  N2  UNL     1      23.157   3.009  52.456  1.00  0.00    -0.039 NA
HETATM    7  C11 UNL     1      23.705   4.251  52.080  1.00  0.00     0.719 C 
HETATM    8  N3  UNL     1      23.688   5.275  53.082  1.00  0.00    -0.231 N 
HETATM    9  N4  UNL     1      24.176   4.350  50.861  1.00  0.00    -0.086 NA
HETATM   10  H14 UNL     1      22.685   5.605  53.002  1.00  0.00     0.174 HD
HETATM   11  H15 UNL     1      24.431   5.643  53.743  1.00  0.00     0.174 HD
ENDROOT
BRANCH   9  12
HETATM   12  C12 UNL     1      24.753   5.637  50.450  1.00  0.00     0.290 C 
BRANCH  12  13
HETATM   13  N5  UNL     1      25.180   5.636  49.086  1.00  0.00    -0.371 N 
HETATM   14  H18 UNL     1      24.496   5.426  48.302  1.00  0.00     0.161 HD
BRANCH  13  15
HETATM   15  C13 UNL     1      26.522   5.911  48.701  1.00  0.00     0.030 A 
HETATM   16  C14 UNL     1      27.505   4.919  48.671  1.00  0.00     0.029 A 
HETATM   17  C15 UNL     1      28.789   5.243  48.291  1.00  0.00     0.004 A 
HETATM   18  C16 UNL     1      29.155   6.522  47.932  1.00  0.00     0.019 A 
HETATM   19  C17 UNL     1      28.200   7.540  47.949  1.00  0.00     0.013 A 
HETATM   20 BR1  UNL     1      28.663   9.318  47.461  1.00  0.00    -0.051 Br
HETATM   21  C18 UNL     1      26.907   7.181  48.339  1.00  0.00     0.048 A 
ENDBRANCH  13  15
ENDBRANCH  12  13
ENDBRANCH   9  12
BRANCH   1  22
HETATM   22  C7  UNL     1      21.944   0.508  53.894  1.00  0.00     0.118 A 
HETATM   23  C2  UNL     1      21.893  -0.795  54.560  1.00  0.00    -0.061 A 
HETATM   24  C1  UNL     1      22.965  -1.318  55.442  1.00  0.00     0.045 C 
HETATM   25  C3  UNL     1      20.833  -1.589  54.377  1.00  0.00     0.004 A 
HETATM   26  C4  UNL     1      19.660  -1.295  53.561  1.00  0.00    -0.004 A 
HETATM   27  C5  UNL     1      19.698  -0.114  52.965  1.00  0.00    -0.024 A 
HETATM   28  C6  UNL     1      20.787   0.884  53.061  1.00  0.00     0.057 A 
ENDBRANCH   1  22
TORSDOF 4
ENDMDL
MODEL 3
REMARK VINA RESULT:      -7.6      1.872      2.068
REMARK  4 active torsions:
REMARK  status: ('A' for Active; 'I' for Inactive)
REMARK    1  A    between atoms: C7_7  and  N1_8 
REMARK       I    between atoms: N2_13  and  C11_14 
REMARK       I    between atoms: C11_14  and  N3_15 
REMARK    2  A    between atoms: N4_16  and  C12_17 
REMARK    3  A    between atoms: C12_17  and  N5_18 
REMARK    4  A    between atoms: N5_18  and  C13_19 
ROOT
HETATM    1  N1  UNL     1      26.081   0.366  53.463  1.00  0.00    -0.350 N 
HETATM    2  C8  UNL     1      25.627  -0.200  54.742  1.00  0.00     0.136 C 
HETATM    3  C9  UNL     1      24.375  -1.028  54.408  1.00  0.00     0.102 C 
HETATM    4  S1  UNL     1      23.492   0.257  53.454  1.00  0.00    -0.090 SA
HETATM    5  C10 UNL     1      24.983   1.157  52.953  1.00  0.00     0.184 C 
HETATM    6  N2  UNL     1      25.182   2.266  52.295  1.00  0.00    -0.039 NA
HETATM    7  C11 UNL     1      24.152   3.076  51.777  1.00  0.00     0.719 C 
HETATM    8  N3  UNL     1      23.850   2.897  50.388  1.00  0.00    -0.231 N 
HETATM    9  N4  UNL     1      23.572   3.907  52.608  1.00  0.00    -0.086 NA
HETATM   10  H14 UNL     1      24.627   3.467  49.948  1.00  0.00     0.174 HD
HETATM   11  H15 UNL     1      23.086   2.363  49.883  1.00  0.00     0.174 HD
ENDROOT
BRANCH   9  12
HETATM   12  C12 UNL     1      22.496   4.759  52.088  1.00  0.00     0.290 C 
BRANCH  12  13
HETATM   13  N5  UNL     1      22.934   6.093  51.817  1.00  0.00    -0.371 N 
HETATM   14  H18 UNL     1      23.582   6.599  52.488  1.00  0.00     0.161 HD
BRANCH  13  15
HETATM   15  C13 UNL     1      22.537   6.810  50.653  1.00  0.00     0.030 A 
HETATM   16  C14 UNL     1      23.194   6.663  49.430  1.00  0.00     0.029 A 
HETATM   17  C15 UNL     1      22.767   7.383  48.337  1.00  0.00     0.004 A 
HETATM   18  C16 UNL     1      21.703   8.256  48.393  1.00  0.00     0.019 A 
HETATM   19  C17 UNL     1      21.021   8.429  49.599  1.00  0.00     0.013 A 
HETATM   20 BR1  UNL     1      19.547   9.624  49.722  1.00  0.00    -0.051 Br
HETATM   21  C18 UNL     1      21.477   7.685  50.691  1.00  0.00     0.048 A 
ENDBRANCH  13  15
ENDBRANCH  12  13
ENDBRANCH   9  12
BRANCH   1  22
HETATM   22  C7  UNL     1      27.416   0.152  52.873  1.00  0.00     0.118 A 
HETATM   23  C2  UNL     1      27.745  -1.271  52.771  1.00  0.00    -0.061 A 
HETATM   24  C1  UNL     1      26.824  -2.297  52.224  1.00  0.00     0.045 C 
HETATM   25  C3  UNL     1      28.936  -1.705  53.194  1.00  0.00     0.004 A 
HETATM   26  C4  UNL     1      30.003  -0.891  53.764  1.00  0.00    -0.004 A 
HETATM   27  C5  UNL     1      29.715   0.397  53.850  1.00  0.00    -0.024 A 
HETATM   28  C6  UNL     1      28.452   1.044  53.428  1.00  0.00     0.057 A 
ENDBRANCH   1  22
TORSDOF 4
ENDMDL
MODEL 4
REMARK VINA RESULT:      -7.6      4.189      7.934
REMARK  4 active torsions:
REMARK  status: ('A' for Active; 'I' for Inactive)
REMARK    1  A    between atoms: C7_7  and  N1_8 
REMARK       I    between atoms: N2_13  and  C11_14 
REMARK       I    between atoms: C11_14  and  N3_15 
REMARK    2  A    between atoms: N4_16  and  C12_17 
REMARK    3  A    between atoms: C12_17  and  N5_18 
REMARK    4  A    between atoms: N5_18  and  C13_19 
ROOT
HETATM    1  N1  UNL     1      24.715   6.289  49.252  1.00  0.00    -0.350 N 
HETATM    2  C8  UNL     1      24.112   6.602  47.948  1.00  0.00     0.136 C 
HETATM    3  C9  UNL     1      23.099   7.725  48.219  1.00  0.00     0.102 C 
HETATM    4  S1  UNL     1      22.230   6.927  49.615  1.00  0.00    -0.090 SA
HETATM    5  C10 UNL     1      23.630   5.893  50.121  1.00  0.00     0.184 C 
HETATM    6  N2  UNL     1      23.778   4.966  51.027  1.00  0.00    -0.039 NA
HETATM    7  C11 UNL     1      22.756   4.539  51.898  1.00  0.00     0.719 C 
HETATM    8  N3  UNL     1      22.768   5.115  53.210  1.00  0.00    -0.231 N 
HETATM    9  N4  UNL     1      21.898   3.666  51.430  1.00  0.00    -0.086 NA
HETATM   10  H14 UNL     1      23.517   4.525  53.672  1.00  0.00     0.174 HD
HETATM   11  H15 UNL     1      22.214   5.903  53.652  1.00  0.00     0.174 HD
ENDROOT
BRANCH   9  12
HETATM   12  C12 UNL     1      20.826   3.210  52.323  1.00  0.00     0.290 C 
BRANCH  12  13
HETATM   13  N5  UNL     1      20.632   1.795  52.269  1.00  0.00    -0.371 N 
HETATM   14  H18 UNL     1      19.916   1.368  51.613  1.00  0.00     0.161 HD
BRANCH  13  15
HETATM   15  C13 UNL     1      21.374   0.888  53.077  1.00  0.00     0.030 A 
HETATM   16  C14 UNL     1      20.796   0.205  54.150  1.00  0.00     0.029 A 
HETATM   17  C15 UNL     1      21.563  -0.661  54.898  1.00  0.00     0.004 A 
HETATM   18  C16 UNL     1      22.895  -0.891  54.632  1.00  0.00     0.019 A 
HETATM   19  C17 UNL     1      23.507  -0.227  53.567  1.00  0.00     0.013 A 
HETATM   20 BR1  UNL     1      25.343  -0.514  53.167  1.00  0.00    -0.051 Br
HETATM   21  C18 UNL     1      22.704   0.646  52.827  1.00  0.00     0.048 A 
ENDBRANCH  13  15
ENDBRANCH  12  13
ENDBRANCH   9  12
BRANCH   1  22
HETATM   22  C7  UNL     1      26.158   6.363  49.552  1.00  0.00     0.118 A 
HETATM   23  C2  UNL     1      26.676   7.724  49.405  1.00  0.00    -0.061 A 
HETATM   24  C1  UNL     1      26.020   8.928  49.973  1.00  0.00     0.045 C 
HETATM   25  C3  UNL     1      27.804   7.931  48.717  1.00  0.00     0.004 A 
HETATM   26  C4  UNL     1      28.624   6.912  48.071  1.00  0.00    -0.004 A 
HETATM   27  C5  UNL     1      28.165   5.679  48.210  1.00  0.00    -0.024 A 
HETATM   28  C6  UNL     1      26.941   5.275  48.938  1.00  0.00     0.057 A 
ENDBRANCH   1  22
TORSDOF 4
ENDMDL
MODEL 5
REMARK VINA RESULT:      -7.5      3.239      4.728
REMARK  4 active torsions:
REMARK  status: ('A' for Active; 'I' for Inactive)
REMARK    1  A    between atoms: C7_7  and  N1_8 
REMARK       I    between atoms: N2_13  and  C11_14 
REMARK       I    between atoms: C11_14  and  N3_15 
REMARK    2  A    between atoms: N4_16  and  C12_17 
REMARK    3  A    between atoms: C12_17  and  N5_18 
REMARK    4  A    between atoms: N5_18  and  C13_19 
ROOT
HETATM    1  N1  UNL     1      21.555   1.760  51.806  1.00  0.00    -0.350 N 
HETATM    2  C8  UNL     1      20.904   1.178  50.623  1.00  0.00     0.136 C 
HETATM    3  C9  UNL     1      21.997   1.103  49.544  1.00  0.00     0.102 C 
HETATM    4  S1  UNL     1      22.580   2.830  49.681  1.00  0.00    -0.090 SA
HETATM    5  C10 UNL     1      22.058   3.054  51.401  1.00  0.00     0.184 C 
HETATM    6  N2  UNL     1      22.065   4.074  52.215  1.00  0.00    -0.039 NA
HETATM    7  C11 UNL     1      22.542   5.355  51.874  1.00  0.00     0.719 C 
HETATM    8  N3  UNL     1      23.879   5.659  52.290  1.00  0.00    -0.231 N 
HETATM    9  N4  UNL     1      21.725   6.140  51.215  1.00  0.00    -0.086 NA
HETATM   10  H14 UNL     1      23.712   5.905  53.307  1.00  0.00     0.174 HD
HETATM   11  H15 UNL     1      24.807   5.658  51.777  1.00  0.00     0.174 HD
ENDROOT
BRANCH   9  12
HETATM   12  C12 UNL     1      22.205   7.479  50.850  1.00  0.00     0.290 C 
BRANCH  12  13
HETATM   13  N5  UNL     1      22.779   7.518  49.541  1.00  0.00    -0.371 N 
HETATM   14  H18 UNL     1      22.181   7.727  48.690  1.00  0.00     0.161 HD
BRANCH  13  15
HETATM   15  C13 UNL     1      24.163   7.283  49.303  1.00  0.00     0.030 A 
HETATM   16  C14 UNL     1      24.627   6.101  48.723  1.00  0.00     0.029 A 
HETATM   17  C15 UNL     1      25.978   5.928  48.517  1.00  0.00     0.004 A 
HETATM   18  C16 UNL     1      26.909   6.884  48.861  1.00  0.00     0.019 A 
HETATM   19  C17 UNL     1      26.482   8.079  49.442  1.00  0.00     0.013 A 
HETATM   20 BR1  UNL     1      27.733   9.425  49.932  1.00  0.00    -0.051 Br
HETATM   21  C18 UNL     1      25.107   8.226  49.640  1.00  0.00     0.048 A 
ENDBRANCH  13  15
ENDBRANCH  12  13
ENDBRANCH   9  12
BRANCH   1  22
HETATM   22  C7  UNL     1      21.630   1.113  53.130  1.00  0.00     0.118 A 
HETATM   23  C2  UNL     1      22.865   0.344  53.292  1.00  0.00    -0.061 A 
HETATM   24  C1  UNL     1      24.213   0.859  52.947  1.00  0.00     0.045 C 
HETATM   25  C3  UNL     1      22.809  -0.903  53.769  1.00  0.00     0.004 A 
HETATM   26  C4  UNL     1      21.607  -1.622  54.176  1.00  0.00    -0.004 A 
HETATM   27  C5  UNL     1      20.489  -0.928  54.042  1.00  0.00    -0.024 A 
HETATM   28  C6  UNL     1      20.372   0.458  53.535  1.00  0.00     0.057 A 
ENDBRANCH   1  22
TORSDOF 4
ENDMDL
MODEL 6
REMARK VINA RESULT:      -7.5      3.103      4.132
REMARK  4 active torsions:
REMARK  status: ('A' for Active; 'I' for Inactive)
REMARK    1  A    between atoms: C7_7  and  N1_8 
REMARK       I    between atoms: N2_13  and  C11_14 
REMARK       I    between atoms: C11_14  and  N3_15 
REMARK    2  A    between atoms: N4_16  and  C12_17 
REMARK    3  A    between atoms: C12_17  and  N5_18 
REMARK    4  A    between atoms: N5_18  and  C13_19 
ROOT
HETATM    1  N1  UNL     1      26.190   0.832  52.191  1.00  0.00    -0.350 N 
HETATM    2  C8  UNL     1      26.738   1.413  50.956  1.00  0.00     0.136 C 
HETATM    3  C9  UNL     1      26.364   2.903  50.998  1.00  0.00     0.102 C 
HETATM    4  S1  UNL     1      24.586   2.689  51.361  1.00  0.00    -0.090 SA
HETATM    5  C10 UNL     1      24.765   1.072  52.159  1.00  0.00     0.184 C 
HETATM    6  N2  UNL     1      23.912   0.210  52.638  1.00  0.00    -0.039 NA
HETATM    7  C11 UNL     1      22.514   0.391  52.633  1.00  0.00     0.719 C 
HETATM    8  N3  UNL     1      21.939   0.876  53.853  1.00  0.00    -0.231 N 
HETATM    9  N4  UNL     1      21.880   0.102  51.523  1.00  0.00    -0.086 NA
HETATM   10  H14 UNL     1      21.900  -0.020  54.416  1.00  0.00     0.174 HD
HETATM   11  H15 UNL     1      21.622   1.840  54.162  1.00  0.00     0.174 HD
ENDROOT
BRANCH   9  12
HETATM   12  C12 UNL     1      20.423   0.286  51.498  1.00  0.00     0.290 C 
BRANCH  12  13
HETATM   13  N5  UNL     1      19.977   0.967  50.323  1.00  0.00    -0.371 N 
HETATM   14  H18 UNL     1      18.980   0.858  49.976  1.00  0.00     0.161 HD
BRANCH  13  15
HETATM   15  C13 UNL     1      20.825   1.818  49.560  1.00  0.00     0.030 A 
HETATM   16  C14 UNL     1      21.578   1.345  48.483  1.00  0.00     0.029 A 
HETATM   17  C15 UNL     1      22.383   2.214  47.780  1.00  0.00     0.004 A 
HETATM   18  C16 UNL     1      22.481   3.552  48.094  1.00  0.00     0.019 A 
HETATM   19  C17 UNL     1      21.743   4.061  49.164  1.00  0.00     0.013 A 
HETATM   20 BR1  UNL     1      21.849   5.901  49.632  1.00  0.00    -0.051 Br
HETATM   21  C18 UNL     1      20.936   3.156  49.858  1.00  0.00     0.048 A 
ENDBRANCH  13  15
ENDBRANCH  12  13
ENDBRANCH   9  12
BRANCH   1  22
HETATM   22  C7  UNL     1      26.986   0.132  53.218  1.00  0.00     0.118 A 
HETATM   23  C2  UNL     1      28.201   0.872  53.564  1.00  0.00    -0.061 A 
HETATM   24  C1  UNL     1      28.231   2.325  53.861  1.00  0.00     0.045 C 
HETATM   25  C3  UNL     1      29.373   0.230  53.616  1.00  0.00     0.004 A 
HETATM   26  C4  UNL     1      29.595  -1.190  53.367  1.00  0.00    -0.004 A 
HETATM   27  C5  UNL     1      28.498  -1.865  53.063  1.00  0.00    -0.024 A 
HETATM   28  C6  UNL     1      27.128  -1.314  52.965  1.00  0.00     0.057 A 
ENDBRANCH   1  22
TORSDOF 4
ENDMDL
MODEL 7
REMARK VINA RESULT:      -7.3      4.597      7.792
REMARK  4 active torsions:
REMARK  status: ('A' for Active; 'I' for Inactive)
REMARK    1  A    between atoms: C7_7  and  N1_8 
REMARK       I    between atoms: N2_13  and  C11_14 
REMARK       I    between atoms: C11_14  and  N3_15 
REMARK    2  A    between atoms: N4_16  and  C12_17 
REMARK    3  A    between atoms: C12_17  and  N5_18 
REMARK    4  A    between atoms: N5_18  and  C13_19 
ROOT
HETATM    1  N1  UNL     1      23.569   4.692  50.089  1.00  0.00    -0.350 N 
HETATM    2  C8  UNL     1      23.491   5.480  51.328  1.00  0.00     0.136 C 
HETATM    3  C9  UNL     1      23.793   4.492  52.467  1.00  0.00     0.102 C 
HETATM    4  S1  UNL     1      22.608   3.192  51.970  1.00  0.00    -0.090 SA
HETATM    5  C10 UNL     1      22.590   3.635  50.213  1.00  0.00     0.184 C 
HETATM    6  N2  UNL     1      21.912   3.203  49.186  1.00  0.00    -0.039 NA
HETATM    7  C11 UNL     1      20.946   2.178  49.249  1.00  0.00     0.719 C 
HETATM    8  N3  UNL     1      21.391   0.871  48.866  1.00  0.00    -0.231 N 
HETATM    9  N4  UNL     1      19.745   2.515  49.649  1.00  0.00    -0.086 NA
HETATM   10  H14 UNL     1      21.348   0.955  47.811  1.00  0.00     0.174 HD
HETATM   11  H15 UNL     1      21.690   0.023  49.428  1.00  0.00     0.174 HD
ENDROOT
BRANCH   9  12
HETATM   12  C12 UNL     1      18.725   1.461  49.723  1.00  0.00     0.290 C 
BRANCH  12  13
HETATM   13  N5  UNL     1      18.136   1.357  51.022  1.00  0.00    -0.371 N 
HETATM   14  H18 UNL     1      17.385   2.038  51.335  1.00  0.00     0.161 HD
BRANCH  13  15
HETATM   15  C13 UNL     1      18.514   0.353  51.957  1.00  0.00     0.030 A 
HETATM   16  C14 UNL     1      17.648  -0.676  52.333  1.00  0.00     0.029 A 
HETATM   17  C15 UNL     1      18.066  -1.620  53.244  1.00  0.00     0.004 A 
HETATM   18  C16 UNL     1      19.322  -1.598  53.810  1.00  0.00     0.019 A 
HETATM   19  C17 UNL     1      20.216  -0.585  53.459  1.00  0.00     0.013 A 
HETATM   20 BR1  UNL     1      21.958  -0.517  54.218  1.00  0.00    -0.051 Br
HETATM   21  C18 UNL     1      19.763   0.359  52.534  1.00  0.00     0.048 A 
ENDBRANCH  13  15
ENDBRANCH  12  13
ENDBRANCH   9  12
BRANCH   1  22
HETATM   22  C7  UNL     1      24.476   4.983  48.961  1.00  0.00     0.118 A 
HETATM   23  C2  UNL     1      25.848   4.558  49.242  1.00  0.00    -0.061 A 
HETATM   24  C1  UNL     1      26.209   3.232  49.800  1.00  0.00     0.045 C 
HETATM   25  C3  UNL     1      26.861   5.397  49.000  1.00  0.00     0.004 A 
HETATM   26  C4  UNL     1      26.759   6.745  48.454  1.00  0.00    -0.004 A 
HETATM   27  C5  UNL     1      25.521   7.130  48.189  1.00  0.00    -0.024 A 
HETATM   28  C6  UNL     1      24.291   6.331  48.393  1.00  0.00     0.057 A 
ENDBRANCH   1  22
TORSDOF 4
ENDMDL
MODEL 8
REMARK VINA RESULT:      -7.3      3.896      5.488
REMARK  4 active torsions:
REMARK  status: ('A' for Active; 'I' for Inactive)
REMARK    1  A    between atoms: C7_7  and  N1_8 
REMARK       I    between atoms: N2_13  and  C11_14 
REMARK       I    between atoms: C11_14  and  N3_15 
REMARK    2  A    between atoms: N4_16  and  C12_17 
REMARK    3  A    between atoms: C12_17  and  N5_18 
REMARK    4  A    between atoms: N5_18  and  C13_19 
ROOT
HETATM    1  N1  UNL     1      22.261   3.307  51.569  1.00  0.00    -0.350 N 
HETATM    2  C8  UNL     1      21.039   3.767  52.245  1.00  0.00     0.136 C 
HETATM    3  C9  UNL     1      20.130   4.313  51.131  1.00  0.00     0.102 C 
HETATM    4  S1  UNL     1      21.363   5.401  50.334  1.00  0.00    -0.090 SA
HETATM    5  C10 UNL     1      22.809   4.459  50.887  1.00  0.00     0.184 C 
HETATM    6  N2  UNL     1      24.096   4.645  50.779  1.00  0.00    -0.039 NA
HETATM    7  C11 UNL     1      24.684   5.747  50.127  1.00  0.00     0.719 C 
HETATM    8  N3  UNL     1      25.114   5.524  48.779  1.00  0.00    -0.231 N 
HETATM    9  N4  UNL     1      24.781   6.862  50.810  1.00  0.00    -0.086 NA
HETATM   10  H14 UNL     1      26.036   5.033  48.950  1.00  0.00     0.174 HD
HETATM   11  H15 UNL     1      24.680   5.760  47.840  1.00  0.00     0.174 HD
ENDROOT
BRANCH   9  12
HETATM   12  C12 UNL     1      25.390   8.022  50.148  1.00  0.00     0.290 C 
BRANCH  12  13
HETATM   13  N5  UNL     1      26.782   8.157  50.450  1.00  0.00    -0.371 N 
HETATM   14  H18 UNL     1      27.138   8.034  51.442  1.00  0.00     0.161 HD
BRANCH  13  15
HETATM   15  C13 UNL     1      27.756   8.459  49.457  1.00  0.00     0.030 A 
HETATM   16  C14 UNL     1      27.949   7.650  48.336  1.00  0.00     0.029 A 
HETATM   17  C15 UNL     1      28.909   7.989  47.407  1.00  0.00     0.004 A 
HETATM   18  C16 UNL     1      29.699   9.111  47.535  1.00  0.00     0.019 A 
HETATM   19  C17 UNL     1      29.534   9.944  48.643  1.00  0.00     0.013 A 
HETATM   20 BR1  UNL     1      30.604  11.501  48.857  1.00  0.00    -0.051 Br
HETATM   21  C18 UNL     1      28.555   9.573  49.567  1.00  0.00     0.048 A 
ENDBRANCH  13  15
ENDBRANCH  12  13
ENDBRANCH   9  12
BRANCH   1  22
HETATM   22  C7  UNL     1      22.790   1.931  51.628  1.00  0.00     0.118 A 
HETATM   23  C2  UNL     1      21.896   0.975  50.972  1.00  0.00    -0.061 A 
HETATM   24  C1  UNL     1      21.295   1.187  49.632  1.00  0.00     0.045 C 
HETATM   25  C3  UNL     1      21.576  -0.164  51.595  1.00  0.00     0.004 A 
HETATM   26  C4  UNL     1      22.040  -0.593  52.909  1.00  0.00    -0.004 A 
HETATM   27  C5  UNL     1      22.857   0.263  53.501  1.00  0.00    -0.024 A 
HETATM   28  C6  UNL     1      23.314   1.561  52.956  1.00  0.00     0.057 A 
ENDBRANCH   1  22
TORSDOF 4
ENDMDL
MODEL 9
REMARK VINA RESULT:      -7.3      4.395      9.301
REMARK  4 active torsions:
REMARK  status: ('A' for Active; 'I' for Inactive)
REMARK    1  A    between atoms: C7_7  and  N1_8 
REMARK       I    between atoms: N2_13  and  C11_14 
REMARK       I    between atoms: C11_14  and  N3_15 
REMARK    2  A    between atoms: N4_16  and  C12_17 
REMARK    3  A    between atoms: C12_17  and  N5_18 
REMARK    4  A    between atoms: N5_18  and  C13_19 
ROOT
HETATM    1  N1  UNL     1      27.416   8.973  48.440  1.00  0.00    -0.350 N 
HETATM    2  C8  UNL     1      27.692   8.553  47.058  1.00  0.00     0.136 C 
HETATM    3  C9  UNL     1      26.393   8.816  46.278  1.00  0.00     0.102 C 
HETATM    4  S1  UNL     1      25.253   7.969  47.427  1.00  0.00    -0.090 SA
HETATM    5  C10 UNL     1      26.297   8.178  48.894  1.00  0.00     0.184 C 
HETATM    6  N2  UNL     1      26.201   7.768  50.128  1.00  0.00    -0.039 NA
HETATM    7  C11 UNL     1      25.135   6.992  50.625  1.00  0.00     0.719 C 
HETATM    8  N3  UNL     1      24.104   7.708  51.315  1.00  0.00    -0.231 N 
HETATM    9  N4  UNL     1      25.187   5.700  50.409  1.00  0.00    -0.086 NA
HETATM   10  H14 UNL     1      24.559   7.833  52.264  1.00  0.00     0.174 HD
HETATM   11  H15 UNL     1      23.143   8.045  51.018  1.00  0.00     0.174 HD
ENDROOT
BRANCH   9  12
HETATM   12  C12 UNL     1      24.084   4.874  50.918  1.00  0.00     0.290 C 
BRANCH  12  13
HETATM   13  N5  UNL     1      24.405   4.232  52.154  1.00  0.00    -0.371 N 
HETATM   14  H18 UNL     1      24.891   4.764  52.934  1.00  0.00     0.161 HD
BRANCH  13  15
HETATM   15  C13 UNL     1      24.099   2.866  52.412  1.00  0.00     0.030 A 
HETATM   16  C14 UNL     1      22.785   2.406  52.513  1.00  0.00     0.029 A 
HETATM   17  C15 UNL     1      22.548   1.073  52.765  1.00  0.00     0.004 A 
HETATM   18  C16 UNL     1      23.564   0.156  52.922  1.00  0.00     0.019 A 
HETATM   19  C17 UNL     1      24.891   0.579  52.827  1.00  0.00     0.013 A 
HETATM   20 BR1  UNL     1      26.323  -0.654  53.038  1.00  0.00    -0.051 Br
HETATM   21  C18 UNL     1      25.100   1.937  52.572  1.00  0.00     0.048 A 
ENDBRANCH  13  15
ENDBRANCH  12  13
ENDBRANCH   9  12
BRANCH   1  22
HETATM   22  C7  UNL     1      28.181   9.997  49.177  1.00  0.00     0.118 A 
HETATM   23  C2  UNL     1      27.970  11.337  48.627  1.00  0.00    -0.061 A 
HETATM   24  C1  UNL     1      26.636  11.897  48.298  1.00  0.00     0.045 C 
HETATM   25  C3  UNL     1      29.022  12.125  48.386  1.00  0.00     0.004 A 
HETATM   26  C4  UNL     1      30.423  11.798  48.627  1.00  0.00    -0.004 A 
HETATM   27  C5  UNL     1      30.619  10.592  49.135  1.00  0.00    -0.024 A 
HETATM   28  C6  UNL     1      29.572   9.598  49.462  1.00  0.00     0.057 A 
ENDBRANCH   1  22
TORSDOF 4
ENDMDL
