MODEL 1
REMARK VINA RESULT:      -9.1      0.000      0.000
REMARK  5 active torsions:
REMARK  status: ('A' for Active; 'I' for Inactive)
REMARK    1  A    between atoms: C11_12  and  O2_13 
REMARK    2  A    between atoms: O2_13  and  C12_14 
REMARK    3  A    between atoms: C12_14  and  C13_15 
REMARK    4  A    between atoms: C15_17  and  C16_18 
REMARK    5  A    between atoms: C16_18  and  O4_20 
ROOT
HETATM    1  C1  UNL     1      25.246  -0.277  53.823  1.00  0.00     0.023 C 
HETATM    2  C2  UNL     1      24.245   0.140  53.069  1.00  0.00    -0.020 C 
HETATM    3  C3  UNL     1      24.447   1.274  52.145  1.00  0.00     0.098 A 
HETATM    4  O1  UNL     1      25.494   1.755  51.501  1.00  0.00    -0.299 OA
HETATM    5  C4  UNL     1      25.136   2.792  50.799  1.00  0.00     0.141 A 
HETATM    6  C5  UNL     1      26.012   3.426  50.083  1.00  0.00    -0.040 C 
HETATM    7  C6  UNL     1      26.763   3.992  49.467  1.00  0.00    -0.089 C 
HETATM    8  C7  UNL     1      27.621   4.668  48.754  1.00  0.00     0.107 C 
HETATM    9  C8  UNL     1      26.752   5.707  48.558  1.00  0.00    -0.008 C 
HETATM   10  C9  UNL     1      25.786   6.431  49.196  1.00  0.00     0.000 C 
HETATM   11  C10 UNL     1      24.728   5.973  49.922  1.00  0.00     0.037 C 
HETATM   12  C11 UNL     1      23.519   5.490  50.288  1.00  0.00     0.086 C 
HETATM   13  C15 UNL     1      23.178   4.130  50.277  1.00  0.00     0.087 C 
HETATM   14  C18 UNL     1      23.800   3.088  50.921  1.00  0.00     0.043 A 
HETATM   15  C19 UNL     1      23.381   2.107  51.785  1.00  0.00     0.064 A 
HETATM   16  C20 UNL     1      22.013   1.894  52.309  1.00  0.00     0.193 C 
HETATM   17  O5  UNL     1      20.985   2.569  52.061  1.00  0.00    -0.287 OA
HETATM   18  C21 UNL     1      21.879   0.741  53.234  1.00  0.00     0.005 A 
HETATM   19  C22 UNL     1      21.079   0.463  54.248  1.00  0.00     0.012 A 
HETATM   20  C23 UNL     1      21.469  -0.869  54.759  1.00  0.00    -0.002 A 
HETATM   21  C24 UNL     1      22.494  -1.339  54.026  1.00  0.00    -0.012 A 
HETATM   22  C25 UNL     1      22.857  -0.383  52.993  1.00  0.00     0.080 A 
ENDROOT
BRANCH  12  23
HETATM   23  O2  UNL     1      22.398   6.031  50.722  1.00  0.00    -0.350 OA
BRANCH  23  24
HETATM   24  C12 UNL     1      21.732   7.204  50.807  1.00  0.00     0.175 C 
BRANCH  24  25
HETATM   25  C13 UNL     1      21.477   7.962  49.531  1.00  0.00     0.022 C 
HETATM   26  C14 UNL     1      22.537   8.924  49.124  1.00  0.00     0.007 C 
ENDBRANCH  24  25
ENDBRANCH  23  24
ENDBRANCH  12  23
BRANCH  13  27
HETATM   27  C16 UNL     1      22.043   3.629  49.530  1.00  0.00     0.296 C 
HETATM   28  O3  UNL     1      22.678   3.526  48.422  1.00  0.00    -0.259 OA
BRANCH  27  29
HETATM   29  O4  UNL     1      20.823   3.177  49.075  1.00  0.00    -0.322 OA
HETATM   30  C17 UNL     1      20.793   1.832  48.588  1.00  0.00     0.213 C 
ENDBRANCH  27  29
ENDBRANCH  13  27
TORSDOF 5
ENDMDL
MODEL 2
REMARK VINA RESULT:      -9.0      2.327      5.915
REMARK  5 active torsions:
REMARK  status: ('A' for Active; 'I' for Inactive)
REMARK    1  A    between atoms: C11_12  and  O2_13 
REMARK    2  A    between atoms: O2_13  and  C12_14 
REMARK    3  A    between atoms: C12_14  and  C13_15 
REMARK    4  A    between atoms: C15_17  and  C16_18 
REMARK    5  A    between atoms: C16_18  and  O4_20 
ROOT
HETATM    1  C1  UNL     1      25.636  -0.893  54.081  1.00  0.00     0.023 C 
HETATM    2  C2  UNL     1      25.116   0.271  53.738  1.00  0.00    -0.020 C 
HETATM    3  C3  UNL     1      23.689   0.354  53.361  1.00  0.00     0.098 A 
HETATM    4  O1  UNL     1      22.616  -0.341  53.684  1.00  0.00    -0.299 OA
HETATM    5  C4  UNL     1      21.578   0.147  53.067  1.00  0.00     0.141 A 
HETATM    6  C5  UNL     1      20.408  -0.387  53.240  1.00  0.00    -0.040 C 
HETATM    7  C6  UNL     1      19.391  -0.847  53.371  1.00  0.00    -0.089 C 
HETATM    8  C7  UNL     1      18.204  -1.372  53.502  1.00  0.00     0.107 C 
HETATM    9  C8  UNL     1      17.693  -0.665  52.447  1.00  0.00    -0.008 C 
HETATM   10  C9  UNL     1      18.023  -0.208  51.203  1.00  0.00     0.000 C 
HETATM   11  C10 UNL     1      19.148   0.457  50.819  1.00  0.00     0.037 C 
HETATM   12  C11 UNL     1      20.063   1.421  50.569  1.00  0.00     0.086 C 
HETATM   13  C15 UNL     1      20.963   1.917  51.523  1.00  0.00     0.087 C 
HETATM   14  C18 UNL     1      21.883   1.225  52.271  1.00  0.00     0.043 A 
HETATM   15  C19 UNL     1      23.237   1.338  52.475  1.00  0.00     0.064 A 
HETATM   16  C20 UNL     1      24.155   2.333  51.876  1.00  0.00     0.193 C 
HETATM   17  O5  UNL     1      23.868   3.255  51.074  1.00  0.00    -0.287 OA
HETATM   18  C21 UNL     1      25.573   2.192  52.293  1.00  0.00     0.005 A 
HETATM   19  C22 UNL     1      26.732   2.473  51.723  1.00  0.00     0.012 A 
HETATM   20  C23 UNL     1      27.792   2.086  52.678  1.00  0.00    -0.002 A 
HETATM   21  C24 UNL     1      27.223   1.584  53.789  1.00  0.00    -0.012 A 
HETATM   22  C25 UNL     1      25.775   1.600  53.666  1.00  0.00     0.080 A 
ENDROOT
BRANCH  12  23
HETATM   23  O2  UNL     1      20.394   2.134  49.511  1.00  0.00    -0.350 OA
BRANCH  23  24
HETATM   24  C12 UNL     1      20.870   2.030  48.251  1.00  0.00     0.175 C 
BRANCH  24  25
HETATM   25  C13 UNL     1      22.309   2.401  48.009  1.00  0.00     0.022 C 
HETATM   26  C14 UNL     1      22.584   3.853  47.833  1.00  0.00     0.007 C 
ENDBRANCH  24  25
ENDBRANCH  23  24
ENDBRANCH  12  23
BRANCH  13  27
HETATM   27  C16 UNL     1      21.034   3.326  51.853  1.00  0.00     0.296 C 
HETATM   28  O3  UNL     1      20.076   3.287  52.704  1.00  0.00    -0.259 OA
BRANCH  27  29
HETATM   29  O4  UNL     1      21.318   4.669  51.972  1.00  0.00    -0.322 OA
HETATM   30  C17 UNL     1      21.089   5.465  50.805  1.00  0.00     0.213 C 
ENDBRANCH  27  29
ENDBRANCH  13  27
TORSDOF 5
ENDMDL
MODEL 3
REMARK VINA RESULT:      -8.3      2.081      6.308
REMARK  5 active torsions:
REMARK  status: ('A' for Active; 'I' for Inactive)
REMARK    1  A    between atoms: C11_12  and  O2_13 
REMARK    2  A    between atoms: O2_13  and  C12_14 
REMARK    3  A    between atoms: C12_14  and  C13_15 
REMARK    4  A    between atoms: C15_17  and  C16_18 
REMARK    5  A    between atoms: C16_18  and  O4_20 
ROOT
HETATM    1  C1  UNL     1      28.025   5.427  48.208  1.00  0.00     0.023 C 
HETATM    2  C2  UNL     1      26.905   5.548  48.898  1.00  0.00    -0.020 C 
HETATM    3  C3  UNL     1      26.503   4.477  49.834  1.00  0.00     0.098 A 
HETATM    4  O1  UNL     1      27.167   3.584  50.542  1.00  0.00    -0.299 OA
HETATM    5  C4  UNL     1      26.329   2.855  51.221  1.00  0.00     0.141 A 
HETATM    6  C5  UNL     1      26.768   1.907  51.991  1.00  0.00    -0.040 C 
HETATM    7  C6  UNL     1      27.132   1.075  52.653  1.00  0.00    -0.089 C 
HETATM    8  C7  UNL     1      27.535   0.099  53.419  1.00  0.00     0.107 C 
HETATM    9  C8  UNL     1      26.272  -0.409  53.561  1.00  0.00    -0.008 C 
HETATM   10  C9  UNL     1      25.116  -0.619  52.864  1.00  0.00     0.000 C 
HETATM   11  C10 UNL     1      24.436   0.258  52.074  1.00  0.00     0.037 C 
HETATM   12  C11 UNL     1      23.615   1.237  51.632  1.00  0.00     0.086 C 
HETATM   13  C15 UNL     1      23.948   2.599  51.621  1.00  0.00     0.087 C 
HETATM   14  C18 UNL     1      25.018   3.211  51.016  1.00  0.00     0.043 A 
HETATM   15  C19 UNL     1      25.154   4.249  50.127  1.00  0.00     0.064 A 
HETATM   16  C20 UNL     1      24.075   5.059  49.518  1.00  0.00     0.193 C 
HETATM   17  O5  UNL     1      22.838   4.948  49.702  1.00  0.00    -0.287 OA
HETATM   18  C21 UNL     1      24.545   6.114  48.586  1.00  0.00     0.005 A 
HETATM   19  C22 UNL     1      24.025   6.702  47.523  1.00  0.00     0.012 A 
HETATM   20  C23 UNL     1      25.018   7.682  47.037  1.00  0.00    -0.002 A 
HETATM   21  C24 UNL     1      26.103   7.643  47.833  1.00  0.00    -0.012 A 
HETATM   22  C25 UNL     1      25.920   6.659  48.887  1.00  0.00     0.080 A 
ENDROOT
BRANCH  12  23
HETATM   23  O2  UNL     1      22.396   1.268  51.130  1.00  0.00    -0.350 OA
BRANCH  23  24
HETATM   24  C12 UNL     1      21.585   0.658  50.238  1.00  0.00     0.175 C 
BRANCH  24  25
HETATM   25  C13 UNL     1      21.182   1.430  49.010  1.00  0.00     0.022 C 
HETATM   26  C14 UNL     1      22.293   1.837  48.106  1.00  0.00     0.007 C 
ENDBRANCH  24  25
ENDBRANCH  23  24
ENDBRANCH  12  23
BRANCH  13  27
HETATM   27  C16 UNL     1      23.139   3.594  52.295  1.00  0.00     0.296 C 
HETATM   28  O3  UNL     1      23.928   3.714  53.298  1.00  0.00    -0.259 OA
BRANCH  27  29
HETATM   29  O4  UNL     1      22.193   4.508  52.705  1.00  0.00    -0.322 OA
HETATM   30  C17 UNL     1      20.841   4.225  52.332  1.00  0.00     0.213 C 
ENDBRANCH  27  29
ENDBRANCH  13  27
TORSDOF 5
ENDMDL
MODEL 4
REMARK VINA RESULT:      -8.2      2.010      6.811
REMARK  5 active torsions:
REMARK  status: ('A' for Active; 'I' for Inactive)
REMARK    1  A    between atoms: C11_12  and  O2_13 
REMARK    2  A    between atoms: O2_13  and  C12_14 
REMARK    3  A    between atoms: C12_14  and  C13_15 
REMARK    4  A    between atoms: C15_17  and  C16_18 
REMARK    5  A    between atoms: C16_18  and  O4_20 
ROOT
HETATM    1  C1  UNL     1      29.446   5.183  47.895  1.00  0.00     0.023 C 
HETATM    2  C2  UNL     1      28.381   5.831  48.331  1.00  0.00    -0.020 C 
HETATM    3  C3  UNL     1      27.320   5.097  49.051  1.00  0.00     0.098 A 
HETATM    4  O1  UNL     1      27.304   4.011  49.799  1.00  0.00    -0.299 OA
HETATM    5  C4  UNL     1      26.089   3.778  50.205  1.00  0.00     0.141 A 
HETATM    6  C5  UNL     1      25.841   2.751  50.958  1.00  0.00    -0.040 C 
HETATM    7  C6  UNL     1      25.609   1.859  51.602  1.00  0.00    -0.089 C 
HETATM    8  C7  UNL     1      25.319   0.824  52.341  1.00  0.00     0.107 C 
HETATM    9  C8  UNL     1      23.972   0.976  52.154  1.00  0.00    -0.008 C 
HETATM   10  C9  UNL     1      23.054   1.323  51.204  1.00  0.00     0.000 C 
HETATM   11  C10 UNL     1      23.068   2.401  50.371  1.00  0.00     0.037 C 
HETATM   12  C11 UNL     1      22.924   3.642  49.855  1.00  0.00     0.086 C 
HETATM   13  C15 UNL     1      23.842   4.685  50.047  1.00  0.00     0.087 C 
HETATM   14  C18 UNL     1      25.184   4.707  49.753  1.00  0.00     0.043 A 
HETATM   15  C19 UNL     1      25.992   5.539  49.017  1.00  0.00     0.064 A 
HETATM   16  C20 UNL     1      25.591   6.751  48.267  1.00  0.00     0.193 C 
HETATM   17  O5  UNL     1      24.440   7.241  48.164  1.00  0.00    -0.287 OA
HETATM   18  C21 UNL     1      26.703   7.439  47.565  1.00  0.00     0.005 A 
HETATM   19  C22 UNL     1      26.784   8.181  46.476  1.00  0.00     0.012 A 
HETATM   20  C23 UNL     1      28.202   8.566  46.314  1.00  0.00    -0.002 A 
HETATM   21  C24 UNL     1      28.920   8.035  47.321  1.00  0.00    -0.012 A 
HETATM   22  C25 UNL     1      28.057   7.276  48.211  1.00  0.00     0.080 A 
ENDROOT
BRANCH  12  23
HETATM   23  O2  UNL     1      22.018   4.236  49.103  1.00  0.00    -0.350 OA
BRANCH  23  24
HETATM   24  C12 UNL     1      21.364   4.133  47.926  1.00  0.00     0.175 C 
BRANCH  24  25
HETATM   25  C13 UNL     1      22.058   4.635  46.688  1.00  0.00     0.022 C 
HETATM   26  C14 UNL     1      21.869   3.815  45.460  1.00  0.00     0.007 C 
ENDBRANCH  24  25
ENDBRANCH  23  24
ENDBRANCH  12  23
BRANCH  13  27
HETATM   27  C16 UNL     1      23.452   5.958  50.619  1.00  0.00     0.296 C 
HETATM   28  O3  UNL     1      23.739   5.628  51.823  1.00  0.00    -0.259 OA
BRANCH  27  29
HETATM   29  O4  UNL     1      23.017   7.237  50.887  1.00  0.00    -0.322 OA
HETATM   30  C17 UNL     1      21.671   7.536  50.503  1.00  0.00     0.213 C 
ENDBRANCH  27  29
ENDBRANCH  13  27
TORSDOF 5
ENDMDL
MODEL 5
REMARK VINA RESULT:      -8.0      2.540      4.633
REMARK  5 active torsions:
REMARK  status: ('A' for Active; 'I' for Inactive)
REMARK    1  A    between atoms: C11_12  and  O2_13 
REMARK    2  A    between atoms: O2_13  and  C12_14 
REMARK    3  A    between atoms: C12_14  and  C13_15 
REMARK    4  A    between atoms: C15_17  and  C16_18 
REMARK    5  A    between atoms: C16_18  and  O4_20 
ROOT
HETATM    1  C1  UNL     1      18.358  -1.301  53.457  1.00  0.00     0.023 C 
HETATM    2  C2  UNL     1      18.825  -0.526  52.495  1.00  0.00    -0.020 C 
HETATM    3  C3  UNL     1      20.225  -0.055  52.549  1.00  0.00     0.098 A 
HETATM    4  O1  UNL     1      21.334  -0.540  53.073  1.00  0.00    -0.299 OA
HETATM    5  C4  UNL     1      22.321   0.277  52.839  1.00  0.00     0.141 A 
HETATM    6  C5  UNL     1      23.512  -0.003  53.269  1.00  0.00    -0.040 C 
HETATM    7  C6  UNL     1      24.548  -0.227  53.644  1.00  0.00    -0.089 C 
HETATM    8  C7  UNL     1      25.754  -0.465  54.081  1.00  0.00     0.107 C 
HETATM    9  C8  UNL     1      26.184   0.805  53.804  1.00  0.00    -0.008 C 
HETATM   10  C9  UNL     1      25.771   2.106  53.833  1.00  0.00     0.000 C 
HETATM   11  C10 UNL     1      24.607   2.634  53.359  1.00  0.00     0.037 C 
HETATM   12  C11 UNL     1      23.654   3.158  52.556  1.00  0.00     0.086 C 
HETATM   13  C15 UNL     1      22.797   2.394  51.750  1.00  0.00     0.087 C 
HETATM   14  C18 UNL     1      21.941   1.389  52.127  1.00  0.00     0.043 A 
HETATM   15  C19 UNL     1      20.599   1.155  51.954  1.00  0.00     0.064 A 
HETATM   16  C20 UNL     1      19.620   2.014  51.249  1.00  0.00     0.193 C 
HETATM   17  O5  UNL     1      19.835   3.113  50.681  1.00  0.00    -0.287 OA
HETATM   18  C21 UNL     1      18.233   1.486  51.234  1.00  0.00     0.005 A 
HETATM   19  C22 UNL     1      17.036   2.044  51.185  1.00  0.00     0.012 A 
HETATM   20  C23 UNL     1      16.044   0.948  51.203  1.00  0.00    -0.002 A 
HETATM   21  C24 UNL     1      16.689  -0.231  51.263  1.00  0.00    -0.012 A 
HETATM   22  C25 UNL     1      18.127  -0.018  51.286  1.00  0.00     0.080 A 
ENDROOT
BRANCH  12  23
HETATM   23  O2  UNL     1      23.244   4.380  52.279  1.00  0.00    -0.350 OA
BRANCH  23  24
HETATM   24  C12 UNL     1      23.684   5.639  52.068  1.00  0.00     0.175 C 
BRANCH  24  25
HETATM   25  C13 UNL     1      24.018   6.041  50.656  1.00  0.00     0.022 C 
HETATM   26  C14 UNL     1      25.229   5.405  50.069  1.00  0.00     0.007 C 
ENDBRANCH  24  25
ENDBRANCH  23  24
ENDBRANCH  12  23
BRANCH  13  27
HETATM   27  C16 UNL     1      22.707   2.595  50.318  1.00  0.00     0.296 C 
HETATM   28  O3  UNL     1      23.854   2.082  50.065  1.00  0.00    -0.259 OA
BRANCH  27  29
HETATM   29  O4  UNL     1      22.362   2.902  49.020  1.00  0.00    -0.322 OA
HETATM   30  C17 UNL     1      22.028   1.793  48.180  1.00  0.00     0.213 C 
ENDBRANCH  27  29
ENDBRANCH  13  27
TORSDOF 5
ENDMDL
MODEL 6
REMARK VINA RESULT:      -7.8      4.658      9.106
REMARK  5 active torsions:
REMARK  status: ('A' for Active; 'I' for Inactive)
REMARK    1  A    between atoms: C11_12  and  O2_13 
REMARK    2  A    between atoms: O2_13  and  C12_14 
REMARK    3  A    between atoms: C12_14  and  C13_15 
REMARK    4  A    between atoms: C15_17  and  C16_18 
REMARK    5  A    between atoms: C16_18  and  O4_20 
ROOT
HETATM    1  C1  UNL     1      31.866   4.022  47.023  1.00  0.00     0.023 C 
HETATM    2  C2  UNL     1      31.509   5.225  47.436  1.00  0.00    -0.020 C 
HETATM    3  C3  UNL     1      30.104   5.482  47.815  1.00  0.00     0.098 A 
HETATM    4  O1  UNL     1      29.133   4.729  48.294  1.00  0.00    -0.299 OA
HETATM    5  C4  UNL     1      28.063   5.452  48.461  1.00  0.00     0.141 A 
HETATM    6  C5  UNL     1      26.979   4.910  48.925  1.00  0.00    -0.040 C 
HETATM    7  C6  UNL     1      26.029   4.452  49.315  1.00  0.00    -0.089 C 
HETATM    8  C7  UNL     1      24.915   3.937  49.758  1.00  0.00     0.107 C 
HETATM    9  C8  UNL     1      24.183   5.043  49.418  1.00  0.00    -0.008 C 
HETATM   10  C9  UNL     1      24.070   5.997  48.448  1.00  0.00     0.000 C 
HETATM   11  C10 UNL     1      25.057   6.749  47.885  1.00  0.00     0.037 C 
HETATM   12  C11 UNL     1      25.972   7.713  47.641  1.00  0.00     0.086 C 
HETATM   13  C15 UNL     1      27.264   7.728  48.188  1.00  0.00     0.087 C 
HETATM   14  C18 UNL     1      28.240   6.766  48.101  1.00  0.00     0.043 A 
HETATM   15  C19 UNL     1      29.550   6.761  47.691  1.00  0.00     0.064 A 
HETATM   16  C20 UNL     1      30.336   7.907  47.178  1.00  0.00     0.193 C 
HETATM   17  O5  UNL     1      29.950   9.091  47.023  1.00  0.00    -0.287 OA
HETATM   18  C21 UNL     1      31.737   7.580  46.812  1.00  0.00     0.005 A 
HETATM   19  C22 UNL     1      32.597   8.069  45.937  1.00  0.00     0.012 A 
HETATM   20  C23 UNL     1      33.845   7.288  46.070  1.00  0.00    -0.002 A 
HETATM   21  C24 UNL     1      33.682   6.355  47.025  1.00  0.00    -0.012 A 
HETATM   22  C25 UNL     1      32.346   6.441  47.593  1.00  0.00     0.080 A 
ENDROOT
BRANCH  12  23
HETATM   23  O2  UNL     1      25.989   8.816  46.918  1.00  0.00    -0.350 OA
BRANCH  23  24
HETATM   24  C12 UNL     1      25.578   9.335  45.741  1.00  0.00     0.175 C 
BRANCH  24  25
HETATM   25  C13 UNL     1      26.220   8.819  44.481  1.00  0.00     0.022 C 
HETATM   26  C14 UNL     1      27.690   8.592  44.547  1.00  0.00     0.007 C 
ENDBRANCH  24  25
ENDBRANCH  23  24
ENDBRANCH  12  23
BRANCH  13  27
HETATM   27  C16 UNL     1      27.756   8.847  48.966  1.00  0.00     0.296 C 
HETATM   28  O3  UNL     1      27.122   8.525  50.032  1.00  0.00    -0.259 OA
BRANCH  27  29
HETATM   29  O4  UNL     1      28.366   9.980  49.460  1.00  0.00    -0.322 OA
HETATM   30  C17 UNL     1      27.992  11.215  48.843  1.00  0.00     0.213 C 
ENDBRANCH  27  29
ENDBRANCH  13  27
TORSDOF 5
ENDMDL
MODEL 7
REMARK VINA RESULT:      -7.5      4.634      7.638
REMARK  5 active torsions:
REMARK  status: ('A' for Active; 'I' for Inactive)
REMARK    1  A    between atoms: C11_12  and  O2_13 
REMARK    2  A    between atoms: O2_13  and  C12_14 
REMARK    3  A    between atoms: C12_14  and  C13_15 
REMARK    4  A    between atoms: C15_17  and  C16_18 
REMARK    5  A    between atoms: C16_18  and  O4_20 
ROOT
HETATM    1  C1  UNL     1      25.925   3.490  49.927  1.00  0.00     0.023 C 
HETATM    2  C2  UNL     1      25.933   4.614  49.233  1.00  0.00    -0.020 C 
HETATM    3  C3  UNL     1      27.219   5.191  48.788  1.00  0.00     0.098 A 
HETATM    4  O1  UNL     1      28.399   4.680  48.497  1.00  0.00    -0.299 OA
HETATM    5  C4  UNL     1      29.214   5.635  48.150  1.00  0.00     0.141 A 
HETATM    6  C5  UNL     1      30.438   5.357  47.820  1.00  0.00    -0.040 C 
HETATM    7  C6  UNL     1      31.504   5.132  47.543  1.00  0.00    -0.089 C 
HETATM    8  C7  UNL     1      32.747   4.893  47.228  1.00  0.00     0.107 C 
HETATM    9  C8  UNL     1      33.093   6.216  47.283  1.00  0.00    -0.008 C 
HETATM   10  C9  UNL     1      32.853   7.358  47.992  1.00  0.00     0.000 C 
HETATM   11  C10 UNL     1      31.653   7.884  48.366  1.00  0.00     0.037 C 
HETATM   12  C11 UNL     1      30.478   8.551  48.378  1.00  0.00     0.086 C 
HETATM   13  C15 UNL     1      29.279   8.044  47.856  1.00  0.00     0.087 C 
HETATM   14  C18 UNL     1      28.631   6.878  48.183  1.00  0.00     0.043 A 
HETATM   15  C19 UNL     1      27.357   6.570  48.594  1.00  0.00     0.064 A 
HETATM   16  C20 UNL     1      26.235   7.508  48.822  1.00  0.00     0.193 C 
HETATM   17  O5  UNL     1      26.239   8.755  48.682  1.00  0.00    -0.287 OA
HETATM   18  C21 UNL     1      24.974   6.865  49.269  1.00  0.00     0.005 A 
HETATM   19  C22 UNL     1      23.952   7.258  50.008  1.00  0.00     0.012 A 
HETATM   20  C23 UNL     1      23.005   6.125  50.081  1.00  0.00    -0.002 A 
HETATM   21  C24 UNL     1      23.500   5.091  49.378  1.00  0.00    -0.012 A 
HETATM   22  C25 UNL     1      24.783   5.445  48.794  1.00  0.00     0.080 A 
ENDROOT
BRANCH  12  23
HETATM   23  O2  UNL     1      30.086   9.733  48.813  1.00  0.00    -0.350 OA
BRANCH  23  24
HETATM   24  C12 UNL     1      30.509  11.002  49.005  1.00  0.00     0.175 C 
BRANCH  24  25
HETATM   25  C13 UNL     1      29.609  12.120  48.551  1.00  0.00     0.022 C 
HETATM   26  C14 UNL     1      28.148  11.875  48.691  1.00  0.00     0.007 C 
ENDBRANCH  24  25
ENDBRANCH  23  24
ENDBRANCH  12  23
BRANCH  13  27
HETATM   27  C16 UNL     1      28.527   8.746  46.835  1.00  0.00     0.296 C 
HETATM   28  O3  UNL     1      29.250   8.330  45.862  1.00  0.00    -0.259 OA
BRANCH  27  29
HETATM   29  O4  UNL     1      27.651   9.504  46.090  1.00  0.00    -0.322 OA
HETATM   30  C17 UNL     1      28.242  10.376  45.122  1.00  0.00     0.213 C 
ENDBRANCH  27  29
ENDBRANCH  13  27
TORSDOF 5
ENDMDL
MODEL 8
REMARK VINA RESULT:      -7.2      2.101      6.541
REMARK  5 active torsions:
REMARK  status: ('A' for Active; 'I' for Inactive)
REMARK    1  A    between atoms: C11_12  and  O2_13 
REMARK    2  A    between atoms: O2_13  and  C12_14 
REMARK    3  A    between atoms: C12_14  and  C13_15 
REMARK    4  A    between atoms: C15_17  and  C16_18 
REMARK    5  A    between atoms: C16_18  and  O4_20 
ROOT
HETATM    1  C1  UNL     1      27.306   4.382  48.828  1.00  0.00     0.023 C 
HETATM    2  C2  UNL     1      26.228   5.126  48.999  1.00  0.00    -0.020 C 
HETATM    3  C3  UNL     1      24.933   4.481  49.302  1.00  0.00     0.098 A 
HETATM    4  O1  UNL     1      24.589   3.357  49.900  1.00  0.00    -0.299 OA
HETATM    5  C4  UNL     1      23.291   3.249  49.910  1.00  0.00     0.141 A 
HETATM    6  C5  UNL     1      22.730   2.212  50.452  1.00  0.00    -0.040 C 
HETATM    7  C6  UNL     1      22.230   1.314  50.907  1.00  0.00    -0.089 C 
HETATM    8  C7  UNL     1      21.632   0.275  51.422  1.00  0.00     0.107 C 
HETATM    9  C8  UNL     1      20.424   0.603  50.868  1.00  0.00    -0.008 C 
HETATM   10  C9  UNL     1      19.872   1.124  49.733  1.00  0.00     0.000 C 
HETATM   11  C10 UNL     1      20.240   2.246  49.053  1.00  0.00     0.037 C 
HETATM   12  C11 UNL     1      20.379   3.527  48.645  1.00  0.00     0.086 C 
HETATM   13  C15 UNL     1      21.294   4.433  49.199  1.00  0.00     0.087 C 
HETATM   14  C18 UNL     1      22.658   4.310  49.311  1.00  0.00     0.043 A 
HETATM   15  C19 UNL     1      23.727   5.084  48.929  1.00  0.00     0.064 A 
HETATM   16  C20 UNL     1      23.688   6.384  48.221  1.00  0.00     0.193 C 
HETATM   17  O5  UNL     1      22.675   7.017  47.838  1.00  0.00    -0.287 OA
HETATM   18  C21 UNL     1      25.021   6.975  47.945  1.00  0.00     0.005 A 
HETATM   19  C22 UNL     1      25.497   7.774  47.006  1.00  0.00     0.012 A 
HETATM   20  C23 UNL     1      26.929   7.992  47.303  1.00  0.00    -0.002 A 
HETATM   21  C24 UNL     1      27.257   7.310  48.416  1.00  0.00    -0.012 A 
HETATM   22  C25 UNL     1      26.097   6.604  48.936  1.00  0.00     0.080 A 
ENDROOT
BRANCH  12  23
HETATM   23  O2  UNL     1      19.802   4.276  47.726  1.00  0.00    -0.350 OA
BRANCH  23  24
HETATM   24  C12 UNL     1      19.820   4.562  46.406  1.00  0.00     0.175 C 
BRANCH  24  25
HETATM   25  C13 UNL     1      21.148   4.876  45.771  1.00  0.00     0.022 C 
HETATM   26  C14 UNL     1      21.956   3.702  45.342  1.00  0.00     0.007 C 
ENDBRANCH  24  25
ENDBRANCH  23  24
ENDBRANCH  12  23
BRANCH  13  27
HETATM   27  C16 UNL     1      20.876   5.703  49.758  1.00  0.00     0.296 C 
HETATM   28  O3  UNL     1      20.703   5.248  50.943  1.00  0.00    -0.259 OA
BRANCH  27  29
HETATM   29  O4  UNL     1      20.520   7.008  50.018  1.00  0.00    -0.322 OA
HETATM   30  C17 UNL     1      21.397   7.739  50.880  1.00  0.00     0.213 C 
ENDBRANCH  27  29
ENDBRANCH  13  27
TORSDOF 5
ENDMDL
MODEL 9
REMARK VINA RESULT:      -7.0      2.345      3.378
REMARK  5 active torsions:
REMARK  status: ('A' for Active; 'I' for Inactive)
REMARK    1  A    between atoms: C11_12  and  O2_13 
REMARK    2  A    between atoms: O2_13  and  C12_14 
REMARK    3  A    between atoms: C12_14  and  C13_15 
REMARK    4  A    between atoms: C15_17  and  C16_18 
REMARK    5  A    between atoms: C16_18  and  O4_20 
ROOT
HETATM    1  C1  UNL     1      19.769  -0.591  53.708  1.00  0.00     0.023 C 
HETATM    2  C2  UNL     1      19.673  -0.109  52.482  1.00  0.00    -0.020 C 
HETATM    3  C3  UNL     1      20.808   0.634  51.897  1.00  0.00     0.098 A 
HETATM    4  O1  UNL     1      22.114   0.601  52.077  1.00  0.00    -0.299 OA
HETATM    5  C4  UNL     1      22.684   1.478  51.301  1.00  0.00     0.141 A 
HETATM    6  C5  UNL     1      23.974   1.617  51.315  1.00  0.00    -0.040 C 
HETATM    7  C6  UNL     1      25.090   1.757  51.324  1.00  0.00    -0.089 C 
HETATM    8  C7  UNL     1      26.381   1.941  51.328  1.00  0.00     0.107 C 
HETATM    9  C8  UNL     1      26.292   3.101  50.608  1.00  0.00    -0.008 C 
HETATM   10  C9  UNL     1      25.519   4.217  50.463  1.00  0.00     0.000 C 
HETATM   11  C10 UNL     1      24.164   4.295  50.338  1.00  0.00     0.037 C 
HETATM   12  C11 UNL     1      22.907   4.302  49.841  1.00  0.00     0.086 C 
HETATM   13  C15 UNL     1      22.140   3.148  49.625  1.00  0.00     0.087 C 
HETATM   14  C18 UNL     1      21.788   2.175  50.528  1.00  0.00     0.043 A 
HETATM   15  C19 UNL     1      20.596   1.620  50.926  1.00  0.00     0.064 A 
HETATM   16  C20 UNL     1      19.239   1.963  50.444  1.00  0.00     0.193 C 
HETATM   17  O5  UNL     1      18.927   2.821  49.584  1.00  0.00    -0.287 OA
HETATM   18  C21 UNL     1      18.145   1.182  51.074  1.00  0.00     0.005 A 
HETATM   19  C22 UNL     1      16.873   1.425  51.334  1.00  0.00     0.012 A 
HETATM   20  C23 UNL     1      16.323   0.219  51.988  1.00  0.00    -0.002 A 
HETATM   21  C24 UNL     1      17.294  -0.706  52.095  1.00  0.00    -0.012 A 
HETATM   22  C25 UNL     1      18.536  -0.202  51.532  1.00  0.00     0.080 A 
ENDROOT
BRANCH  12  23
HETATM   23  O2  UNL     1      22.073   5.242  49.442  1.00  0.00    -0.350 OA
BRANCH  23  24
HETATM   24  C12 UNL     1      21.256   6.217  49.896  1.00  0.00     0.175 C 
BRANCH  24  25
HETATM   25  C13 UNL     1      21.846   7.264  50.803  1.00  0.00     0.022 C 
HETATM   26  C14 UNL     1      23.063   7.953  50.293  1.00  0.00     0.007 C 
ENDBRANCH  24  25
ENDBRANCH  23  24
ENDBRANCH  12  23
BRANCH  13  27
HETATM   27  C16 UNL     1      21.585   2.827  48.326  1.00  0.00     0.296 C 
HETATM   28  O3  UNL     1      22.658   2.287  47.880  1.00  0.00    -0.259 OA
BRANCH  27  29
HETATM   29  O4  UNL     1      20.816   2.645  47.197  1.00  0.00    -0.322 OA
HETATM   30  C17 UNL     1      20.864   3.696  46.228  1.00  0.00     0.213 C 
ENDBRANCH  27  29
ENDBRANCH  13  27
TORSDOF 5
ENDMDL
