MODEL 1
REMARK VINA RESULT:      -7.9      0.000      0.000
REMARK  4 active torsions:
REMARK  status: ('A' for Active; 'I' for Inactive)
REMARK    1  A    between atoms: O1_2  and  C2_3 
REMARK    2  A    between atoms: C6_9  and  O2_10 
REMARK    3  A    between atoms: O2_10  and  C7_11 
REMARK    4  A    between atoms: C15_20  and  O3_21 
ROOT
HETATM    1  C2  UNL     1      20.331   0.130  52.677  1.00  0.00     0.103 A 
HETATM    2  C3  UNL     1      20.614  -0.524  53.860  1.00  0.00     0.072 A 
HETATM    3  C4  UNL     1      21.957  -0.647  54.157  1.00  0.00     0.075 A 
HETATM    4  N1  UNL     1      22.261  -1.284  55.309  1.00  0.00    -0.241 NA
HETATM    5  C5  UNL     1      23.507  -1.476  55.725  1.00  0.00     0.236 A 
HETATM    6  N2  UNL     1      24.508  -1.016  54.965  1.00  0.00    -0.217 NA
HETATM    7  C6  UNL     1      24.320  -0.372  53.804  1.00  0.00     0.183 A 
HETATM    8  C13 UNL     1      23.014  -0.187  53.397  1.00  0.00     0.049 A 
HETATM    9  C14 UNL     1      22.649   0.456  52.231  1.00  0.00     0.057 A 
HETATM   10  C15 UNL     1      21.331   0.618  51.865  1.00  0.00     0.102 A 
ENDROOT
BRANCH   7  11
HETATM   11  O2  UNL     1      25.245   0.155  52.920  1.00  0.00    -0.291 OA
BRANCH  11  12
HETATM   12  C7  UNL     1      26.566   0.394  53.163  1.00  0.00     0.079 A 
HETATM   13  C8  UNL     1      26.817   1.767  53.251  1.00  0.00     0.037 A 
HETATM   14  C9  UNL     1      28.089   2.275  53.492  1.00  0.00     0.004 A 
HETATM   15  C10 UNL     1      29.119   1.355  53.647  1.00  0.00     0.024 A 
HETATM   16  C11 UNL     1      28.902  -0.013  53.565  1.00  0.00     0.036 A 
HETATM   17 CL1  UNL     1      30.167  -1.203  53.754  1.00  0.00    -0.084 Cl
HETATM   18  C12 UNL     1      27.621  -0.448  53.324  1.00  0.00     0.061 A 
ENDBRANCH  11  12
ENDBRANCH   7  11
BRANCH  10  19
HETATM   19  O3  UNL     1      20.949   1.261  50.697  1.00  0.00    -0.353 OA
HETATM   20  C16 UNL     1      21.511   1.055  49.440  1.00  0.00     0.210 C 
ENDBRANCH  10  19
BRANCH   1  21
HETATM   21  O1  UNL     1      18.996   0.285  52.321  1.00  0.00    -0.353 OA
HETATM   22  C1  UNL     1      18.073  -0.751  52.576  1.00  0.00     0.210 C 
ENDBRANCH   1  21
TORSDOF 4
ENDMDL
MODEL 2
REMARK VINA RESULT:      -7.6      1.830      1.903
REMARK  4 active torsions:
REMARK  status: ('A' for Active; 'I' for Inactive)
REMARK    1  A    between atoms: O1_2  and  C2_3 
REMARK    2  A    between atoms: C6_9  and  O2_10 
REMARK    3  A    between atoms: O2_10  and  C7_11 
REMARK    4  A    between atoms: C15_20  and  O3_21 
ROOT
HETATM    1  C2  UNL     1      20.572   2.501  52.517  1.00  0.00     0.103 A 
HETATM    2  C3  UNL     1      20.546   1.399  53.350  1.00  0.00     0.072 A 
HETATM    3  C4  UNL     1      21.754   0.748  53.500  1.00  0.00     0.075 A 
HETATM    4  N1  UNL     1      21.755  -0.334  54.309  1.00  0.00    -0.241 NA
HETATM    5  C5  UNL     1      22.841  -1.060  54.549  1.00  0.00     0.236 A 
HETATM    6  N2  UNL     1      23.988  -0.700  53.959  1.00  0.00    -0.217 NA
HETATM    7  C6  UNL     1      24.099   0.354  53.138  1.00  0.00     0.183 A 
HETATM    8  C13 UNL     1      22.953   1.089  52.908  1.00  0.00     0.049 A 
HETATM    9  C14 UNL     1      22.897   2.201  52.091  1.00  0.00     0.057 A 
HETATM   10  C15 UNL     1      21.730   2.904  51.891  1.00  0.00     0.102 A 
ENDROOT
BRANCH   7  11
HETATM   11  O2  UNL     1      25.203   0.843  52.463  1.00  0.00    -0.291 OA
BRANCH  11  12
HETATM   12  C7  UNL     1      26.506   0.766  52.862  1.00  0.00     0.079 A 
HETATM   13  C8  UNL     1      26.999   2.028  53.204  1.00  0.00     0.037 A 
HETATM   14  C9  UNL     1      28.305   2.222  53.642  1.00  0.00     0.004 A 
HETATM   15  C10 UNL     1      29.116   1.097  53.730  1.00  0.00     0.024 A 
HETATM   16  C11 UNL     1      28.656  -0.170  53.397  1.00  0.00     0.036 A 
HETATM   17 CL1  UNL     1      29.641  -1.610  53.494  1.00  0.00    -0.084 Cl
HETATM   18  C12 UNL     1      27.355  -0.290  52.971  1.00  0.00     0.061 A 
ENDBRANCH  11  12
ENDBRANCH   7  11
BRANCH  10  19
HETATM   19  O3  UNL     1      21.658   4.023  51.073  1.00  0.00    -0.353 OA
HETATM   20  C16 UNL     1      22.650   4.991  50.938  1.00  0.00     0.210 C 
ENDBRANCH  10  19
BRANCH   1  21
HETATM   21  O1  UNL     1      19.386   3.200  52.325  1.00  0.00    -0.353 OA
HETATM   22  C1  UNL     1      18.358   2.642  51.536  1.00  0.00     0.210 C 
ENDBRANCH   1  21
TORSDOF 4
ENDMDL
MODEL 3
REMARK VINA RESULT:      -7.4      3.107      6.878
REMARK  4 active torsions:
REMARK  status: ('A' for Active; 'I' for Inactive)
REMARK    1  A    between atoms: O1_2  and  C2_3 
REMARK    2  A    between atoms: C6_9  and  O2_10 
REMARK    3  A    between atoms: O2_10  and  C7_11 
REMARK    4  A    between atoms: C15_20  and  O3_21 
ROOT
HETATM    1  C2  UNL     1      27.389   0.863  53.535  1.00  0.00     0.103 A 
HETATM    2  C3  UNL     1      26.889   0.054  54.536  1.00  0.00     0.072 A 
HETATM    3  C4  UNL     1      25.549  -0.258  54.424  1.00  0.00     0.075 A 
HETATM    4  N1  UNL     1      25.035  -1.049  55.392  1.00  0.00    -0.241 NA
HETATM    5  C5  UNL     1      23.764  -1.432  55.418  1.00  0.00     0.236 A 
HETATM    6  N2  UNL     1      22.956  -1.014  54.436  1.00  0.00    -0.217 NA
HETATM    7  C6  UNL     1      23.360  -0.227  53.429  1.00  0.00     0.183 A 
HETATM    8  C13 UNL     1      24.687   0.155  53.429  1.00  0.00     0.049 A 
HETATM    9  C14 UNL     1      25.262   0.960  52.466  1.00  0.00     0.057 A 
HETATM   10  C15 UNL     1      26.591   1.316  52.507  1.00  0.00     0.102 A 
ENDROOT
BRANCH   7  11
HETATM   11  O2  UNL     1      22.649   0.279  52.356  1.00  0.00    -0.291 OA
BRANCH  11  12
HETATM   12  C7  UNL     1      21.304   0.181  52.145  1.00  0.00     0.079 A 
HETATM   13  C8  UNL     1      20.937   0.819  50.956  1.00  0.00     0.037 A 
HETATM   14  C9  UNL     1      19.619   0.863  50.513  1.00  0.00     0.004 A 
HETATM   15  C10 UNL     1      18.664   0.240  51.307  1.00  0.00     0.024 A 
HETATM   16  C11 UNL     1      18.996  -0.401  52.493  1.00  0.00     0.036 A 
HETATM   17 CL1  UNL     1      17.828  -1.196  53.520  1.00  0.00    -0.084 Cl
HETATM   18  C12 UNL     1      20.317  -0.407  52.872  1.00  0.00     0.061 A 
ENDBRANCH  11  12
ENDBRANCH   7  11
BRANCH  10  19
HETATM   19  O3  UNL     1      27.183   2.124  51.547  1.00  0.00    -0.353 OA
HETATM   20  C16 UNL     1      26.506   2.981  50.683  1.00  0.00     0.210 C 
ENDBRANCH  10  19
BRANCH   1  21
HETATM   21  O1  UNL     1      28.733   1.214  53.590  1.00  0.00    -0.353 OA
HETATM   22  C1  UNL     1      29.725   0.210  53.588  1.00  0.00     0.210 C 
ENDBRANCH   1  21
TORSDOF 4
ENDMDL
MODEL 4
REMARK VINA RESULT:      -7.4      2.383      3.425
REMARK  4 active torsions:
REMARK  status: ('A' for Active; 'I' for Inactive)
REMARK    1  A    between atoms: O1_2  and  C2_3 
REMARK    2  A    between atoms: C6_9  and  O2_10 
REMARK    3  A    between atoms: O2_10  and  C7_11 
REMARK    4  A    between atoms: C15_20  and  O3_21 
ROOT
HETATM    1  C2  UNL     1      21.379   0.617  51.641  1.00  0.00     0.103 A 
HETATM    2  C3  UNL     1      21.935   1.464  50.702  1.00  0.00     0.072 A 
HETATM    3  C4  UNL     1      23.232   1.857  50.960  1.00  0.00     0.075 A 
HETATM    4  N1  UNL     1      23.799   2.686  50.056  1.00  0.00    -0.241 NA
HETATM    5  C5  UNL     1      25.039   3.148  50.171  1.00  0.00     0.236 A 
HETATM    6  N2  UNL     1      25.760   2.771  51.234  1.00  0.00    -0.217 NA
HETATM    7  C6  UNL     1      25.297   1.953  52.190  1.00  0.00     0.183 A 
HETATM    8  C13 UNL     1      24.004   1.490  52.044  1.00  0.00     0.049 A 
HETATM    9  C14 UNL     1      23.379   0.642  52.937  1.00  0.00     0.057 A 
HETATM   10  C15 UNL     1      22.086   0.206  52.749  1.00  0.00     0.102 A 
ENDROOT
BRANCH   7  11
HETATM   11  O2  UNL     1      25.917   1.481  53.333  1.00  0.00    -0.291 OA
BRANCH  11  12
HETATM   12  C7  UNL     1      27.074   0.759  53.399  1.00  0.00     0.079 A 
HETATM   13  C8  UNL     1      28.154   1.578  53.742  1.00  0.00     0.037 A 
HETATM   14  C9  UNL     1      29.448   1.084  53.873  1.00  0.00     0.004 A 
HETATM   15  C10 UNL     1      29.632  -0.275  53.649  1.00  0.00     0.024 A 
HETATM   16  C11 UNL     1      28.580  -1.114  53.307  1.00  0.00     0.036 A 
HETATM   17 CL1  UNL     1      28.766  -2.827  53.017  1.00  0.00    -0.084 Cl
HETATM   18  C12 UNL     1      27.327  -0.560  53.194  1.00  0.00     0.061 A 
ENDBRANCH  11  12
ENDBRANCH   7  11
BRANCH  10  19
HETATM   19  O3  UNL     1      21.445  -0.645  53.637  1.00  0.00    -0.353 OA
HETATM   20  C16 UNL     1      22.010  -1.188  54.788  1.00  0.00     0.210 C 
ENDBRANCH  10  19
BRANCH   1  21
HETATM   21  O1  UNL     1      20.074   0.185  51.438  1.00  0.00    -0.353 OA
HETATM   22  C1  UNL     1      19.263   0.819  50.472  1.00  0.00     0.210 C 
ENDBRANCH   1  21
TORSDOF 4
ENDMDL
MODEL 5
REMARK VINA RESULT:      -7.3      3.541      7.087
REMARK  4 active torsions:
REMARK  status: ('A' for Active; 'I' for Inactive)
REMARK    1  A    between atoms: O1_2  and  C2_3 
REMARK    2  A    between atoms: C6_9  and  O2_10 
REMARK    3  A    between atoms: O2_10  and  C7_11 
REMARK    4  A    between atoms: C15_20  and  O3_21 
ROOT
HETATM    1  C2  UNL     1      27.340   0.024  53.732  1.00  0.00     0.103 A 
HETATM    2  C3  UNL     1      27.728   0.858  52.703  1.00  0.00     0.072 A 
HETATM    3  C4  UNL     1      26.739   1.688  52.214  1.00  0.00     0.075 A 
HETATM    4  N1  UNL     1      27.094   2.514  51.205  1.00  0.00    -0.241 NA
HETATM    5  C5  UNL     1      26.251   3.367  50.634  1.00  0.00     0.236 A 
HETATM    6  N2  UNL     1      24.990   3.408  51.082  1.00  0.00    -0.217 NA
HETATM    7  C6  UNL     1      24.532   2.633  52.076  1.00  0.00     0.183 A 
HETATM    8  C13 UNL     1      25.431   1.756  52.649  1.00  0.00     0.049 A 
HETATM    9  C14 UNL     1      25.121   0.892  53.680  1.00  0.00     0.057 A 
HETATM   10  C15 UNL     1      26.052   0.034  54.222  1.00  0.00     0.102 A 
ENDROOT
BRANCH   7  11
HETATM   11  O2  UNL     1      23.270   2.564  52.640  1.00  0.00    -0.291 OA
BRANCH  11  12
HETATM   12  C7  UNL     1      22.233   1.778  52.232  1.00  0.00     0.079 A 
HETATM   13  C8  UNL     1      22.091   1.819  50.841  1.00  0.00     0.037 A 
HETATM   14  C9  UNL     1      21.104   1.103  50.173  1.00  0.00     0.004 A 
HETATM   15  C10 UNL     1      20.248   0.330  50.950  1.00  0.00     0.024 A 
HETATM   16  C11 UNL     1      20.362   0.269  52.332  1.00  0.00     0.036 A 
HETATM   17 CL1  UNL     1      19.309  -0.689  53.345  1.00  0.00    -0.084 Cl
HETATM   18  C12 UNL     1      21.360   1.001  52.928  1.00  0.00     0.061 A 
ENDBRANCH  11  12
ENDBRANCH   7  11
BRANCH  10  19
HETATM   19  O3  UNL     1      25.755  -0.840  55.258  1.00  0.00    -0.353 OA
HETATM   20  C16 UNL     1      24.476  -1.221  55.653  1.00  0.00     0.210 C 
ENDBRANCH  10  19
BRANCH   1  21
HETATM   21  O1  UNL     1      28.290  -0.836  54.268  1.00  0.00    -0.353 OA
HETATM   22  C1  UNL     1      29.399  -1.235  53.492  1.00  0.00     0.210 C 
ENDBRANCH   1  21
TORSDOF 4
ENDMDL
MODEL 6
REMARK VINA RESULT:      -7.2      4.351      5.284
REMARK  4 active torsions:
REMARK  status: ('A' for Active; 'I' for Inactive)
REMARK    1  A    between atoms: O1_2  and  C2_3 
REMARK    2  A    between atoms: C6_9  and  O2_10 
REMARK    3  A    between atoms: O2_10  and  C7_11 
REMARK    4  A    between atoms: C15_20  and  O3_21 
ROOT
HETATM    1  C2  UNL     1      22.900   0.406  52.922  1.00  0.00     0.103 A 
HETATM    2  C3  UNL     1      24.140   0.369  53.528  1.00  0.00     0.072 A 
HETATM    3  C4  UNL     1      25.132   1.076  52.880  1.00  0.00     0.075 A 
HETATM    4  N1  UNL     1      26.356   1.055  53.453  1.00  0.00    -0.241 NA
HETATM    5  C5  UNL     1      27.407   1.687  52.944  1.00  0.00     0.236 A 
HETATM    6  N2  UNL     1      27.243   2.378  51.809  1.00  0.00    -0.217 NA
HETATM    7  C6  UNL     1      26.075   2.464  51.157  1.00  0.00     0.183 A 
HETATM    8  C13 UNL     1      25.000   1.796  51.710  1.00  0.00     0.049 A 
HETATM    9  C14 UNL     1      23.732   1.785  51.166  1.00  0.00     0.057 A 
HETATM   10  C15 UNL     1      22.689   1.103  51.753  1.00  0.00     0.102 A 
ENDROOT
BRANCH   7  11
HETATM   11  O2  UNL     1      25.757   3.133  49.988  1.00  0.00    -0.291 OA
BRANCH  11  12
HETATM   12  C7  UNL     1      26.062   4.425  49.674  1.00  0.00     0.079 A 
HETATM   13  C8  UNL     1      27.209   4.487  48.877  1.00  0.00     0.037 A 
HETATM   14  C9  UNL     1      27.732   5.692  48.421  1.00  0.00     0.004 A 
HETATM   15  C10 UNL     1      27.063   6.853  48.792  1.00  0.00     0.024 A 
HETATM   16  C11 UNL     1      25.922   6.824  49.582  1.00  0.00     0.036 A 
HETATM   17 CL1  UNL     1      25.051   8.257  50.070  1.00  0.00    -0.084 Cl
HETATM   18  C12 UNL     1      25.459   5.599  49.998  1.00  0.00     0.061 A 
ENDBRANCH  11  12
ENDBRANCH   7  11
BRANCH  10  19
HETATM   19  O3  UNL     1      21.409   1.083  51.218  1.00  0.00    -0.353 OA
HETATM   20  C16 UNL     1      20.652   2.204  50.889  1.00  0.00     0.210 C 
ENDBRANCH  10  19
BRANCH   1  21
HETATM   21  O1  UNL     1      21.857  -0.287  53.526  1.00  0.00    -0.353 OA
HETATM   22  C1  UNL     1      22.037  -0.860  54.803  1.00  0.00     0.210 C 
ENDBRANCH   1  21
TORSDOF 4
ENDMDL
MODEL 7
REMARK VINA RESULT:      -7.2      2.692      3.761
REMARK  4 active torsions:
REMARK  status: ('A' for Active; 'I' for Inactive)
REMARK    1  A    between atoms: O1_2  and  C2_3 
REMARK    2  A    between atoms: C6_9  and  O2_10 
REMARK    3  A    between atoms: O2_10  and  C7_11 
REMARK    4  A    between atoms: C15_20  and  O3_21 
ROOT
HETATM    1  C2  UNL     1      21.094   2.399  52.386  1.00  0.00     0.103 A 
HETATM    2  C3  UNL     1      21.810   3.263  51.581  1.00  0.00     0.072 A 
HETATM    3  C4  UNL     1      23.140   2.939  51.408  1.00  0.00     0.075 A 
HETATM    4  N1  UNL     1      23.862   3.770  50.624  1.00  0.00    -0.241 NA
HETATM    5  C5  UNL     1      25.152   3.586  50.366  1.00  0.00     0.236 A 
HETATM    6  N2  UNL     1      25.763   2.526  50.910  1.00  0.00    -0.217 NA
HETATM    7  C6  UNL     1      25.143   1.640  51.702  1.00  0.00     0.183 A 
HETATM    8  C13 UNL     1      23.803   1.857  51.952  1.00  0.00     0.049 A 
HETATM    9  C14 UNL     1      23.020   1.041  52.744  1.00  0.00     0.057 A 
HETATM   10  C15 UNL     1      21.685   1.297  52.966  1.00  0.00     0.102 A 
ENDROOT
BRANCH   7  11
HETATM   11  O2  UNL     1      25.637   0.510  52.329  1.00  0.00    -0.291 OA
BRANCH  11  12
HETATM   12  C7  UNL     1      26.868   0.361  52.899  1.00  0.00     0.079 A 
HETATM   13  C8  UNL     1      27.352  -0.936  52.709  1.00  0.00     0.037 A 
HETATM   14  C9  UNL     1      28.589  -1.346  53.196  1.00  0.00     0.004 A 
HETATM   15  C10 UNL     1      29.340  -0.403  53.888  1.00  0.00     0.024 A 
HETATM   16  C11 UNL     1      28.887   0.893  54.093  1.00  0.00     0.036 A 
HETATM   17 CL1  UNL     1      29.797   2.108  54.957  1.00  0.00    -0.084 Cl
HETATM   18  C12 UNL     1      27.655   1.231  53.586  1.00  0.00     0.061 A 
ENDBRANCH  11  12
ENDBRANCH   7  11
BRANCH  10  19
HETATM   19  O3  UNL     1      20.886   0.486  53.758  1.00  0.00    -0.353 OA
HETATM   20  C16 UNL     1      21.346  -0.420  54.710  1.00  0.00     0.210 C 
ENDBRANCH  10  19
BRANCH   1  21
HETATM   21  O1  UNL     1      19.748   2.670  52.601  1.00  0.00    -0.353 OA
HETATM   22  C1  UNL     1      18.985   3.295  51.591  1.00  0.00     0.210 C 
ENDBRANCH   1  21
TORSDOF 4
ENDMDL
MODEL 8
REMARK VINA RESULT:      -7.2      3.548      7.417
REMARK  4 active torsions:
REMARK  status: ('A' for Active; 'I' for Inactive)
REMARK    1  A    between atoms: O1_2  and  C2_3 
REMARK    2  A    between atoms: C6_9  and  O2_10 
REMARK    3  A    between atoms: O2_10  and  C7_11 
REMARK    4  A    between atoms: C15_20  and  O3_21 
ROOT
HETATM    1  C2  UNL     1      26.973   0.820  53.765  1.00  0.00     0.103 A 
HETATM    2  C3  UNL     1      26.473   2.103  53.657  1.00  0.00     0.072 A 
HETATM    3  C4  UNL     1      25.158   2.187  53.246  1.00  0.00     0.075 A 
HETATM    4  N1  UNL     1      24.644   3.432  53.131  1.00  0.00    -0.241 NA
HETATM    5  C5  UNL     1      23.395   3.669  52.746  1.00  0.00     0.236 A 
HETATM    6  N2  UNL     1      22.610   2.624  52.460  1.00  0.00    -0.217 NA
HETATM    7  C6  UNL     1      23.017   1.349  52.538  1.00  0.00     0.183 A 
HETATM    8  C13 UNL     1      24.320   1.133  52.941  1.00  0.00     0.049 A 
HETATM    9  C14 UNL     1      24.894  -0.116  53.074  1.00  0.00     0.057 A 
HETATM   10  C15 UNL     1      26.200  -0.283  53.479  1.00  0.00     0.102 A 
ENDROOT
BRANCH   7  11
HETATM   11  O2  UNL     1      22.328   0.178  52.277  1.00  0.00    -0.291 OA
BRANCH  11  12
HETATM   12  C7  UNL     1      20.977   0.031  52.162  1.00  0.00     0.079 A 
HETATM   13  C8  UNL     1      20.448  -0.622  53.280  1.00  0.00     0.037 A 
HETATM   14  C9  UNL     1      19.091  -0.895  53.408  1.00  0.00     0.004 A 
HETATM   15  C10 UNL     1      18.263  -0.488  52.368  1.00  0.00     0.024 A 
HETATM   16  C11 UNL     1      18.756   0.162  51.246  1.00  0.00     0.036 A 
HETATM   17 CL1  UNL     1      17.752   0.691  49.918  1.00  0.00    -0.084 Cl
HETATM   18  C12 UNL     1      20.108   0.401  51.183  1.00  0.00     0.061 A 
ENDBRANCH  11  12
ENDBRANCH   7  11
BRANCH  10  19
HETATM   19  O3  UNL     1      26.789  -1.531  53.617  1.00  0.00    -0.353 OA
HETATM   20  C16 UNL     1      27.181  -2.361  52.570  1.00  0.00     0.210 C 
ENDBRANCH  10  19
BRANCH   1  21
HETATM   21  O1  UNL     1      28.293   0.668  54.175  1.00  0.00    -0.353 OA
HETATM   22  C1  UNL     1      29.151   1.787  54.223  1.00  0.00     0.210 C 
ENDBRANCH   1  21
TORSDOF 4
ENDMDL
MODEL 9
REMARK VINA RESULT:      -7.2      4.428      6.229
REMARK  4 active torsions:
REMARK  status: ('A' for Active; 'I' for Inactive)
REMARK    1  A    between atoms: O1_2  and  C2_3 
REMARK    2  A    between atoms: C6_9  and  O2_10 
REMARK    3  A    between atoms: O2_10  and  C7_11 
REMARK    4  A    between atoms: C15_20  and  O3_21 
ROOT
HETATM    1  C2  UNL     1      25.308  -0.239  53.701  1.00  0.00     0.103 A 
HETATM    2  C3  UNL     1      24.012   0.141  53.415  1.00  0.00     0.072 A 
HETATM    3  C4  UNL     1      23.883   1.082  52.413  1.00  0.00     0.075 A 
HETATM    4  N1  UNL     1      22.624   1.471  52.115  1.00  0.00    -0.241 NA
HETATM    5  C5  UNL     1      22.345   2.368  51.175  1.00  0.00     0.236 A 
HETATM    6  N2  UNL     1      23.361   2.909  50.493  1.00  0.00    -0.217 NA
HETATM    7  C6  UNL     1      24.647   2.597  50.708  1.00  0.00     0.183 A 
HETATM    8  C13 UNL     1      24.907   1.662  51.691  1.00  0.00     0.049 A 
HETATM    9  C14 UNL     1      26.172   1.230  52.036  1.00  0.00     0.057 A 
HETATM   10  C15 UNL     1      26.382   0.295  53.024  1.00  0.00     0.102 A 
ENDROOT
BRANCH   7  11
HETATM   11  O2  UNL     1      25.792   3.068  50.091  1.00  0.00    -0.291 OA
BRANCH  11  12
HETATM   12  C7  UNL     1      26.066   4.360  49.749  1.00  0.00     0.079 A 
HETATM   13  C8  UNL     1      27.191   4.431  48.922  1.00  0.00     0.037 A 
HETATM   14  C9  UNL     1      27.680   5.638  48.435  1.00  0.00     0.004 A 
HETATM   15  C10 UNL     1      26.998   6.792  48.803  1.00  0.00     0.024 A 
HETATM   16  C11 UNL     1      25.878   6.755  49.622  1.00  0.00     0.036 A 
HETATM   17 CL1  UNL     1      24.991   8.179  50.108  1.00  0.00    -0.084 Cl
HETATM   18  C12 UNL     1      25.448   5.528  50.069  1.00  0.00     0.061 A 
ENDBRANCH  11  12
ENDBRANCH   7  11
BRANCH  10  19
HETATM   19  O3  UNL     1      27.648  -0.149  53.381  1.00  0.00    -0.353 OA
HETATM   20  C16 UNL     1      28.533   0.523  54.221  1.00  0.00     0.210 C 
ENDBRANCH  10  19
BRANCH   1  21
HETATM   21  O1  UNL     1      25.505  -1.183  54.702  1.00  0.00    -0.353 OA
HETATM   22  C1  UNL     1      24.675  -1.186  55.843  1.00  0.00     0.210 C 
ENDBRANCH   1  21
TORSDOF 4
ENDMDL
