MODEL 1
REMARK VINA RESULT:      -6.8      0.000      0.000
REMARK  1 active torsions:
REMARK  status: ('A' for Active; 'I' for Inactive)
REMARK    1  A    between atoms: C1_2  and  C2_3 
ROOT
HETATM    1  C2  UNL     1      22.568   2.099  49.938  1.00  0.00     0.173 C 
HETATM    2  N1  UNL     1      22.434   1.126  50.763  1.00  0.00    -0.221 NA
HETATM    3  C3  UNL     1      23.063   1.248  52.010  1.00  0.00     0.231 C 
HETATM    4  N2  UNL     1      23.746   1.441  53.081  1.00  0.00    -0.257 NA
HETATM    5  C4  UNL     1      24.966   2.219  53.012  1.00  0.00     0.222 C 
HETATM    6  C5  UNL     1      25.997   1.694  53.941  1.00  0.00     0.031 C 
HETATM    7  C6  UNL     1      27.004   0.918  53.551  1.00  0.00    -0.011 C 
HETATM    8 BR1  UNL     1      28.297   0.279  54.803  1.00  0.00    -0.056 Br
HETATM    9  C7  UNL     1      27.063   0.584  52.107  1.00  0.00     0.062 C 
HETATM   10  C8  UNL     1      26.492   1.623  51.207  1.00  0.00     0.116 C 
HETATM   11  N3  UNL     1      25.377   2.338  51.671  1.00  0.00    -0.222 NA
HETATM   12  N4  UNL     1      25.446   3.675  51.325  1.00  0.00    -0.231 NA
HETATM   13  C9  UNL     1      24.540   4.088  50.295  1.00  0.00     0.205 C 
HETATM   14  C10 UNL     1      24.088   5.501  50.606  1.00  0.00     0.210 C 
HETATM   15  O2  UNL     1      23.748   5.641  51.954  1.00  0.00    -0.379 OA
HETATM   16  C11 UNL     1      22.477   5.054  52.175  1.00  0.00     0.271 C 
HETATM   17  C12 UNL     1      22.303   3.952  51.157  1.00  0.00     0.250 C 
HETATM   18  O3  UNL     1      21.096   3.541  50.991  1.00  0.00    -0.271 OA
HETATM   19  N5  UNL     1      23.309   3.292  50.339  1.00  0.00    -0.277 N 
HETATM   20  H9  UNL     1      26.402   4.027  51.214  1.00  0.00     0.143 HD
ENDROOT
BRANCH   1  21
HETATM   21  C1  UNL     1      22.302   2.711  48.651  1.00  0.00     0.309 C 
HETATM   22  O1  UNL     1      22.344   2.809  47.405  1.00  0.00    -0.298 OA
ENDBRANCH   1  21
TORSDOF 1
ENDMDL
MODEL 2
REMARK VINA RESULT:      -6.6      1.478      3.238
REMARK  1 active torsions:
REMARK  status: ('A' for Active; 'I' for Inactive)
REMARK    1  A    between atoms: C1_2  and  C2_3 
ROOT
HETATM    1  C2  UNL     1      24.313   4.689  50.958  1.00  0.00     0.173 C 
HETATM    2  N1  UNL     1      25.451   4.523  50.389  1.00  0.00    -0.221 NA
HETATM    3  C3  UNL     1      25.991   3.230  50.393  1.00  0.00     0.231 C 
HETATM    4  N2  UNL     1      26.415   2.025  50.530  1.00  0.00    -0.257 NA
HETATM    5  C4  UNL     1      26.033   1.269  51.705  1.00  0.00     0.222 C 
HETATM    6  C5  UNL     1      27.132   0.381  52.160  1.00  0.00     0.031 C 
HETATM    7  C6  UNL     1      27.941   0.680  53.170  1.00  0.00    -0.011 C 
HETATM    8 BR1  UNL     1      29.335  -0.512  53.702  1.00  0.00    -0.056 Br
HETATM    9  C7  UNL     1      27.701   1.976  53.851  1.00  0.00     0.062 C 
HETATM   10  C8  UNL     1      26.285   2.433  53.832  1.00  0.00     0.116 C 
HETATM   11  N3  UNL     1      25.528   2.142  52.686  1.00  0.00    -0.222 NA
HETATM   12  N4  UNL     1      24.233   1.777  53.008  1.00  0.00    -0.231 NA
HETATM   13  C9  UNL     1      23.228   2.752  52.703  1.00  0.00     0.205 C 
HETATM   14  C10 UNL     1      21.976   2.016  52.269  1.00  0.00     0.210 C 
HETATM   15  O2  UNL     1      22.275   0.991  51.368  1.00  0.00    -0.379 OA
HETATM   16  C11 UNL     1      22.532   1.554  50.093  1.00  0.00     0.271 C 
HETATM   17  C12 UNL     1      23.070   2.949  50.314  1.00  0.00     0.250 C 
HETATM   18  O3  UNL     1      23.041   3.720  49.285  1.00  0.00    -0.271 OA
HETATM   19  N5  UNL     1      23.614   3.540  51.527  1.00  0.00    -0.277 N 
HETATM   20  H9  UNL     1      24.139   1.350  53.935  1.00  0.00     0.143 HD
ENDROOT
BRANCH   1  21
HETATM   21  C1  UNL     1      23.210   5.541  51.352  1.00  0.00     0.309 C 
HETATM   22  O1  UNL     1      22.339   6.425  51.196  1.00  0.00    -0.298 OA
ENDBRANCH   1  21
TORSDOF 1
ENDMDL
MODEL 3
REMARK VINA RESULT:      -6.4      1.729      3.471
REMARK  1 active torsions:
REMARK  status: ('A' for Active; 'I' for Inactive)
REMARK    1  A    between atoms: C1_2  and  C2_3 
ROOT
HETATM    1  C2  UNL     1      21.016   4.000  51.822  1.00  0.00     0.173 C 
HETATM    2  N1  UNL     1      22.027   4.491  52.442  1.00  0.00    -0.221 NA
HETATM    3  C3  UNL     1      23.298   4.038  52.063  1.00  0.00     0.231 C 
HETATM    4  N2  UNL     1      24.395   3.489  51.683  1.00  0.00    -0.257 NA
HETATM    5  C4  UNL     1      24.378   2.116  51.222  1.00  0.00     0.222 C 
HETATM    6  C5  UNL     1      25.611   1.393  51.622  1.00  0.00     0.031 C 
HETATM    7  C6  UNL     1      25.669   0.568  52.662  1.00  0.00    -0.011 C 
HETATM    8 BR1  UNL     1      27.292  -0.329  53.119  1.00  0.00    -0.056 Br
HETATM    9  C7  UNL     1      24.416   0.388  53.436  1.00  0.00     0.062 C 
HETATM   10  C8  UNL     1      23.169   0.545  52.640  1.00  0.00     0.116 C 
HETATM   11  N3  UNL     1      23.174   1.500  51.612  1.00  0.00    -0.222 NA
HETATM   12  N4  UNL     1      22.501   1.048  50.491  1.00  0.00    -0.231 NA
HETATM   13  C9  UNL     1      21.229   1.664  50.251  1.00  0.00     0.205 C 
HETATM   14  C10 UNL     1      21.043   1.787  48.752  1.00  0.00     0.210 C 
HETATM   15  O2  UNL     1      22.198   2.271  48.134  1.00  0.00    -0.379 OA
HETATM   16  C11 UNL     1      22.296   3.666  48.359  1.00  0.00     0.271 C 
HETATM   17  C12 UNL     1      21.602   3.964  49.668  1.00  0.00     0.250 C 
HETATM   18  O3  UNL     1      21.302   5.199  49.864  1.00  0.00    -0.271 OA
HETATM   19  N5  UNL     1      21.226   3.049  50.735  1.00  0.00    -0.277 N 
HETATM   20  H9  UNL     1      22.504   0.029  50.387  1.00  0.00     0.143 HD
ENDROOT
BRANCH   1  21
HETATM   21  C1  UNL     1      19.586   3.916  51.605  1.00  0.00     0.309 C 
HETATM   22  O1  UNL     1      18.398   3.676  51.913  1.00  0.00    -0.298 OA
ENDBRANCH   1  21
TORSDOF 1
ENDMDL
MODEL 4
REMARK VINA RESULT:      -6.3      3.644      5.542
REMARK  1 active torsions:
REMARK  status: ('A' for Active; 'I' for Inactive)
REMARK    1  A    between atoms: C1_2  and  C2_3 
ROOT
HETATM    1  C2  UNL     1      24.011  -0.160  53.798  1.00  0.00     0.173 C 
HETATM    2  N1  UNL     1      23.160  -0.023  52.848  1.00  0.00    -0.221 NA
HETATM    3  C3  UNL     1      23.480   0.876  51.821  1.00  0.00     0.231 C 
HETATM    4  N2  UNL     1      23.848   1.780  50.986  1.00  0.00    -0.257 NA
HETATM    5  C4  UNL     1      24.654   2.889  51.452  1.00  0.00     0.222 C 
HETATM    6  C5  UNL     1      24.304   4.147  50.747  1.00  0.00     0.031 C 
HETATM    7  C6  UNL     1      23.521   5.084  51.270  1.00  0.00    -0.011 C 
HETATM    8 BR1  UNL     1      23.114   6.681  50.305  1.00  0.00    -0.056 Br
HETATM    9  C7  UNL     1      22.988   4.820  52.630  1.00  0.00     0.062 C 
HETATM   10  C8  UNL     1      23.867   3.978  53.486  1.00  0.00     0.116 C 
HETATM   11  N3  UNL     1      24.597   2.958  52.857  1.00  0.00    -0.222 NA
HETATM   12  N4  UNL     1      25.874   2.847  53.377  1.00  0.00    -0.231 NA
HETATM   13  C9  UNL     1      26.103   1.695  54.197  1.00  0.00     0.205 C 
HETATM   14  C10 UNL     1      27.527   1.231  53.967  1.00  0.00     0.210 C 
HETATM   15  O2  UNL     1      27.843   1.213  52.606  1.00  0.00    -0.379 OA
HETATM   16  C11 UNL     1      27.246   0.078  52.005  1.00  0.00     0.271 C 
HETATM   17  C12 UNL     1      26.006  -0.257  52.799  1.00  0.00     0.250 C 
HETATM   18  O3  UNL     1      25.530  -1.436  52.608  1.00  0.00    -0.271 OA
HETATM   19  N5  UNL     1      25.275   0.569  53.748  1.00  0.00    -0.277 N 
HETATM   20  H9  UNL     1      26.242   3.721  53.765  1.00  0.00     0.143 HD
ENDROOT
BRANCH   1  21
HETATM   21  C1  UNL     1      24.423  -0.768  55.047  1.00  0.00     0.309 C 
HETATM   22  O1  UNL     1      25.218  -1.322  55.838  1.00  0.00    -0.298 OA
ENDBRANCH   1  21
TORSDOF 1
ENDMDL
MODEL 5
REMARK VINA RESULT:      -6.2      9.031     10.902
REMARK  1 active torsions:
REMARK  status: ('A' for Active; 'I' for Inactive)
REMARK    1  A    between atoms: C1_2  and  C2_3 
ROOT
HETATM    1  C2  UNL     1      34.001   6.830  48.539  1.00  0.00     0.173 C 
HETATM    2  N1  UNL     1      33.324   6.182  49.416  1.00  0.00    -0.221 NA
HETATM    3  C3  UNL     1      32.065   5.701  49.032  1.00  0.00     0.231 C 
HETATM    4  N2  UNL     1      30.902   5.382  48.589  1.00  0.00    -0.257 NA
HETATM    5  C4  UNL     1      30.260   6.233  47.608  1.00  0.00     0.222 C 
HETATM    6  C5  UNL     1      28.792   6.288  47.816  1.00  0.00     0.031 C 
HETATM    7  C6  UNL     1      28.178   7.296  48.427  1.00  0.00    -0.011 C 
HETATM    8 BR1  UNL     1      26.282   7.301  48.659  1.00  0.00    -0.056 Br
HETATM    9  C7  UNL     1      29.041   8.402  48.911  1.00  0.00     0.062 C 
HETATM   10  C8  UNL     1      30.277   8.618  48.112  1.00  0.00     0.116 C 
HETATM   11  N3  UNL     1      30.904   7.484  47.572  1.00  0.00    -0.222 NA
HETATM   12  N4  UNL     1      31.381   7.722  46.295  1.00  0.00    -0.231 NA
HETATM   13  C9  UNL     1      32.805   7.832  46.185  1.00  0.00     0.205 C 
HETATM   14  C10 UNL     1      33.220   7.231  44.857  1.00  0.00     0.210 C 
HETATM   15  O2  UNL     1      32.579   6.012  44.627  1.00  0.00    -0.379 OA
HETATM   16  C11 UNL     1      33.195   5.007  45.413  1.00  0.00     0.271 C 
HETATM   17  C12 UNL     1      33.766   5.678  46.640  1.00  0.00     0.250 C 
HETATM   18  O3  UNL     1      34.638   4.991  47.288  1.00  0.00    -0.271 OA
HETATM   19  N5  UNL     1      33.468   6.992  47.189  1.00  0.00    -0.277 N 
HETATM   20  H9  UNL     1      30.860   8.442  45.785  1.00  0.00     0.143 HD
ENDROOT
BRANCH   1  21
HETATM   21  C1  UNL     1      35.191   7.556  48.144  1.00  0.00     0.309 C 
HETATM   22  O1  UNL     1      35.958   8.542  48.085  1.00  0.00    -0.298 OA
ENDBRANCH   1  21
TORSDOF 1
ENDMDL
MODEL 6
REMARK VINA RESULT:      -6.2      2.480      3.949
REMARK  1 active torsions:
REMARK  status: ('A' for Active; 'I' for Inactive)
REMARK    1  A    between atoms: C1_2  and  C2_3 
ROOT
HETATM    1  C2  UNL     1      25.304   5.508  49.785  1.00  0.00     0.173 C 
HETATM    2  N1  UNL     1      25.591   4.338  49.346  1.00  0.00    -0.221 NA
HETATM    3  C3  UNL     1      24.630   3.331  49.516  1.00  0.00     0.231 C 
HETATM    4  N2  UNL     1      23.709   2.482  49.799  1.00  0.00    -0.257 NA
HETATM    5  C4  UNL     1      22.913   2.673  50.994  1.00  0.00     0.222 C 
HETATM    6  C5  UNL     1      22.569   1.377  51.630  1.00  0.00     0.031 C 
HETATM    7  C6  UNL     1      23.213   0.886  52.683  1.00  0.00    -0.011 C 
HETATM    8 BR1  UNL     1      22.715  -0.790  53.450  1.00  0.00    -0.056 Br
HETATM    9  C7  UNL     1      24.328   1.706  53.220  1.00  0.00     0.062 C 
HETATM   10  C8  UNL     1      24.168   3.172  53.024  1.00  0.00     0.116 C 
HETATM   11  N3  UNL     1      23.546   3.602  51.841  1.00  0.00    -0.222 NA
HETATM   12  N4  UNL     1      22.700   4.673  52.069  1.00  0.00    -0.231 NA
HETATM   13  C9  UNL     1      23.168   5.937  51.583  1.00  0.00     0.205 C 
HETATM   14  C10 UNL     1      21.969   6.727  51.098  1.00  0.00     0.210 C 
HETATM   15  O2  UNL     1      21.118   5.935  50.323  1.00  0.00    -0.379 OA
HETATM   16  C11 UNL     1      21.683   5.768  49.035  1.00  0.00     0.271 C 
HETATM   17  C12 UNL     1      23.183   5.864  49.182  1.00  0.00     0.250 C 
HETATM   18  O3  UNL     1      23.831   6.070  48.091  1.00  0.00    -0.271 OA
HETATM   19  N5  UNL     1      23.995   5.755  50.384  1.00  0.00    -0.277 N 
HETATM   20  H9  UNL     1      22.311   4.702  53.016  1.00  0.00     0.143 HD
ENDROOT
BRANCH   1  21
HETATM   21  C1  UNL     1      25.650   6.900  49.994  1.00  0.00     0.309 C 
HETATM   22  O1  UNL     1      26.417   7.883  50.083  1.00  0.00    -0.298 OA
ENDBRANCH   1  21
TORSDOF 1
ENDMDL
MODEL 7
REMARK VINA RESULT:      -6.1      2.976      4.529
REMARK  1 active torsions:
REMARK  status: ('A' for Active; 'I' for Inactive)
REMARK    1  A    between atoms: C1_2  and  C2_3 
ROOT
HETATM    1  C2  UNL     1      21.633   3.321  50.739  1.00  0.00     0.173 C 
HETATM    2  N1  UNL     1      21.853   3.368  49.476  1.00  0.00    -0.221 NA
HETATM    3  C3  UNL     1      23.188   3.320  49.051  1.00  0.00     0.231 C 
HETATM    4  N2  UNL     1      24.447   3.347  48.793  1.00  0.00    -0.257 NA
HETATM    5  C4  UNL     1      25.352   3.953  49.747  1.00  0.00     0.222 C 
HETATM    6  C5  UNL     1      26.467   4.656  49.065  1.00  0.00     0.031 C 
HETATM    7  C6  UNL     1      26.498   5.973  48.883  1.00  0.00    -0.011 C 
HETATM    8 BR1  UNL     1      27.967   6.811  47.997  1.00  0.00    -0.056 Br
HETATM    9  C7  UNL     1      25.339   6.741  49.403  1.00  0.00     0.062 C 
HETATM   10  C8  UNL     1      24.681   6.138  50.594  1.00  0.00     0.116 C 
HETATM   11  N3  UNL     1      24.624   4.737  50.661  1.00  0.00    -0.222 NA
HETATM   12  N4  UNL     1      24.846   4.277  51.946  1.00  0.00    -0.231 NA
HETATM   13  C9  UNL     1      23.690   3.766  52.622  1.00  0.00     0.205 C 
HETATM   14  C10 UNL     1      24.130   2.606  53.492  1.00  0.00     0.210 C 
HETATM   15  O2  UNL     1      24.991   1.749  52.801  1.00  0.00    -0.379 OA
HETATM   16  C11 UNL     1      24.233   0.952  51.908  1.00  0.00     0.271 C 
HETATM   17  C12 UNL     1      23.006   1.743  51.522  1.00  0.00     0.250 C 
HETATM   18  O3  UNL     1      22.053   1.061  50.994  1.00  0.00    -0.271 OA
HETATM   19  N5  UNL     1      22.753   3.169  51.663  1.00  0.00    -0.277 N 
HETATM   20  H9  UNL     1      25.428   4.899  52.515  1.00  0.00     0.143 HD
ENDROOT
BRANCH   1  21
HETATM   21  C1  UNL     1      20.719   3.316  51.863  1.00  0.00     0.309 C 
HETATM   22  O1  UNL     1      19.601   3.316  52.424  1.00  0.00    -0.298 OA
ENDBRANCH   1  21
TORSDOF 1
ENDMDL
MODEL 8
REMARK VINA RESULT:      -6.1      3.019      4.366
REMARK  1 active torsions:
REMARK  status: ('A' for Active; 'I' for Inactive)
REMARK    1  A    between atoms: C1_2  and  C2_3 
ROOT
HETATM    1  C2  UNL     1      22.961   2.379  52.408  1.00  0.00     0.173 C 
HETATM    2  N1  UNL     1      23.575   3.378  52.930  1.00  0.00    -0.221 NA
HETATM    3  C3  UNL     1      23.800   4.494  52.113  1.00  0.00     0.231 C 
HETATM    4  N2  UNL     1      24.014   5.419  51.247  1.00  0.00    -0.257 NA
HETATM    5  C4  UNL     1      24.189   5.060  49.855  1.00  0.00     0.222 C 
HETATM    6  C5  UNL     1      25.188   5.934  49.190  1.00  0.00     0.031 C 
HETATM    7  C6  UNL     1      26.448   5.570  48.974  1.00  0.00    -0.011 C 
HETATM    8 BR1  UNL     1      27.679   6.747  48.111  1.00  0.00    -0.056 Br
HETATM    9  C7  UNL     1      26.835   4.214  49.436  1.00  0.00     0.062 C 
HETATM   10  C8  UNL     1      25.729   3.218  49.430  1.00  0.00     0.116 C 
HETATM   11  N3  UNL     1      24.443   3.679  49.750  1.00  0.00    -0.222 NA
HETATM   12  N4  UNL     1      23.476   3.090  48.956  1.00  0.00    -0.231 NA
HETATM   13  C9  UNL     1      22.650   2.122  49.613  1.00  0.00     0.205 C 
HETATM   14  C10 UNL     1      21.253   2.225  49.034  1.00  0.00     0.210 C 
HETATM   15  O2  UNL     1      20.844   3.556  48.925  1.00  0.00    -0.379 OA
HETATM   16  C11 UNL     1      20.480   4.036  50.208  1.00  0.00     0.271 C 
HETATM   17  C12 UNL     1      21.285   3.264  51.227  1.00  0.00     0.250 C 
HETATM   18  O3  UNL     1      20.850   3.327  52.435  1.00  0.00    -0.271 OA
HETATM   19  N5  UNL     1      22.483   2.462  51.031  1.00  0.00    -0.277 N 
HETATM   20  H9  UNL     1      23.816   2.799  48.034  1.00  0.00     0.143 HD
ENDROOT
BRANCH   1  21
HETATM   21  C1  UNL     1      22.403   1.046  52.510  1.00  0.00     0.309 C 
HETATM   22  O1  UNL     1      22.434  -0.194  52.670  1.00  0.00    -0.298 OA
ENDBRANCH   1  21
TORSDOF 1
ENDMDL
MODEL 9
REMARK VINA RESULT:      -6.1     22.663     25.135
REMARK  1 active torsions:
REMARK  status: ('A' for Active; 'I' for Inactive)
REMARK    1  A    between atoms: C1_2  and  C2_3 
ROOT
HETATM    1  C2  UNL     1      39.714   0.064  67.963  1.00  0.00     0.173 C 
HETATM    2  N1  UNL     1      40.775   0.481  67.374  1.00  0.00    -0.221 NA
HETATM    3  C3  UNL     1      41.973  -0.191  67.653  1.00  0.00     0.231 C 
HETATM    4  N2  UNL     1      43.014  -0.833  68.048  1.00  0.00    -0.257 NA
HETATM    5  C4  UNL     1      43.049  -1.366  69.394  1.00  0.00     0.222 C 
HETATM    6  C5  UNL     1      44.413  -1.288  69.974  1.00  0.00     0.031 C 
HETATM    7  C6  UNL     1      44.792  -0.339  70.823  1.00  0.00    -0.011 C 
HETATM    8 BR1  UNL     1      46.566  -0.301  71.530  1.00  0.00    -0.056 Br
HETATM    9  C7  UNL     1      43.770   0.674  71.185  1.00  0.00     0.062 C 
HETATM   10  C8  UNL     1      42.368   0.178  71.154  1.00  0.00     0.116 C 
HETATM   11  N3  UNL     1      42.038  -0.765  70.168  1.00  0.00    -0.222 NA
HETATM   12  N4  UNL     1      41.188  -1.741  70.657  1.00  0.00    -0.231 NA
HETATM   13  C9  UNL     1      39.834  -1.661  70.195  1.00  0.00     0.205 C 
HETATM   14  C10 UNL     1      39.307  -3.073  70.040  1.00  0.00     0.210 C 
HETATM   15  O2  UNL     1      40.235  -3.895  69.395  1.00  0.00    -0.379 OA
HETATM   16  C11 UNL     1      40.223  -3.607  68.007  1.00  0.00     0.271 C 
HETATM   17  C12 UNL     1      39.808  -2.164  67.846  1.00  0.00     0.250 C 
HETATM   18  O3  UNL     1      39.422  -1.830  66.666  1.00  0.00    -0.271 OA
HETATM   19  N5  UNL     1      39.783  -1.101  68.840  1.00  0.00    -0.277 N 
HETATM   20  H9  UNL     1      41.282  -1.907  71.664  1.00  0.00     0.143 HD
ENDROOT
BRANCH   1  21
HETATM   21  C1  UNL     1      38.290   0.156  68.215  1.00  0.00     0.309 C 
HETATM   22  O1  UNL     1      37.087   0.322  67.915  1.00  0.00    -0.298 OA
ENDBRANCH   1  21
TORSDOF 1
ENDMDL
