MODEL 1
REMARK VINA RESULT:      -8.8      0.000      0.000
REMARK  8 active torsions:
REMARK  status: ('A' for Active; 'I' for Inactive)
REMARK    1  A    between atoms: O1_2  and  C2_3 
REMARK    2  A    between atoms: C6_9  and  O2_10 
REMARK    3  A    between atoms: O2_10  and  C7_11 
REMARK    4  A    between atoms: C8_12  and  C9_13 
REMARK    5  A    between atoms: C10_14  and  N3_15 
REMARK       I    between atoms: N3_15  and  C11_16 
REMARK    6  A    between atoms: C11_16  and  C12_18 
REMARK    7  A    between atoms: C18_24  and  C19_25 
REMARK    8  A    between atoms: C22_28  and  O4_29 
ROOT
HETATM    1  C7  UNL     1      27.140   5.994  48.526  1.00  0.00     0.138 A 
HETATM    2  C8  UNL     1      26.231   5.422  48.889  1.00  0.00    -0.027 A 
HETATM    3  C19 UNL     1      27.236   4.467  48.891  1.00  0.00     0.072 A 
ENDROOT
BRANCH   1   4
HETATM    4  O2  UNL     1      28.255   6.445  48.145  1.00  0.00    -0.313 OA
BRANCH   4   5
HETATM    5  C6  UNL     1      29.061   7.467  48.500  1.00  0.00     0.179 A 
HETATM    6  N2  UNL     1      28.949   8.764  48.804  1.00  0.00    -0.217 NA
HETATM    7  C5  UNL     1      29.973   9.550  49.129  1.00  0.00     0.236 A 
HETATM    8  N1  UNL     1      31.224   9.057  49.168  1.00  0.00    -0.241 NA
HETATM    9  C4  UNL     1      31.464   7.749  48.878  1.00  0.00     0.075 A 
HETATM   10  C3  UNL     1      32.763   7.359  48.949  1.00  0.00     0.072 A 
HETATM   11  C20 UNL     1      30.353   6.962  48.542  1.00  0.00     0.049 A 
HETATM   12  C2  UNL     1      33.038   6.047  48.662  1.00  0.00     0.103 A 
HETATM   13  C22 UNL     1      32.040   5.165  48.317  1.00  0.00     0.102 A 
HETATM   14  C21 UNL     1      30.754   5.650  48.271  1.00  0.00     0.057 A 
BRANCH  12  15
HETATM   15  O1  UNL     1      34.330   5.547  48.705  1.00  0.00    -0.353 OA
HETATM   16  C1  UNL     1      35.418   6.452  48.683  1.00  0.00     0.210 C 
ENDBRANCH  12  15
BRANCH  13  17
HETATM   17  O4  UNL     1      32.282   3.834  48.021  1.00  0.00    -0.353 OA
HETATM   18  C23 UNL     1      32.285   3.404  46.690  1.00  0.00     0.210 C 
ENDBRANCH  13  17
ENDBRANCH   4   5
ENDBRANCH   1   4
BRANCH   2  19
HETATM   19  C9  UNL     1      25.403   4.877  49.227  1.00  0.00    -0.035 A 
HETATM   20  C10 UNL     1      24.525   4.272  49.600  1.00  0.00     0.096 A 
HETATM   21  C18 UNL     1      26.044   3.828  49.847  1.00  0.00     0.065 A 
BRANCH  20  22
HETATM   22  N3  UNL     1      24.043   3.161  50.272  1.00  0.00    -0.340 N 
HETATM   23  C11 UNL     1      23.188   2.119  50.617  1.00  0.00     0.248 C 
HETATM   24  O3  UNL     1      22.105   1.941  50.008  1.00  0.00    -0.268 OA
HETATM   25  H6  UNL     1      24.973   3.379  50.736  1.00  0.00     0.164 HD
BRANCH  23  26
HETATM   26  C12 UNL     1      23.686   1.306  51.714  1.00  0.00     0.013 A 
HETATM   27  C13 UNL     1      22.748   0.592  52.347  1.00  0.00     0.013 A 
HETATM   28  C14 UNL     1      23.399  -0.155  53.402  1.00  0.00     0.003 A 
HETATM   29  C15 UNL     1      24.692   0.091  53.418  1.00  0.00    -0.079 A 
HETATM   30  C16 UNL     1      25.838  -0.357  54.232  1.00  0.00     0.043 C 
HETATM   31  C17 UNL     1      25.003   1.048  52.342  1.00  0.00     0.078 A 
ENDBRANCH  23  26
ENDBRANCH  20  22
ENDBRANCH   2  19
TORSDOF 8
ENDMDL
MODEL 2
REMARK VINA RESULT:      -8.6      3.067      5.538
REMARK  8 active torsions:
REMARK  status: ('A' for Active; 'I' for Inactive)
REMARK    1  A    between atoms: O1_2  and  C2_3 
REMARK    2  A    between atoms: C6_9  and  O2_10 
REMARK    3  A    between atoms: O2_10  and  C7_11 
REMARK    4  A    between atoms: C8_12  and  C9_13 
REMARK    5  A    between atoms: C10_14  and  N3_15 
REMARK       I    between atoms: N3_15  and  C11_16 
REMARK    6  A    between atoms: C11_16  and  C12_18 
REMARK    7  A    between atoms: C18_24  and  C19_25 
REMARK    8  A    between atoms: C22_28  and  O4_29 
ROOT
HETATM    1  C7  UNL     1      26.718   3.374  50.049  1.00  0.00     0.138 A 
HETATM    2  C8  UNL     1      26.499   2.604  50.852  1.00  0.00    -0.027 A 
HETATM    3  C19 UNL     1      25.239   3.015  50.444  1.00  0.00     0.072 A 
ENDROOT
BRANCH   1   4
HETATM    4  O2  UNL     1      26.751   4.248  49.139  1.00  0.00    -0.313 OA
BRANCH   4   5
HETATM    5  C6  UNL     1      27.668   5.110  48.655  1.00  0.00     0.179 A 
HETATM    6  N2  UNL     1      28.948   5.090  48.271  1.00  0.00    -0.217 NA
HETATM    7  C5  UNL     1      29.614   6.151  47.817  1.00  0.00     0.236 A 
HETATM    8  N1  UNL     1      29.004   7.346  47.721  1.00  0.00    -0.241 NA
HETATM    9  C4  UNL     1      27.700   7.492  48.083  1.00  0.00     0.075 A 
HETATM   10  C3  UNL     1      27.187   8.741  47.945  1.00  0.00     0.072 A 
HETATM   11  C20 UNL     1      27.043   6.346  48.555  1.00  0.00     0.049 A 
HETATM   12  C2  UNL     1      25.876   8.921  48.302  1.00  0.00     0.103 A 
HETATM   13  C22 UNL     1      25.114   7.880  48.780  1.00  0.00     0.102 A 
HETATM   14  C21 UNL     1      25.720   6.649  48.886  1.00  0.00     0.057 A 
BRANCH  12  15
HETATM   15  O1  UNL     1      25.255  10.156  48.200  1.00  0.00    -0.353 OA
HETATM   16  C1  UNL     1      26.047  11.328  48.244  1.00  0.00     0.210 C 
ENDBRANCH  12  15
BRANCH  13  17
HETATM   17  O4  UNL     1      23.788   8.026  49.150  1.00  0.00    -0.353 OA
HETATM   18  C23 UNL     1      23.398   7.768  50.468  1.00  0.00     0.210 C 
ENDBRANCH  13  17
ENDBRANCH   4   5
ENDBRANCH   1   4
BRANCH   2  19
HETATM   19  C9  UNL     1      26.275   1.896  51.591  1.00  0.00    -0.035 A 
HETATM   20  C10 UNL     1      26.011   1.136  52.382  1.00  0.00     0.096 A 
HETATM   21  C18 UNL     1      24.903   1.865  51.484  1.00  0.00     0.065 A 
BRANCH  20  22
HETATM   22  N3  UNL     1      25.047   0.410  53.064  1.00  0.00    -0.340 N 
HETATM   23  C11 UNL     1      24.494  -0.472  53.986  1.00  0.00     0.248 C 
HETATM   24  O3  UNL     1      25.216  -1.093  54.804  1.00  0.00    -0.268 OA
HETATM   25  H6  UNL     1      24.508   0.971  52.342  1.00  0.00     0.164 HD
BRANCH  23  26
HETATM   26  C12 UNL     1      23.047  -0.576  53.885  1.00  0.00     0.013 A 
HETATM   27  C13 UNL     1      22.472  -1.285  54.863  1.00  0.00     0.013 A 
HETATM   28  C14 UNL     1      21.045  -1.294  54.621  1.00  0.00     0.003 A 
HETATM   29  C15 UNL     1      20.753  -0.615  53.532  1.00  0.00    -0.079 A 
HETATM   30  C16 UNL     1      19.516  -0.281  52.800  1.00  0.00     0.043 C 
HETATM   31  C17 UNL     1      22.003  -0.089  52.954  1.00  0.00     0.078 A 
ENDBRANCH  23  26
ENDBRANCH  20  22
ENDBRANCH   2  19
TORSDOF 8
ENDMDL
MODEL 3
REMARK VINA RESULT:      -8.5      1.882      3.531
REMARK  8 active torsions:
REMARK  status: ('A' for Active; 'I' for Inactive)
REMARK    1  A    between atoms: O1_2  and  C2_3 
REMARK    2  A    between atoms: C6_9  and  O2_10 
REMARK    3  A    between atoms: O2_10  and  C7_11 
REMARK    4  A    between atoms: C8_12  and  C9_13 
REMARK    5  A    between atoms: C10_14  and  N3_15 
REMARK       I    between atoms: N3_15  and  C11_16 
REMARK    6  A    between atoms: C11_16  and  C12_18 
REMARK    7  A    between atoms: C18_24  and  C19_25 
REMARK    8  A    between atoms: C22_28  and  O4_29 
ROOT
HETATM    1  C7  UNL     1      27.699   4.838  48.647  1.00  0.00     0.138 A 
HETATM    2  C8  UNL     1      26.787   4.389  49.149  1.00  0.00    -0.027 A 
HETATM    3  C19 UNL     1      26.365   5.659  48.789  1.00  0.00     0.072 A 
ENDROOT
BRANCH   1   4
HETATM    4  O2  UNL     1      28.592   5.510  48.062  1.00  0.00    -0.313 OA
BRANCH   4   5
HETATM    5  C6  UNL     1      29.918   5.704  48.217  1.00  0.00     0.179 A 
HETATM    6  N2  UNL     1      31.043   4.985  48.151  1.00  0.00    -0.217 NA
HETATM    7  C5  UNL     1      32.262   5.477  48.363  1.00  0.00     0.236 A 
HETATM    8  N1  UNL     1      32.428   6.776  48.669  1.00  0.00    -0.241 NA
HETATM    9  C4  UNL     1      31.356   7.609  48.764  1.00  0.00     0.075 A 
HETATM   10  C3  UNL     1      31.640   8.900  49.077  1.00  0.00     0.072 A 
HETATM   11  C20 UNL     1      30.094   7.044  48.532  1.00  0.00     0.049 A 
HETATM   12  C2  UNL     1      30.581   9.764  49.182  1.00  0.00     0.103 A 
HETATM   13  C22 UNL     1      29.288   9.341  48.978  1.00  0.00     0.102 A 
HETATM   14  C21 UNL     1      29.097   8.015  48.665  1.00  0.00     0.057 A 
BRANCH  12  15
HETATM   15  O1  UNL     1      30.760  11.102  49.496  1.00  0.00    -0.353 OA
HETATM   16  C1  UNL     1      31.133  12.004  48.471  1.00  0.00     0.210 C 
ENDBRANCH  12  15
BRANCH  13  17
HETATM   17  O4  UNL     1      28.196  10.187  49.075  1.00  0.00    -0.353 OA
HETATM   18  C23 UNL     1      26.989   9.711  49.599  1.00  0.00     0.210 C 
ENDBRANCH  13  17
ENDBRANCH   4   5
ENDBRANCH   1   4
BRANCH   2  19
HETATM   19  C9  UNL     1      25.934   3.991  49.609  1.00  0.00    -0.035 A 
HETATM   20  C10 UNL     1      25.027   3.545  50.111  1.00  0.00     0.096 A 
HETATM   21  C18 UNL     1      26.462   2.833  50.131  1.00  0.00     0.065 A 
BRANCH  20  22
HETATM   22  N3  UNL     1      24.458   2.522  50.854  1.00  0.00    -0.340 N 
HETATM   23  C11 UNL     1      23.514   1.591  51.277  1.00  0.00     0.248 C 
HETATM   24  O3  UNL     1      22.397   1.500  50.712  1.00  0.00    -0.268 OA
HETATM   25  H6  UNL     1      25.422   2.663  51.276  1.00  0.00     0.164 HD
BRANCH  23  26
HETATM   26  C12 UNL     1      23.967   0.783  52.397  1.00  0.00     0.013 A 
HETATM   27  C13 UNL     1      25.290   0.598  52.451  1.00  0.00     0.013 A 
HETATM   28  C14 UNL     1      25.576  -0.219  53.611  1.00  0.00     0.003 A 
HETATM   29  C15 UNL     1      24.466  -0.526  54.248  1.00  0.00    -0.079 A 
HETATM   30  C16 UNL     1      24.128  -1.305  55.455  1.00  0.00     0.043 C 
HETATM   31  C17 UNL     1      23.329   0.083  53.536  1.00  0.00     0.078 A 
ENDBRANCH  23  26
ENDBRANCH  20  22
ENDBRANCH   2  19
TORSDOF 8
ENDMDL
MODEL 4
REMARK VINA RESULT:      -8.3      2.018      9.621
REMARK  8 active torsions:
REMARK  status: ('A' for Active; 'I' for Inactive)
REMARK    1  A    between atoms: O1_2  and  C2_3 
REMARK    2  A    between atoms: C6_9  and  O2_10 
REMARK    3  A    between atoms: O2_10  and  C7_11 
REMARK    4  A    between atoms: C8_12  and  C9_13 
REMARK    5  A    between atoms: C10_14  and  N3_15 
REMARK       I    between atoms: N3_15  and  C11_16 
REMARK    6  A    between atoms: C11_16  and  C12_18 
REMARK    7  A    between atoms: C18_24  and  C19_25 
REMARK    8  A    between atoms: C22_28  and  O4_29 
ROOT
HETATM    1  C7  UNL     1      24.945   3.902  49.469  1.00  0.00     0.138 A 
HETATM    2  C8  UNL     1      25.696   4.724  49.251  1.00  0.00    -0.027 A 
HETATM    3  C19 UNL     1      26.491   3.613  49.490  1.00  0.00     0.072 A 
ENDROOT
BRANCH   1   4
HETATM    4  O2  UNL     1      24.280   2.864  49.735  1.00  0.00    -0.313 OA
BRANCH   4   5
HETATM    5  C6  UNL     1      23.049   2.597  50.219  1.00  0.00     0.179 A 
HETATM    6  N2  UNL     1      21.781   2.927  49.951  1.00  0.00    -0.217 NA
HETATM    7  C5  UNL     1      20.729   2.485  50.637  1.00  0.00     0.236 A 
HETATM    8  N1  UNL     1      20.898   1.651  51.679  1.00  0.00    -0.241 NA
HETATM    9  C4  UNL     1      22.143   1.244  52.048  1.00  0.00     0.075 A 
HETATM   10  C3  UNL     1      22.196   0.403  53.113  1.00  0.00     0.072 A 
HETATM   11  C20 UNL     1      23.218   1.737  51.295  1.00  0.00     0.049 A 
HETATM   12  C2  UNL     1      23.436  -0.024  53.510  1.00  0.00     0.103 A 
HETATM   13  C22 UNL     1      24.577   0.382  52.858  1.00  0.00     0.102 A 
HETATM   14  C21 UNL     1      24.426   1.235  51.789  1.00  0.00     0.057 A 
BRANCH  12  15
HETATM   15  O1  UNL     1      23.602  -0.884  54.585  1.00  0.00    -0.353 OA
HETATM   16  C1  UNL     1      22.457  -1.459  55.186  1.00  0.00     0.210 C 
ENDBRANCH  12  15
BRANCH  13  17
HETATM   17  O4  UNL     1      25.845  -0.030  53.232  1.00  0.00    -0.353 OA
HETATM   18  C23 UNL     1      26.637  -0.754  52.334  1.00  0.00     0.210 C 
ENDBRANCH  13  17
ENDBRANCH   4   5
ENDBRANCH   1   4
BRANCH   2  19
HETATM   19  C9  UNL     1      26.405   5.468  49.053  1.00  0.00    -0.035 A 
HETATM   20  C10 UNL     1      27.186   6.254  48.839  1.00  0.00     0.096 A 
HETATM   21  C18 UNL     1      27.543   4.698  48.972  1.00  0.00     0.065 A 
BRANCH  20  22
HETATM   22  N3  UNL     1      28.511   6.584  48.596  1.00  0.00    -0.340 N 
HETATM   23  C11 UNL     1      29.624   7.366  48.309  1.00  0.00     0.248 C 
HETATM   24  O3  UNL     1      29.517   8.603  48.122  1.00  0.00    -0.268 OA
HETATM   25  H6  UNL     1      28.516   5.536  48.766  1.00  0.00     0.164 HD
BRANCH  23  26
HETATM   26  C12 UNL     1      30.862   6.606  48.257  1.00  0.00     0.013 A 
HETATM   27  C13 UNL     1      30.739   5.378  47.741  1.00  0.00     0.013 A 
HETATM   28  C14 UNL     1      32.047   4.757  47.759  1.00  0.00     0.003 A 
HETATM   29  C15 UNL     1      32.943   5.575  48.269  1.00  0.00    -0.079 A 
HETATM   30  C16 UNL     1      34.392   5.512  48.538  1.00  0.00     0.043 C 
HETATM   31  C17 UNL     1      32.276   6.837  48.637  1.00  0.00     0.078 A 
ENDBRANCH  23  26
ENDBRANCH  20  22
ENDBRANCH   2  19
TORSDOF 8
ENDMDL
MODEL 5
REMARK VINA RESULT:      -8.3      5.755      8.791
REMARK  8 active torsions:
REMARK  status: ('A' for Active; 'I' for Inactive)
REMARK    1  A    between atoms: O1_2  and  C2_3 
REMARK    2  A    between atoms: C6_9  and  O2_10 
REMARK    3  A    between atoms: O2_10  and  C7_11 
REMARK    4  A    between atoms: C8_12  and  C9_13 
REMARK    5  A    between atoms: C10_14  and  N3_15 
REMARK       I    between atoms: N3_15  and  C11_16 
REMARK    6  A    between atoms: C11_16  and  C12_18 
REMARK    7  A    between atoms: C18_24  and  C19_25 
REMARK    8  A    between atoms: C22_28  and  O4_29 
ROOT
HETATM    1  C7  UNL     1      21.789   1.823  52.330  1.00  0.00     0.138 A 
HETATM    2  C8  UNL     1      20.728   1.475  52.132  1.00  0.00    -0.027 A 
HETATM    3  C19 UNL     1      21.244   0.488  52.958  1.00  0.00     0.072 A 
ENDROOT
BRANCH   1   4
HETATM    4  O2  UNL     1      22.986   2.034  52.667  1.00  0.00    -0.313 OA
BRANCH   4   5
HETATM    5  C6  UNL     1      24.135   2.338  52.029  1.00  0.00     0.179 A 
HETATM    6  N2  UNL     1      24.554   3.183  51.081  1.00  0.00    -0.217 NA
HETATM    7  C5  UNL     1      25.808   3.253  50.638  1.00  0.00     0.236 A 
HETATM    8  N1  UNL     1      26.754   2.442  51.144  1.00  0.00    -0.241 NA
HETATM    9  C4  UNL     1      26.449   1.539  52.115  1.00  0.00     0.075 A 
HETATM   10  C3  UNL     1      27.481   0.773  52.551  1.00  0.00     0.072 A 
HETATM   11  C20 UNL     1      25.115   1.503  52.547  1.00  0.00     0.049 A 
HETATM   12  C2  UNL     1      27.206  -0.148  53.529  1.00  0.00     0.103 A 
HETATM   13  C22 UNL     1      25.938  -0.288  54.044  1.00  0.00     0.102 A 
HETATM   14  C21 UNL     1      24.955   0.532  53.540  1.00  0.00     0.057 A 
BRANCH  12  15
HETATM   15  O1  UNL     1      28.187  -0.980  54.045  1.00  0.00    -0.353 OA
HETATM   16  C1  UNL     1      29.545  -0.701  53.756  1.00  0.00     0.210 C 
ENDBRANCH  12  15
BRANCH  13  17
HETATM   17  O4  UNL     1      25.625  -1.207  55.032  1.00  0.00    -0.353 OA
HETATM   18  C23 UNL     1      24.334  -1.239  55.571  1.00  0.00     0.210 C 
ENDBRANCH  13  17
ENDBRANCH   4   5
ENDBRANCH   1   4
BRANCH   2  19
HETATM   19  C9  UNL     1      19.752   1.137  51.962  1.00  0.00    -0.035 A 
HETATM   20  C10 UNL     1      18.704   0.753  51.791  1.00  0.00     0.096 A 
HETATM   21  C18 UNL     1      19.801  -0.074  52.616  1.00  0.00     0.065 A 
BRANCH  20  22
HETATM   22  N3  UNL     1      17.753  -0.239  51.974  1.00  0.00    -0.340 N 
HETATM   23  C11 UNL     1      16.536  -0.906  51.883  1.00  0.00     0.248 C 
HETATM   24  O3  UNL     1      15.569  -0.408  51.257  1.00  0.00    -0.268 OA
HETATM   25  H6  UNL     1      18.616  -0.590  52.483  1.00  0.00     0.164 HD
BRANCH  23  26
HETATM   26  C12 UNL     1      16.530  -2.187  52.572  1.00  0.00     0.013 A 
HETATM   27  C13 UNL     1      17.580  -2.391  53.375  1.00  0.00     0.013 A 
HETATM   28  C14 UNL     1      17.426  -3.697  53.980  1.00  0.00     0.003 A 
HETATM   29  C15 UNL     1      16.321  -4.276  53.563  1.00  0.00    -0.079 A 
HETATM   30  C16 UNL     1      15.648  -5.564  53.816  1.00  0.00     0.043 C 
HETATM   31  C17 UNL     1      15.638  -3.369  52.623  1.00  0.00     0.078 A 
ENDBRANCH  23  26
ENDBRANCH  20  22
ENDBRANCH   2  19
TORSDOF 8
ENDMDL
MODEL 6
REMARK VINA RESULT:      -7.8      2.307      9.478
REMARK  8 active torsions:
REMARK  status: ('A' for Active; 'I' for Inactive)
REMARK    1  A    between atoms: O1_2  and  C2_3 
REMARK    2  A    between atoms: C6_9  and  O2_10 
REMARK    3  A    between atoms: O2_10  and  C7_11 
REMARK    4  A    between atoms: C8_12  and  C9_13 
REMARK    5  A    between atoms: C10_14  and  N3_15 
REMARK       I    between atoms: N3_15  and  C11_16 
REMARK    6  A    between atoms: C11_16  and  C12_18 
REMARK    7  A    between atoms: C18_24  and  C19_25 
REMARK    8  A    between atoms: C22_28  and  O4_29 
ROOT
HETATM    1  C7  UNL     1      26.214   5.160  49.167  1.00  0.00     0.138 A 
HETATM    2  C8  UNL     1      27.102   5.669  48.678  1.00  0.00    -0.027 A 
HETATM    3  C19 UNL     1      26.374   6.725  49.204  1.00  0.00     0.072 A 
ENDROOT
BRANCH   1   4
HETATM    4  O2  UNL     1      25.166   4.792  49.764  1.00  0.00    -0.313 OA
BRANCH   4   5
HETATM    5  C6  UNL     1      24.140   3.957  49.498  1.00  0.00     0.179 A 
HETATM    6  N2  UNL     1      23.222   3.781  48.542  1.00  0.00    -0.217 NA
HETATM    7  C5  UNL     1      22.296   2.824  48.557  1.00  0.00     0.236 A 
HETATM    8  N1  UNL     1      22.236   1.952  49.579  1.00  0.00    -0.241 NA
HETATM    9  C4  UNL     1      23.118   2.030  50.612  1.00  0.00     0.075 A 
HETATM   10  C3  UNL     1      22.965   1.099  51.589  1.00  0.00     0.072 A 
HETATM   11  C20 UNL     1      24.074   3.054  50.550  1.00  0.00     0.049 A 
HETATM   12  C2  UNL     1      23.838   1.151  52.644  1.00  0.00     0.103 A 
HETATM   13  C22 UNL     1      24.826   2.107  52.709  1.00  0.00     0.102 A 
HETATM   14  C21 UNL     1      24.905   3.008  51.673  1.00  0.00     0.057 A 
BRANCH  12  15
HETATM   15  O1  UNL     1      23.770   0.248  53.693  1.00  0.00    -0.353 OA
HETATM   16  C1  UNL     1      22.773  -0.757  53.669  1.00  0.00     0.210 C 
ENDBRANCH  12  15
BRANCH  13  17
HETATM   17  O4  UNL     1      25.725   2.188  53.759  1.00  0.00    -0.353 OA
HETATM   18  C23 UNL     1      27.087   1.962  53.532  1.00  0.00     0.210 C 
ENDBRANCH  13  17
ENDBRANCH   4   5
ENDBRANCH   1   4
BRANCH   2  19
HETATM   19  C9  UNL     1      27.914   6.157  48.232  1.00  0.00    -0.035 A 
HETATM   20  C10 UNL     1      28.803   6.664  47.755  1.00  0.00     0.096 A 
HETATM   21  C18 UNL     1      28.855   5.154  48.288  1.00  0.00     0.065 A 
BRANCH  20  22
HETATM   22  N3  UNL     1      30.124   6.611  47.340  1.00  0.00    -0.340 N 
HETATM   23  C11 UNL     1      31.341   7.037  46.817  1.00  0.00     0.248 C 
HETATM   24  O3  UNL     1      31.498   8.216  46.417  1.00  0.00    -0.268 OA
HETATM   25  H6  UNL     1      29.910   5.635  47.697  1.00  0.00     0.164 HD
BRANCH  23  26
HETATM   26  C12 UNL     1      32.353   5.993  46.794  1.00  0.00     0.013 A 
HETATM   27  C13 UNL     1      32.517   5.353  47.958  1.00  0.00     0.013 A 
HETATM   28  C14 UNL     1      33.549   4.356  47.771  1.00  0.00     0.003 A 
HETATM   29  C15 UNL     1      34.004   4.382  46.536  1.00  0.00    -0.079 A 
HETATM   30  C16 UNL     1      35.021   3.632  45.774  1.00  0.00     0.043 C 
HETATM   31  C17 UNL     1      33.285   5.430  45.790  1.00  0.00     0.078 A 
ENDBRANCH  23  26
ENDBRANCH  20  22
ENDBRANCH   2  19
TORSDOF 8
ENDMDL
MODEL 7
REMARK VINA RESULT:      -7.8      6.762     11.405
REMARK  8 active torsions:
REMARK  status: ('A' for Active; 'I' for Inactive)
REMARK    1  A    between atoms: O1_2  and  C2_3 
REMARK    2  A    between atoms: C6_9  and  O2_10 
REMARK    3  A    between atoms: O2_10  and  C7_11 
REMARK    4  A    between atoms: C8_12  and  C9_13 
REMARK    5  A    between atoms: C10_14  and  N3_15 
REMARK       I    between atoms: N3_15  and  C11_16 
REMARK    6  A    between atoms: C11_16  and  C12_18 
REMARK    7  A    between atoms: C18_24  and  C19_25 
REMARK    8  A    between atoms: C22_28  and  O4_29 
ROOT
HETATM    1  C7  UNL     1      19.549  -0.923  53.586  1.00  0.00     0.138 A 
HETATM    2  C8  UNL     1      18.513  -1.317  53.348  1.00  0.00    -0.027 A 
HETATM    3  C19 UNL     1      18.727  -0.359  52.369  1.00  0.00     0.072 A 
ENDROOT
BRANCH   1   4
HETATM    4  O2  UNL     1      20.673  -0.357  53.682  1.00  0.00    -0.313 OA
BRANCH   4   5
HETATM    5  C6  UNL     1      21.866  -0.658  54.235  1.00  0.00     0.179 A 
HETATM    6  N2  UNL     1      22.335  -1.368  55.266  1.00  0.00    -0.217 NA
HETATM    7  C5  UNL     1      23.626  -1.482  55.574  1.00  0.00     0.236 A 
HETATM    8  N1  UNL     1      24.560  -0.862  54.832  1.00  0.00    -0.241 NA
HETATM    9  C4  UNL     1      24.205  -0.109  53.755  1.00  0.00     0.075 A 
HETATM   10  C3  UNL     1      25.229   0.471  53.078  1.00  0.00     0.072 A 
HETATM   11  C20 UNL     1      22.834  -0.019  53.471  1.00  0.00     0.049 A 
HETATM   12  C2  UNL     1      24.904   1.237  51.989  1.00  0.00     0.103 A 
HETATM   13  C22 UNL     1      23.595   1.409  51.599  1.00  0.00     0.102 A 
HETATM   14  C21 UNL     1      22.625   0.782  52.345  1.00  0.00     0.057 A 
BRANCH  12  15
HETATM   15  O1  UNL     1      25.873   1.873  51.229  1.00  0.00    -0.353 OA
HETATM   16  C1  UNL     1      27.063   2.307  51.859  1.00  0.00     0.210 C 
ENDBRANCH  12  15
BRANCH  13  17
HETATM   17  O4  UNL     1      23.231   2.174  50.504  1.00  0.00    -0.353 OA
HETATM   18  C23 UNL     1      22.697   3.453  50.693  1.00  0.00     0.210 C 
ENDBRANCH  13  17
ENDBRANCH   4   5
ENDBRANCH   1   4
BRANCH   2  19
HETATM   19  C9  UNL     1      17.555  -1.668  53.112  1.00  0.00    -0.035 A 
HETATM   20  C10 UNL     1      16.528  -2.068  52.867  1.00  0.00     0.096 A 
HETATM   21  C18 UNL     1      17.637  -2.945  53.618  1.00  0.00     0.065 A 
BRANCH  20  22
HETATM   22  N3  UNL     1      15.614  -3.109  52.903  1.00  0.00    -0.340 N 
HETATM   23  C11 UNL     1      14.479  -3.854  52.601  1.00  0.00     0.248 C 
HETATM   24  O3  UNL     1      13.639  -3.444  51.763  1.00  0.00    -0.268 OA
HETATM   25  H6  UNL     1      16.369  -3.383  53.597  1.00  0.00     0.164 HD
BRANCH  23  26
HETATM   26  C12 UNL     1      14.397  -5.102  53.341  1.00  0.00     0.013 A 
HETATM   27  C13 UNL     1      15.148  -5.142  54.448  1.00  0.00     0.013 A 
HETATM   28  C14 UNL     1      14.957  -6.438  55.064  1.00  0.00     0.003 A 
HETATM   29  C15 UNL     1      14.120  -7.170  54.361  1.00  0.00    -0.079 A 
HETATM   30  C16 UNL     1      13.553  -8.527  54.480  1.00  0.00     0.043 C 
HETATM   31  C17 UNL     1      13.678  -6.389  53.191  1.00  0.00     0.078 A 
ENDBRANCH  23  26
ENDBRANCH  20  22
ENDBRANCH   2  19
TORSDOF 8
ENDMDL
MODEL 8
REMARK VINA RESULT:      -7.8      2.478      4.597
REMARK  8 active torsions:
REMARK  status: ('A' for Active; 'I' for Inactive)
REMARK    1  A    between atoms: O1_2  and  C2_3 
REMARK    2  A    between atoms: C6_9  and  O2_10 
REMARK    3  A    between atoms: O2_10  and  C7_11 
REMARK    4  A    between atoms: C8_12  and  C9_13 
REMARK    5  A    between atoms: C10_14  and  N3_15 
REMARK       I    between atoms: N3_15  and  C11_16 
REMARK    6  A    between atoms: C11_16  and  C12_18 
REMARK    7  A    between atoms: C18_24  and  C19_25 
REMARK    8  A    between atoms: C22_28  and  O4_29 
ROOT
HETATM    1  C7  UNL     1      27.651   5.140  48.576  1.00  0.00     0.138 A 
HETATM    2  C8  UNL     1      27.105   4.336  49.160  1.00  0.00    -0.027 A 
HETATM    3  C19 UNL     1      26.244   5.421  49.219  1.00  0.00     0.072 A 
ENDROOT
BRANCH   1   4
HETATM    4  O2  UNL     1      28.091   6.156  47.970  1.00  0.00    -0.313 OA
BRANCH   4   5
HETATM    5  C6  UNL     1      29.263   6.822  47.915  1.00  0.00     0.179 A 
HETATM    6  N2  UNL     1      30.543   6.559  47.635  1.00  0.00    -0.217 NA
HETATM    7  C5  UNL     1      31.520   7.465  47.667  1.00  0.00     0.236 A 
HETATM    8  N1  UNL     1      31.253   8.741  47.999  1.00  0.00    -0.241 NA
HETATM    9  C4  UNL     1      29.985   9.129  48.305  1.00  0.00     0.075 A 
HETATM   10  C3  UNL     1      29.832  10.440  48.625  1.00  0.00     0.072 A 
HETATM   11  C20 UNL     1      28.993   8.139  48.257  1.00  0.00     0.049 A 
HETATM   12  C2  UNL     1      28.566  10.862  48.939  1.00  0.00     0.103 A 
HETATM   13  C22 UNL     1      27.499   9.994  48.930  1.00  0.00     0.102 A 
HETATM   14  C21 UNL     1      27.750   8.684  48.593  1.00  0.00     0.057 A 
BRANCH  12  15
HETATM   15  O1  UNL     1      28.300  12.179  49.280  1.00  0.00    -0.353 OA
HETATM   16  C1  UNL     1      28.180  13.143  48.251  1.00  0.00     0.210 C 
ENDBRANCH  12  15
BRANCH  13  17
HETATM   17  O4  UNL     1      26.208  10.386  49.242  1.00  0.00    -0.353 OA
HETATM   18  C23 UNL     1      25.179  10.205  48.310  1.00  0.00     0.210 C 
ENDBRANCH  13  17
ENDBRANCH   4   5
ENDBRANCH   1   4
BRANCH   2  19
HETATM   19  C9  UNL     1      26.585   3.607  49.703  1.00  0.00    -0.035 A 
HETATM   20  C10 UNL     1      26.008   2.838  50.293  1.00  0.00     0.096 A 
HETATM   21  C18 UNL     1      25.515   4.354  50.140  1.00  0.00     0.065 A 
BRANCH  20  22
HETATM   22  N3  UNL     1      24.909   2.511  51.072  1.00  0.00    -0.340 N 
HETATM   23  C11 UNL     1      24.080   2.442  52.187  1.00  0.00     0.248 C 
HETATM   24  O3  UNL     1      24.407   2.982  53.273  1.00  0.00    -0.268 OA
HETATM   25  H6  UNL     1      24.708   2.083  50.122  1.00  0.00     0.164 HD
BRANCH  23  26
HETATM   26  C12 UNL     1      22.852   1.703  51.945  1.00  0.00     0.013 A 
HETATM   27  C13 UNL     1      22.596   1.458  50.655  1.00  0.00     0.013 A 
HETATM   28  C14 UNL     1      21.352   0.721  50.583  1.00  0.00     0.003 A 
HETATM   29  C15 UNL     1      20.860   0.521  51.787  1.00  0.00    -0.079 A 
HETATM   30  C16 UNL     1      19.662  -0.143  52.337  1.00  0.00     0.043 C 
HETATM   31  C17 UNL     1      21.769   1.127  52.776  1.00  0.00     0.078 A 
ENDBRANCH  23  26
ENDBRANCH  20  22
ENDBRANCH   2  19
TORSDOF 8
ENDMDL
MODEL 9
REMARK VINA RESULT:      -7.7      3.174      9.538
REMARK  8 active torsions:
REMARK  status: ('A' for Active; 'I' for Inactive)
REMARK    1  A    between atoms: O1_2  and  C2_3 
REMARK    2  A    between atoms: C6_9  and  O2_10 
REMARK    3  A    between atoms: O2_10  and  C7_11 
REMARK    4  A    between atoms: C8_12  and  C9_13 
REMARK    5  A    between atoms: C10_14  and  N3_15 
REMARK       I    between atoms: N3_15  and  C11_16 
REMARK    6  A    between atoms: C11_16  and  C12_18 
REMARK    7  A    between atoms: C18_24  and  C19_25 
REMARK    8  A    between atoms: C22_28  and  O4_29 
ROOT
HETATM    1  C7  UNL     1      23.834   3.841  50.422  1.00  0.00     0.138 A 
HETATM    2  C8  UNL     1      24.317   4.866  50.469  1.00  0.00    -0.027 A 
HETATM    3  C19 UNL     1      24.909   4.279  49.361  1.00  0.00     0.072 A 
ENDROOT
BRANCH   1   4
HETATM    4  O2  UNL     1      23.419   2.671  50.199  1.00  0.00    -0.313 OA
BRANCH   4   5
HETATM    5  C6  UNL     1      22.563   1.815  50.795  1.00  0.00     0.179 A 
HETATM    6  N2  UNL     1      21.271   1.481  50.712  1.00  0.00    -0.217 NA
HETATM    7  C5  UNL     1      20.685   0.555  51.469  1.00  0.00     0.236 A 
HETATM    8  N1  UNL     1      21.394  -0.117  52.394  1.00  0.00    -0.241 NA
HETATM    9  C4  UNL     1      22.720   0.136  52.571  1.00  0.00     0.075 A 
HETATM   10  C3  UNL     1      23.336  -0.601  53.531  1.00  0.00     0.072 A 
HETATM   11  C20 UNL     1      23.291   1.119  51.750  1.00  0.00     0.049 A 
HETATM   12  C2  UNL     1      24.672  -0.370  53.734  1.00  0.00     0.103 A 
HETATM   13  C22 UNL     1      25.357   0.568  52.996  1.00  0.00     0.102 A 
HETATM   14  C21 UNL     1      24.649   1.266  52.046  1.00  0.00     0.057 A 
BRANCH  12  15
HETATM   15  O1  UNL     1      25.396  -1.067  54.688  1.00  0.00    -0.353 OA
HETATM   16  C1  UNL     1      25.110  -0.853  56.058  1.00  0.00     0.210 C 
ENDBRANCH  12  15
BRANCH  13  17
HETATM   17  O4  UNL     1      26.705   0.827  53.175  1.00  0.00    -0.353 OA
HETATM   18  C23 UNL     1      27.296   1.924  52.539  1.00  0.00     0.210 C 
ENDBRANCH  13  17
ENDBRANCH   4   5
ENDBRANCH   1   4
BRANCH   2  19
HETATM   19  C9  UNL     1      24.774   5.808  50.494  1.00  0.00    -0.035 A 
HETATM   20  C10 UNL     1      25.284   6.815  50.507  1.00  0.00     0.096 A 
HETATM   21  C18 UNL     1      25.855   5.571  49.675  1.00  0.00     0.065 A 
BRANCH  20  22
HETATM   22  N3  UNL     1      26.325   7.630  50.090  1.00  0.00    -0.340 N 
HETATM   23  C11 UNL     1      27.080   8.784  49.907  1.00  0.00     0.248 C 
HETATM   24  O3  UNL     1      26.694   9.889  50.360  1.00  0.00    -0.268 OA
HETATM   25  H6  UNL     1      26.579   6.661  49.740  1.00  0.00     0.164 HD
BRANCH  23  26
HETATM   26  C12 UNL     1      28.307   8.555  49.163  1.00  0.00     0.013 A 
HETATM   27  C13 UNL     1      29.271   9.455  49.390  1.00  0.00     0.013 A 
HETATM   28  C14 UNL     1      30.415   9.090  48.582  1.00  0.00     0.003 A 
HETATM   29  C15 UNL     1      30.164   8.005  47.882  1.00  0.00    -0.079 A 
HETATM   30  C16 UNL     1      30.913   7.181  46.913  1.00  0.00     0.043 C 
HETATM   31  C17 UNL     1      28.793   7.555  48.183  1.00  0.00     0.078 A 
ENDBRANCH  23  26
ENDBRANCH  20  22
ENDBRANCH   2  19
TORSDOF 8
ENDMDL
