MODEL 1
REMARK VINA RESULT:     -10.3      0.000      0.000
REMARK  3 active torsions:
REMARK  status: ('A' for Active; 'I' for Inactive)
REMARK    1  A    between atoms: C3_3  and  C4_4 
REMARK    2  A    between atoms: C4_4  and  N1_5 
REMARK    3  A    between atoms: N1_5  and  C5_6 
ROOT
HETATM    1  C5  UNL     1      24.254   1.437  52.731  1.00  0.00     0.045 A 
HETATM    2  C6  UNL     1      23.046   0.773  52.809  1.00  0.00     0.049 A 
HETATM    3  C7  UNL     1      22.837  -0.375  53.536  1.00  0.00     0.122 A 
HETATM    4  N2  UNL     1      23.878  -0.894  54.223  1.00  0.00    -0.236 NA
HETATM    5  C8  UNL     1      25.094  -0.318  54.208  1.00  0.00     0.183 A 
HETATM    6  O1  UNL     1      26.231  -0.619  54.776  1.00  0.00    -0.290 OA
HETATM    7  C9  UNL     1      27.156   0.252  54.464  1.00  0.00     0.089 A 
HETATM    8  C10 UNL     1      28.482   0.344  54.819  1.00  0.00     0.038 A 
HETATM    9  C11 UNL     1      29.257   1.379  54.348  1.00  0.00     0.003 A 
HETATM   10  C12 UNL     1      28.646   2.319  53.506  1.00  0.00     0.001 A 
HETATM   11  C13 UNL     1      27.318   2.198  53.171  1.00  0.00     0.015 A 
HETATM   12  C14 UNL     1      26.558   1.176  53.637  1.00  0.00     0.015 A 
HETATM   13  C15 UNL     1      25.244   0.831  53.463  1.00  0.00     0.057 A 
ENDROOT
BRANCH   1  14
HETATM   14  N1  UNL     1      24.327   2.618  51.962  1.00  0.00    -0.385 N 
HETATM   15  H5  UNL     1      24.447   3.610  52.186  1.00  0.00     0.160 HD
BRANCH  14  16
HETATM   16  C4  UNL     1      24.221   2.507  50.535  1.00  0.00     0.159 C 
BRANCH  16  17
HETATM   17  C3  UNL     1      25.155   3.505  49.914  1.00  0.00    -0.029 A 
HETATM   18  C2  UNL     1      24.807   4.855  49.493  1.00  0.00    -0.026 A 
HETATM   19  C1  UNL     1      23.586   5.335  49.632  1.00  0.00     0.025 C 
HETATM   20  C22 UNL     1      25.928   5.585  48.921  1.00  0.00    -0.016 A 
HETATM   21  C17 UNL     1      26.945   4.664  49.003  1.00  0.00    -0.025 A 
HETATM   22  C21 UNL     1      26.103   6.847  48.395  1.00  0.00     0.013 A 
HETATM   23  C16 UNL     1      26.437   3.440  49.601  1.00  0.00     0.022 A 
HETATM   24  C18 UNL     1      28.220   4.978  48.548  1.00  0.00     0.012 A 
HETATM   25  C19 UNL     1      28.399   6.257  48.014  1.00  0.00     0.001 A 
HETATM   26  C20 UNL     1      27.362   7.176  47.939  1.00  0.00     0.001 A 
ENDBRANCH  16  17
ENDBRANCH  14  16
ENDBRANCH   1  14
TORSDOF 3
ENDMDL
MODEL 2
REMARK VINA RESULT:      -9.9      1.254      3.341
REMARK  3 active torsions:
REMARK  status: ('A' for Active; 'I' for Inactive)
REMARK    1  A    between atoms: C3_3  and  C4_4 
REMARK    2  A    between atoms: C4_4  and  N1_5 
REMARK    3  A    between atoms: N1_5  and  C5_6 
ROOT
HETATM    1  C5  UNL     1      26.985   1.750  52.875  1.00  0.00     0.045 A 
HETATM    2  C6  UNL     1      28.307   1.602  53.250  1.00  0.00     0.049 A 
HETATM    3  C7  UNL     1      28.769   0.622  54.095  1.00  0.00     0.122 A 
HETATM    4  N2  UNL     1      27.876  -0.260  54.597  1.00  0.00    -0.236 NA
HETATM    5  C8  UNL     1      26.568  -0.198  54.289  1.00  0.00     0.183 A 
HETATM    6  O1  UNL     1      25.535  -0.917  54.636  1.00  0.00    -0.290 OA
HETATM    7  C9  UNL     1      24.442  -0.468  54.075  1.00  0.00     0.089 A 
HETATM    8  C10 UNL     1      23.136  -0.896  54.145  1.00  0.00     0.038 A 
HETATM    9  C11 UNL     1      22.151  -0.237  53.443  1.00  0.00     0.003 A 
HETATM   10  C12 UNL     1      22.530   0.868  52.669  1.00  0.00     0.001 A 
HETATM   11  C13 UNL     1      23.845   1.269  52.621  1.00  0.00     0.015 A 
HETATM   12  C14 UNL     1      24.812   0.618  53.313  1.00  0.00     0.015 A 
HETATM   13  C15 UNL     1      26.164   0.805  53.437  1.00  0.00     0.057 A 
ENDROOT
BRANCH   1  14
HETATM   14  N1  UNL     1      26.649   2.790  51.983  1.00  0.00    -0.385 N 
HETATM   15  H5  UNL     1      26.439   3.786  52.094  1.00  0.00     0.160 HD
BRANCH  14  16
HETATM   16  C4  UNL     1      26.556   2.482  50.585  1.00  0.00     0.159 C 
BRANCH  16  17
HETATM   17  C3  UNL     1      26.430   3.771  49.825  1.00  0.00    -0.029 A 
HETATM   18  C2  UNL     1      25.189   4.467  49.520  1.00  0.00    -0.026 A 
HETATM   19  C1  UNL     1      24.016   4.001  49.907  1.00  0.00     0.025 C 
HETATM   20  C22 UNL     1      25.388   5.694  48.765  1.00  0.00    -0.016 A 
HETATM   21  C17 UNL     1      26.755   5.727  48.622  1.00  0.00    -0.025 A 
HETATM   22  C21 UNL     1      24.559   6.670  48.254  1.00  0.00     0.013 A 
HETATM   23  C16 UNL     1      27.332   4.561  49.270  1.00  0.00     0.022 A 
HETATM   24  C18 UNL     1      27.369   6.770  47.939  1.00  0.00     0.012 A 
HETATM   25  C19 UNL     1      26.530   7.760  47.420  1.00  0.00     0.001 A 
HETATM   26  C20 UNL     1      25.151   7.714  47.574  1.00  0.00     0.001 A 
ENDBRANCH  16  17
ENDBRANCH  14  16
ENDBRANCH   1  14
TORSDOF 3
ENDMDL
MODEL 3
REMARK VINA RESULT:      -9.5      2.863      5.127
REMARK  3 active torsions:
REMARK  status: ('A' for Active; 'I' for Inactive)
REMARK    1  A    between atoms: C3_3  and  C4_4 
REMARK    2  A    between atoms: C4_4  and  N1_5 
REMARK    3  A    between atoms: N1_5  and  C5_6 
ROOT
HETATM    1  C5  UNL     1      26.662   0.645  52.741  1.00  0.00     0.045 A 
HETATM    2  C6  UNL     1      27.988   0.869  53.055  1.00  0.00     0.049 A 
HETATM    3  C7  UNL     1      28.569   0.533  54.255  1.00  0.00     0.122 A 
HETATM    4  N2  UNL     1      27.797  -0.055  55.195  1.00  0.00    -0.236 NA
HETATM    5  C8  UNL     1      26.494  -0.315  54.981  1.00  0.00     0.183 A 
HETATM    6  O1  UNL     1      25.562  -0.862  55.714  1.00  0.00    -0.290 OA
HETATM    7  C9  UNL     1      24.423  -0.901  55.070  1.00  0.00     0.089 A 
HETATM    8  C10 UNL     1      23.185  -1.379  55.433  1.00  0.00     0.038 A 
HETATM    9  C11 UNL     1      22.127  -1.301  54.555  1.00  0.00     0.003 A 
HETATM   10  C12 UNL     1      22.363  -0.725  53.299  1.00  0.00     0.001 A 
HETATM   11  C13 UNL     1      23.613  -0.258  52.969  1.00  0.00     0.015 A 
HETATM   12  C14 UNL     1      24.653  -0.336  53.836  1.00  0.00     0.015 A 
HETATM   13  C15 UNL     1      25.967   0.043  53.760  1.00  0.00     0.057 A 
ENDROOT
BRANCH   1  14
HETATM   14  N1  UNL     1      26.197   1.022  51.463  1.00  0.00    -0.385 N 
HETATM   15  H5  UNL     1      25.996   0.514  50.598  1.00  0.00     0.160 HD
BRANCH  14  16
HETATM   16  C4  UNL     1      25.914   2.409  51.226  1.00  0.00     0.159 C 
BRANCH  16  17
HETATM   17  C3  UNL     1      24.425   2.579  51.144  1.00  0.00    -0.029 A 
HETATM   18  C2  UNL     1      23.571   3.152  52.175  1.00  0.00    -0.026 A 
HETATM   19  C1  UNL     1      24.059   3.591  53.319  1.00  0.00     0.025 C 
HETATM   20  C22 UNL     1      22.164   3.179  51.805  1.00  0.00    -0.016 A 
HETATM   21  C17 UNL     1      22.183   2.622  50.549  1.00  0.00    -0.025 A 
HETATM   22  C21 UNL     1      21.005   3.608  52.416  1.00  0.00     0.013 A 
HETATM   23  C16 UNL     1      23.552   2.280  50.198  1.00  0.00     0.022 A 
HETATM   24  C18 UNL     1      21.006   2.463  49.828  1.00  0.00     0.012 A 
HETATM   25  C19 UNL     1      19.829   2.896  50.446  1.00  0.00     0.001 A 
HETATM   26  C20 UNL     1      19.826   3.458  51.714  1.00  0.00     0.001 A 
ENDBRANCH  16  17
ENDBRANCH  14  16
ENDBRANCH   1  14
TORSDOF 3
ENDMDL
MODEL 4
REMARK VINA RESULT:      -9.4      1.458      4.021
REMARK  3 active torsions:
REMARK  status: ('A' for Active; 'I' for Inactive)
REMARK    1  A    between atoms: C3_3  and  C4_4 
REMARK    2  A    between atoms: C4_4  and  N1_5 
REMARK    3  A    between atoms: N1_5  and  C5_6 
ROOT
HETATM    1  C5  UNL     1      26.817   1.776  53.138  1.00  0.00     0.045 A 
HETATM    2  C6  UNL     1      28.142   1.680  53.514  1.00  0.00     0.049 A 
HETATM    3  C7  UNL     1      28.642   0.716  54.357  1.00  0.00     0.122 A 
HETATM    4  N2  UNL     1      27.784  -0.203  54.854  1.00  0.00    -0.236 NA
HETATM    5  C8  UNL     1      26.475  -0.192  54.544  1.00  0.00     0.183 A 
HETATM    6  O1  UNL     1      25.471  -0.952  54.887  1.00  0.00    -0.290 OA
HETATM    7  C9  UNL     1      24.361  -0.545  54.325  1.00  0.00     0.089 A 
HETATM    8  C10 UNL     1      23.074  -1.025  54.392  1.00  0.00     0.038 A 
HETATM    9  C11 UNL     1      22.064  -0.404  53.691  1.00  0.00     0.003 A 
HETATM   10  C12 UNL     1      22.401   0.718  52.922  1.00  0.00     0.001 A 
HETATM   11  C13 UNL     1      23.698   1.172  52.878  1.00  0.00     0.015 A 
HETATM   12  C14 UNL     1      24.690   0.558  53.569  1.00  0.00     0.015 A 
HETATM   13  C15 UNL     1      26.032   0.798  53.695  1.00  0.00     0.057 A 
ENDROOT
BRANCH   1  14
HETATM   14  N1  UNL     1      26.440   2.806  52.250  1.00  0.00    -0.385 N 
HETATM   15  H5  UNL     1      26.083   3.758  52.370  1.00  0.00     0.160 HD
BRANCH  14  16
HETATM   16  C4  UNL     1      26.548   2.560  50.840  1.00  0.00     0.159 C 
BRANCH  16  17
HETATM   17  C3  UNL     1      25.422   3.272  50.149  1.00  0.00    -0.029 A 
HETATM   18  C2  UNL     1      25.534   4.495  49.368  1.00  0.00    -0.026 A 
HETATM   19  C1  UNL     1      26.690   5.107  49.193  1.00  0.00     0.025 C 
HETATM   20  C22 UNL     1      24.263   4.948  48.823  1.00  0.00    -0.016 A 
HETATM   21  C17 UNL     1      23.393   3.987  49.282  1.00  0.00    -0.025 A 
HETATM   22  C21 UNL     1      23.859   6.012  48.045  1.00  0.00     0.013 A 
HETATM   23  C16 UNL     1      24.129   3.010  50.067  1.00  0.00     0.022 A 
HETATM   24  C18 UNL     1      22.040   4.055  48.973  1.00  0.00     0.012 A 
HETATM   25  C19 UNL     1      21.628   5.133  48.185  1.00  0.00     0.001 A 
HETATM   26  C20 UNL     1      22.519   6.094  47.729  1.00  0.00     0.001 A 
ENDBRANCH  16  17
ENDBRANCH  14  16
ENDBRANCH   1  14
TORSDOF 3
ENDMDL
MODEL 5
REMARK VINA RESULT:      -9.1      2.655      6.710
REMARK  3 active torsions:
REMARK  status: ('A' for Active; 'I' for Inactive)
REMARK    1  A    between atoms: C3_3  and  C4_4 
REMARK    2  A    between atoms: C4_4  and  N1_5 
REMARK    3  A    between atoms: N1_5  and  C5_6 
ROOT
HETATM    1  C5  UNL     1      22.365   5.105  50.577  1.00  0.00     0.045 A 
HETATM    2  C6  UNL     1      21.376   6.038  50.820  1.00  0.00     0.049 A 
HETATM    3  C7  UNL     1      21.515   7.389  50.613  1.00  0.00     0.122 A 
HETATM    4  N2  UNL     1      22.696   7.844  50.140  1.00  0.00    -0.236 NA
HETATM    5  C8  UNL     1      23.719   7.012  49.872  1.00  0.00     0.183 A 
HETATM    6  O1  UNL     1      24.929   7.203  49.418  1.00  0.00    -0.290 OA
HETATM    7  C9  UNL     1      25.576   6.071  49.319  1.00  0.00     0.089 A 
HETATM    8  C10 UNL     1      26.854   5.782  48.897  1.00  0.00     0.038 A 
HETATM    9  C11 UNL     1      27.305   4.482  48.888  1.00  0.00     0.003 A 
HETATM   10  C12 UNL     1      26.421   3.483  49.320  1.00  0.00     0.001 A 
HETATM   11  C13 UNL     1      25.151   3.806  49.735  1.00  0.00     0.015 A 
HETATM   12  C14 UNL     1      24.710   5.088  49.743  1.00  0.00     0.015 A 
HETATM   13  C15 UNL     1      23.521   5.668  50.098  1.00  0.00     0.057 A 
ENDROOT
BRANCH   1  14
HETATM   14  N1  UNL     1      22.083   3.744  50.815  1.00  0.00    -0.385 N 
HETATM   15  H5  UNL     1      21.957   2.924  50.214  1.00  0.00     0.160 HD
BRANCH  14  16
HETATM   16  C4  UNL     1      21.921   3.312  52.174  1.00  0.00     0.159 C 
BRANCH  16  17
HETATM   17  C3  UNL     1      23.164   2.579  52.588  1.00  0.00    -0.029 A 
HETATM   18  C2  UNL     1      23.350   1.135  52.577  1.00  0.00    -0.026 A 
HETATM   19  C1  UNL     1      22.397   0.313  52.182  1.00  0.00     0.025 C 
HETATM   20  C22 UNL     1      24.667   0.723  53.039  1.00  0.00    -0.016 A 
HETATM   21  C17 UNL     1      25.265   1.927  53.324  1.00  0.00    -0.025 A 
HETATM   22  C21 UNL     1      25.305  -0.488  53.208  1.00  0.00     0.013 A 
HETATM   23  C16 UNL     1      24.331   3.004  53.039  1.00  0.00     0.022 A 
HETATM   24  C18 UNL     1      26.567   1.973  53.806  1.00  0.00     0.012 A 
HETATM   25  C19 UNL     1      27.216   0.747  53.978  1.00  0.00     0.001 A 
HETATM   26  C20 UNL     1      26.599  -0.461  53.685  1.00  0.00     0.001 A 
ENDBRANCH  16  17
ENDBRANCH  14  16
ENDBRANCH   1  14
TORSDOF 3
ENDMDL
MODEL 6
REMARK VINA RESULT:      -9.0      2.955      7.041
REMARK  3 active torsions:
REMARK  status: ('A' for Active; 'I' for Inactive)
REMARK    1  A    between atoms: C3_3  and  C4_4 
REMARK    2  A    between atoms: C4_4  and  N1_5 
REMARK    3  A    between atoms: N1_5  and  C5_6 
ROOT
HETATM    1  C5  UNL     1      24.156   2.089  52.282  1.00  0.00     0.045 A 
HETATM    2  C6  UNL     1      23.625   2.823  51.239  1.00  0.00     0.049 A 
HETATM    3  C7  UNL     1      24.374   3.509  50.313  1.00  0.00     0.122 A 
HETATM    4  N2  UNL     1      25.720   3.466  50.423  1.00  0.00    -0.236 NA
HETATM    5  C8  UNL     1      26.329   2.777  51.405  1.00  0.00     0.183 A 
HETATM    6  O1  UNL     1      27.583   2.587  51.716  1.00  0.00    -0.290 OA
HETATM    7  C9  UNL     1      27.693   1.829  52.776  1.00  0.00     0.089 A 
HETATM    8  C10 UNL     1      28.795   1.368  53.460  1.00  0.00     0.038 A 
HETATM    9  C11 UNL     1      28.639   0.567  54.569  1.00  0.00     0.003 A 
HETATM   10  C12 UNL     1      27.332   0.249  54.964  1.00  0.00     0.001 A 
HETATM   11  C13 UNL     1      26.253   0.727  54.258  1.00  0.00     0.015 A 
HETATM   12  C14 UNL     1      26.410   1.515  53.166  1.00  0.00     0.015 A 
HETATM   13  C15 UNL     1      25.528   2.109  52.304  1.00  0.00     0.057 A 
ENDROOT
BRANCH   1  14
HETATM   14  N1  UNL     1      23.272   1.417  53.153  1.00  0.00    -0.385 N 
HETATM   15  H5  UNL     1      22.750   1.688  53.991  1.00  0.00     0.160 HD
BRANCH  14  16
HETATM   16  C4  UNL     1      22.974   0.039  52.886  1.00  0.00     0.159 C 
BRANCH  16  17
HETATM   17  C3  UNL     1      21.497  -0.087  52.646  1.00  0.00    -0.029 A 
HETATM   18  C2  UNL     1      20.565  -0.874  53.440  1.00  0.00    -0.026 A 
HETATM   19  C1  UNL     1      20.960  -1.574  54.487  1.00  0.00     0.025 C 
HETATM   20  C22 UNL     1      19.195  -0.800  52.958  1.00  0.00    -0.016 A 
HETATM   21  C17 UNL     1      19.314   0.036  51.874  1.00  0.00    -0.025 A 
HETATM   22  C21 UNL     1      17.992  -1.345  53.353  1.00  0.00     0.013 A 
HETATM   23  C16 UNL     1      20.704   0.436  51.727  1.00  0.00     0.022 A 
HETATM   24  C18 UNL     1      18.199   0.371  51.114  1.00  0.00     0.012 A 
HETATM   25  C19 UNL     1      16.979  -0.181  51.512  1.00  0.00     0.001 A 
HETATM   26  C20 UNL     1      16.875  -1.023  52.610  1.00  0.00     0.001 A 
ENDBRANCH  16  17
ENDBRANCH  14  16
ENDBRANCH   1  14
TORSDOF 3
ENDMDL
MODEL 7
REMARK VINA RESULT:      -9.0      3.107      5.945
REMARK  3 active torsions:
REMARK  status: ('A' for Active; 'I' for Inactive)
REMARK    1  A    between atoms: C3_3  and  C4_4 
REMARK    2  A    between atoms: C4_4  and  N1_5 
REMARK    3  A    between atoms: N1_5  and  C5_6 
ROOT
HETATM    1  C5  UNL     1      22.141   2.880  50.724  1.00  0.00     0.045 A 
HETATM    2  C6  UNL     1      21.516   4.026  50.272  1.00  0.00     0.049 A 
HETATM    3  C7  UNL     1      20.352   4.534  50.797  1.00  0.00     0.122 A 
HETATM    4  N2  UNL     1      19.776   3.874  51.826  1.00  0.00    -0.236 NA
HETATM    5  C8  UNL     1      20.310   2.750  52.336  1.00  0.00     0.183 A 
HETATM    6  O1  UNL     1      19.951   1.951  53.304  1.00  0.00    -0.290 OA
HETATM    7  C9  UNL     1      20.801   0.965  53.437  1.00  0.00     0.089 A 
HETATM    8  C10 UNL     1      20.835  -0.101  54.307  1.00  0.00     0.038 A 
HETATM    9  C11 UNL     1      21.859  -1.019  54.240  1.00  0.00     0.003 A 
HETATM   10  C12 UNL     1      22.846  -0.823  53.266  1.00  0.00     0.001 A 
HETATM   11  C13 UNL     1      22.782   0.253  52.412  1.00  0.00     0.015 A 
HETATM   12  C14 UNL     1      21.772   1.155  52.480  1.00  0.00     0.015 A 
HETATM   13  C15 UNL     1      21.477   2.288  51.769  1.00  0.00     0.057 A 
ENDROOT
BRANCH   1  14
HETATM   14  N1  UNL     1      23.344   2.478  50.106  1.00  0.00    -0.385 N 
HETATM   15  H5  UNL     1      23.590   1.754  49.425  1.00  0.00     0.160 HD
BRANCH  14  16
HETATM   16  C4  UNL     1      24.548   3.183  50.441  1.00  0.00     0.159 C 
BRANCH  16  17
HETATM   17  C3  UNL     1      25.357   2.323  51.368  1.00  0.00    -0.029 A 
HETATM   18  C2  UNL     1      25.359   2.398  52.821  1.00  0.00    -0.026 A 
HETATM   19  C1  UNL     1      24.612   3.268  53.475  1.00  0.00     0.025 C 
HETATM   20  C22 UNL     1      26.251   1.433  53.445  1.00  0.00    -0.016 A 
HETATM   21  C17 UNL     1      26.780   0.782  52.357  1.00  0.00    -0.025 A 
HETATM   22  C21 UNL     1      26.593   1.119  54.743  1.00  0.00     0.013 A 
HETATM   23  C16 UNL     1      26.217   1.347  51.141  1.00  0.00     0.022 A 
HETATM   24  C18 UNL     1      27.703  -0.243  52.526  1.00  0.00     0.012 A 
HETATM   25  C19 UNL     1      28.052  -0.562  53.842  1.00  0.00     0.001 A 
HETATM   26  C20 UNL     1      27.508   0.104  54.931  1.00  0.00     0.001 A 
ENDBRANCH  16  17
ENDBRANCH  14  16
ENDBRANCH   1  14
TORSDOF 3
ENDMDL
MODEL 8
REMARK VINA RESULT:      -8.9      2.086      3.125
REMARK  3 active torsions:
REMARK  status: ('A' for Active; 'I' for Inactive)
REMARK    1  A    between atoms: C3_3  and  C4_4 
REMARK    2  A    between atoms: C4_4  and  N1_5 
REMARK    3  A    between atoms: N1_5  and  C5_6 
ROOT
HETATM    1  C5  UNL     1      23.922   3.866  51.373  1.00  0.00     0.045 A 
HETATM    2  C6  UNL     1      22.758   4.610  51.412  1.00  0.00     0.049 A 
HETATM    3  C7  UNL     1      21.594   4.198  52.015  1.00  0.00     0.122 A 
HETATM    4  N2  UNL     1      21.579   2.987  52.613  1.00  0.00    -0.236 NA
HETATM    5  C8  UNL     1      22.664   2.190  52.628  1.00  0.00     0.183 A 
HETATM    6  O1  UNL     1      22.894   1.007  53.128  1.00  0.00    -0.290 OA
HETATM    7  C9  UNL     1      24.123   0.628  52.888  1.00  0.00     0.089 A 
HETATM    8  C10 UNL     1      24.806  -0.521  53.215  1.00  0.00     0.038 A 
HETATM    9  C11 UNL     1      26.120  -0.679  52.838  1.00  0.00     0.003 A 
HETATM   10  C12 UNL     1      26.721   0.363  52.120  1.00  0.00     0.001 A 
HETATM   11  C13 UNL     1      26.011   1.499  51.810  1.00  0.00     0.015 A 
HETATM   12  C14 UNL     1      24.716   1.651  52.182  1.00  0.00     0.015 A 
HETATM   13  C15 UNL     1      23.802   2.656  52.008  1.00  0.00     0.057 A 
ENDROOT
BRANCH   1  14
HETATM   14  N1  UNL     1      25.054   4.416  50.735  1.00  0.00    -0.385 N 
HETATM   15  H5  UNL     1      25.929   4.831  51.066  1.00  0.00     0.160 HD
BRANCH  14  16
HETATM   16  C4  UNL     1      25.078   4.444  49.300  1.00  0.00     0.159 C 
BRANCH  16  17
HETATM   17  C3  UNL     1      26.359   5.093  48.862  1.00  0.00    -0.029 A 
HETATM   18  C2  UNL     1      26.509   6.467  48.405  1.00  0.00    -0.026 A 
HETATM   19  C1  UNL     1      25.484   7.294  48.335  1.00  0.00     0.025 C 
HETATM   20  C22 UNL     1      27.877   6.806  48.044  1.00  0.00    -0.016 A 
HETATM   21  C17 UNL     1      28.542   5.628  48.291  1.00  0.00    -0.025 A 
HETATM   22  C21 UNL     1      28.509   7.937  47.573  1.00  0.00     0.013 A 
HETATM   23  C16 UNL     1      27.596   4.637  48.777  1.00  0.00     0.022 A 
HETATM   24  C18 UNL     1      29.910   5.529  48.068  1.00  0.00     0.012 A 
HETATM   25  C19 UNL     1      30.553   6.674  47.589  1.00  0.00     0.001 A 
HETATM   26  C20 UNL     1      29.868   7.856  47.346  1.00  0.00     0.001 A 
ENDBRANCH  16  17
ENDBRANCH  14  16
ENDBRANCH   1  14
TORSDOF 3
ENDMDL
MODEL 9
REMARK VINA RESULT:      -8.7      2.870      7.955
REMARK  3 active torsions:
REMARK  status: ('A' for Active; 'I' for Inactive)
REMARK    1  A    between atoms: C3_3  and  C4_4 
REMARK    2  A    between atoms: C4_4  and  N1_5 
REMARK    3  A    between atoms: N1_5  and  C5_6 
ROOT
HETATM    1  C5  UNL     1      25.660   4.090  49.705  1.00  0.00     0.045 A 
HETATM    2  C6  UNL     1      26.927   3.996  49.164  1.00  0.00     0.049 A 
HETATM    3  C7  UNL     1      27.620   5.053  48.623  1.00  0.00     0.122 A 
HETATM    4  N2  UNL     1      27.029   6.268  48.618  1.00  0.00    -0.236 NA
HETATM    5  C8  UNL     1      25.797   6.459  49.123  1.00  0.00     0.183 A 
HETATM    6  O1  UNL     1      25.031   7.510  49.232  1.00  0.00    -0.290 OA
HETATM    7  C9  UNL     1      23.894   7.205  49.804  1.00  0.00     0.089 A 
HETATM    8  C10 UNL     1      22.796   7.970  50.123  1.00  0.00     0.038 A 
HETATM    9  C11 UNL     1      21.704   7.397  50.734  1.00  0.00     0.003 A 
HETATM   10  C12 UNL     1      21.759   6.025  51.012  1.00  0.00     0.001 A 
HETATM   11  C13 UNL     1      22.871   5.289  50.680  1.00  0.00     0.015 A 
HETATM   12  C14 UNL     1      23.946   5.856  50.078  1.00  0.00     0.015 A 
HETATM   13  C15 UNL     1      25.151   5.363  49.652  1.00  0.00     0.057 A 
ENDROOT
BRANCH   1  14
HETATM   14  N1  UNL     1      25.068   2.929  50.245  1.00  0.00    -0.385 N 
HETATM   15  H5  UNL     1      24.329   2.292  49.933  1.00  0.00     0.160 HD
BRANCH  14  16
HETATM   16  C4  UNL     1      25.542   2.452  51.513  1.00  0.00     0.159 C 
BRANCH  16  17
HETATM   17  C3  UNL     1      24.415   1.736  52.200  1.00  0.00    -0.029 A 
HETATM   18  C2  UNL     1      24.523   0.499  52.959  1.00  0.00    -0.026 A 
HETATM   19  C1  UNL     1      25.676  -0.124  53.116  1.00  0.00     0.025 C 
HETATM   20  C22 UNL     1      23.253   0.046  53.504  1.00  0.00    -0.016 A 
HETATM   21  C17 UNL     1      22.387   1.020  53.068  1.00  0.00    -0.025 A 
HETATM   22  C21 UNL     1      22.847  -1.028  54.266  1.00  0.00     0.013 A 
HETATM   23  C16 UNL     1      23.125   2.006  52.294  1.00  0.00     0.022 A 
HETATM   24  C18 UNL     1      21.035   0.958  53.384  1.00  0.00     0.012 A 
HETATM   25  C19 UNL     1      20.621  -0.132  54.156  1.00  0.00     0.001 A 
HETATM   26  C20 UNL     1      21.508  -1.106  54.590  1.00  0.00     0.001 A 
ENDBRANCH  16  17
ENDBRANCH  14  16
ENDBRANCH   1  14
TORSDOF 3
ENDMDL
