MODEL 1
REMARK VINA RESULT:      -8.2      0.000      0.000
REMARK  4 active torsions:
REMARK  status: ('A' for Active; 'I' for Inactive)
REMARK    1  A    between atoms: C7_7  and  N1_8 
REMARK    2  A    between atoms: N1_8  and  C8_9 
REMARK    3  A    between atoms: C12_15  and  C13_16 
REMARK    4  A    between atoms: C13_16  and  C15_18 
REMARK       I    between atoms: C15_18  and  N4_19 
ROOT
HETATM    1  C1  UNL     1      27.839   6.050  48.207  1.00  0.00     0.018 C 
HETATM    2  C2  UNL     1      27.117   5.353  48.883  1.00  0.00    -0.078 C 
HETATM    3  C3  UNL     1      26.244   4.539  49.684  1.00  0.00     0.019 A 
HETATM    4  C4  UNL     1      24.986   5.036  50.038  1.00  0.00     0.021 A 
HETATM    5  C5  UNL     1      24.150   4.260  50.804  1.00  0.00     0.004 A 
HETATM    6  C6  UNL     1      24.571   3.012  51.204  1.00  0.00     0.029 A 
HETATM    7  C7  UNL     1      25.779   2.471  50.896  1.00  0.00     0.035 A 
HETATM    8  C16 UNL     1      26.584   3.286  50.126  1.00  0.00     0.050 A 
ENDROOT
BRANCH   7   9
HETATM    9  N1  UNL     1      26.278   1.195  51.279  1.00  0.00    -0.340 N 
HETATM   10  H5  UNL     1      26.386   0.446  50.560  1.00  0.00     0.167 HD
BRANCH   9  11
HETATM   11  C8  UNL     1      26.657   0.851  52.600  1.00  0.00     0.137 A 
HETATM   12  N2  UNL     1      27.851   1.116  52.978  1.00  0.00    -0.224 NA
HETATM   13  C9  UNL     1      28.276   0.787  54.289  1.00  0.00     0.229 A 
HETATM   14  N3  UNL     1      27.540   0.221  55.170  1.00  0.00    -0.278 NA
HETATM   15  C10 UNL     1      26.156  -0.166  54.928  1.00  0.00     0.192 A 
HETATM   16  C11 UNL     1      25.773   0.239  53.570  1.00  0.00     0.008 A 
HETATM   17  C12 UNL     1      24.532   0.061  53.153  1.00  0.00     0.025 C 
BRANCH  17  18
HETATM   18  C13 UNL     1      23.175  -0.396  53.384  1.00  0.00     0.010 C 
HETATM   19  C14 UNL     1      21.961  -0.487  52.835  1.00  0.00     0.049 C 
BRANCH  18  20
HETATM   20  C15 UNL     1      22.593  -1.038  54.552  1.00  0.00     0.245 C 
HETATM   21  N4  UNL     1      21.192  -1.075  54.781  1.00  0.00    -0.366 N 
HETATM   22  H12 UNL     1      20.153  -1.071  54.937  1.00  0.00     0.159 HD
HETATM   23  H13 UNL     1      20.172  -1.098  54.942  1.00  0.00     0.159 HD
HETATM   24  O1  UNL     1      22.555  -1.667  55.635  1.00  0.00    -0.268 OA
ENDBRANCH  18  20
ENDBRANCH  17  18
ENDBRANCH   9  11
ENDBRANCH   7   9
TORSDOF 4
ENDMDL
MODEL 2
REMARK VINA RESULT:      -8.1      1.206      2.359
REMARK  4 active torsions:
REMARK  status: ('A' for Active; 'I' for Inactive)
REMARK    1  A    between atoms: C7_7  and  N1_8 
REMARK    2  A    between atoms: N1_8  and  C8_9 
REMARK    3  A    between atoms: C12_15  and  C13_16 
REMARK    4  A    between atoms: C13_16  and  C15_18 
REMARK       I    between atoms: C15_18  and  N4_19 
ROOT
HETATM    1  C1  UNL     1      22.080   5.188  52.020  1.00  0.00     0.018 C 
HETATM    2  C2  UNL     1      23.115   4.794  51.531  1.00  0.00    -0.078 C 
HETATM    3  C3  UNL     1      24.345   4.344  50.939  1.00  0.00     0.019 A 
HETATM    4  C4  UNL     1      24.954   5.129  49.956  1.00  0.00     0.021 A 
HETATM    5  C5  UNL     1      26.129   4.702  49.388  1.00  0.00     0.004 A 
HETATM    6  C6  UNL     1      26.679   3.509  49.802  1.00  0.00     0.029 A 
HETATM    7  C7  UNL     1      26.139   2.699  50.749  1.00  0.00     0.035 A 
HETATM    8  C16 UNL     1      24.960   3.170  51.291  1.00  0.00     0.050 A 
ENDROOT
BRANCH   7   9
HETATM    9  N1  UNL     1      26.650   1.456  51.219  1.00  0.00    -0.340 N 
HETATM   10  H5  UNL     1      26.638   0.623  50.591  1.00  0.00     0.167 HD
BRANCH   9  11
HETATM   11  C8  UNL     1      27.193   1.258  52.512  1.00  0.00     0.137 A 
HETATM   12  N2  UNL     1      28.354   1.735  52.762  1.00  0.00    -0.224 NA
HETATM   13  C9  UNL     1      28.941   1.558  54.040  1.00  0.00     0.229 A 
HETATM   14  N3  UNL     1      28.389   0.931  55.011  1.00  0.00    -0.278 NA
HETATM   15  C10 UNL     1      27.075   0.310  54.919  1.00  0.00     0.192 A 
HETATM   16  C11 UNL     1      26.513   0.566  53.587  1.00  0.00     0.008 A 
HETATM   17  C12 UNL     1      25.288   0.164  53.299  1.00  0.00     0.025 C 
BRANCH  17  18
HETATM   18  C13 UNL     1      24.053  -0.495  53.678  1.00  0.00     0.010 C 
HETATM   19  C14 UNL     1      22.830  -0.820  53.248  1.00  0.00     0.049 C 
BRANCH  18  20
HETATM   20  C15 UNL     1      23.688  -1.147  54.925  1.00  0.00     0.245 C 
HETATM   21  N4  UNL     1      24.651  -1.507  55.905  1.00  0.00    -0.366 N 
HETATM   22  H12 UNL     1      25.386  -1.781  56.605  1.00  0.00     0.159 HD
HETATM   23  H13 UNL     1      25.356  -1.768  56.613  1.00  0.00     0.159 HD
HETATM   24  O1  UNL     1      22.948  -1.660  55.796  1.00  0.00    -0.268 OA
ENDBRANCH  18  20
ENDBRANCH  17  18
ENDBRANCH   9  11
ENDBRANCH   7   9
TORSDOF 4
ENDMDL
MODEL 3
REMARK VINA RESULT:      -8.0      1.935      4.185
REMARK  4 active torsions:
REMARK  status: ('A' for Active; 'I' for Inactive)
REMARK    1  A    between atoms: C7_7  and  N1_8 
REMARK    2  A    between atoms: N1_8  and  C8_9 
REMARK    3  A    between atoms: C12_15  and  C13_16 
REMARK    4  A    between atoms: C13_16  and  C15_18 
REMARK       I    between atoms: C15_18  and  N4_19 
ROOT
HETATM    1  C1  UNL     1      26.781   4.285  49.196  1.00  0.00     0.018 C 
HETATM    2  C2  UNL     1      25.804   4.030  49.862  1.00  0.00    -0.078 C 
HETATM    3  C3  UNL     1      24.640   3.749  50.657  1.00  0.00     0.019 A 
HETATM    4  C4  UNL     1      24.018   4.794  51.346  1.00  0.00     0.021 A 
HETATM    5  C5  UNL     1      22.906   4.528  52.107  1.00  0.00     0.004 A 
HETATM    6  C6  UNL     1      22.431   3.237  52.173  1.00  0.00     0.029 A 
HETATM    7  C7  UNL     1      22.988   2.177  51.530  1.00  0.00     0.035 A 
HETATM    8  C16 UNL     1      24.101   2.494  50.778  1.00  0.00     0.050 A 
ENDROOT
BRANCH   7   9
HETATM    9  N1  UNL     1      22.553   0.822  51.557  1.00  0.00    -0.340 N 
HETATM   10  H5  UNL     1      22.383   0.317  50.661  1.00  0.00     0.167 HD
BRANCH   9  11
HETATM   11  C8  UNL     1      22.330   0.082  52.744  1.00  0.00     0.137 A 
HETATM   12  N2  UNL     1      21.122  -0.158  53.092  1.00  0.00    -0.224 NA
HETATM   13  C9  UNL     1      20.850  -0.892  54.274  1.00  0.00     0.229 A 
HETATM   14  N3  UNL     1      21.746  -1.354  55.063  1.00  0.00    -0.278 NA
HETATM   15  C10 UNL     1      23.175  -1.178  54.843  1.00  0.00     0.192 A 
HETATM   16  C11 UNL     1      23.383  -0.447  53.587  1.00  0.00     0.008 A 
HETATM   17  C12 UNL     1      24.608  -0.238  53.139  1.00  0.00     0.025 C 
BRANCH  17  18
HETATM   18  C13 UNL     1      26.045  -0.378  53.278  1.00  0.00     0.010 C 
HETATM   19  C14 UNL     1      27.109  -1.053  52.836  1.00  0.00     0.049 C 
BRANCH  18  20
HETATM   20  C15 UNL     1      26.971   0.336  54.142  1.00  0.00     0.245 C 
HETATM   21  N4  UNL     1      27.892  -0.336  54.989  1.00  0.00    -0.366 N 
HETATM   22  H12 UNL     1      28.550  -0.857  55.622  1.00  0.00     0.159 HD
HETATM   23  H13 UNL     1      28.559  -0.830  55.605  1.00  0.00     0.159 HD
HETATM   24  O1  UNL     1      27.543   1.313  54.679  1.00  0.00    -0.268 OA
ENDBRANCH  18  20
ENDBRANCH  17  18
ENDBRANCH   9  11
ENDBRANCH   7   9
TORSDOF 4
ENDMDL
MODEL 4
REMARK VINA RESULT:      -7.9      2.052      4.979
REMARK  4 active torsions:
REMARK  status: ('A' for Active; 'I' for Inactive)
REMARK    1  A    between atoms: C7_7  and  N1_8 
REMARK    2  A    between atoms: N1_8  and  C8_9 
REMARK    3  A    between atoms: C12_15  and  C13_16 
REMARK    4  A    between atoms: C13_16  and  C15_18 
REMARK       I    between atoms: C15_18  and  N4_19 
ROOT
HETATM    1  C1  UNL     1      28.754  -2.794  53.030  1.00  0.00     0.018 C 
HETATM    2  C2  UNL     1      28.563  -1.614  53.220  1.00  0.00    -0.078 C 
HETATM    3  C3  UNL     1      28.359  -0.210  53.447  1.00  0.00     0.019 A 
HETATM    4  C4  UNL     1      29.460   0.599  53.743  1.00  0.00     0.021 A 
HETATM    5  C5  UNL     1      29.267   1.941  53.961  1.00  0.00     0.004 A 
HETATM    6  C6  UNL     1      27.993   2.458  53.882  1.00  0.00     0.029 A 
HETATM    7  C7  UNL     1      26.882   1.728  53.600  1.00  0.00     0.035 A 
HETATM    8  C16 UNL     1      27.125   0.386  53.389  1.00  0.00     0.050 A 
ENDROOT
BRANCH   7   9
HETATM    9  N1  UNL     1      25.541   2.195  53.508  1.00  0.00    -0.340 N 
HETATM   10  H5  UNL     1      25.019   2.442  54.377  1.00  0.00     0.167 HD
BRANCH   9  11
HETATM   11  C8  UNL     1      24.838   2.360  52.289  1.00  0.00     0.137 A 
HETATM   12  N2  UNL     1      25.426   2.963  51.326  1.00  0.00    -0.224 NA
HETATM   13  C9  UNL     1      24.762   3.155  50.089  1.00  0.00     0.229 A 
HETATM   14  N3  UNL     1      23.569   2.764  49.838  1.00  0.00    -0.278 NA
HETATM   15  C10 UNL     1      22.735   2.067  50.807  1.00  0.00     0.192 A 
HETATM   16  C11 UNL     1      23.497   1.869  52.046  1.00  0.00     0.008 A 
HETATM   17  C12 UNL     1      22.969   1.185  53.045  1.00  0.00     0.025 C 
BRANCH  17  18
HETATM   18  C13 UNL     1      21.868   0.435  53.620  1.00  0.00     0.010 C 
HETATM   19  C14 UNL     1      20.537   0.354  53.681  1.00  0.00     0.049 C 
BRANCH  18  20
HETATM   20  C15 UNL     1      21.888  -0.715  54.508  1.00  0.00     0.245 C 
HETATM   21  N4  UNL     1      20.787  -1.606  54.623  1.00  0.00    -0.366 N 
HETATM   22  H12 UNL     1      19.952  -2.239  54.705  1.00  0.00     0.159 HD
HETATM   23  H13 UNL     1      19.983  -2.249  54.704  1.00  0.00     0.159 HD
HETATM   24  O1  UNL     1      22.335  -1.524  55.354  1.00  0.00    -0.268 OA
ENDBRANCH  18  20
ENDBRANCH  17  18
ENDBRANCH   9  11
ENDBRANCH   7   9
TORSDOF 4
ENDMDL
MODEL 5
REMARK VINA RESULT:      -7.7      1.541      1.712
REMARK  4 active torsions:
REMARK  status: ('A' for Active; 'I' for Inactive)
REMARK    1  A    between atoms: C7_7  and  N1_8 
REMARK    2  A    between atoms: N1_8  and  C8_9 
REMARK    3  A    between atoms: C12_15  and  C13_16 
REMARK    4  A    between atoms: C13_16  and  C15_18 
REMARK       I    between atoms: C15_18  and  N4_19 
ROOT
HETATM    1  C1  UNL     1      28.849   6.395  47.831  1.00  0.00     0.018 C 
HETATM    2  C2  UNL     1      27.927   5.810  48.355  1.00  0.00    -0.078 C 
HETATM    3  C3  UNL     1      26.819   5.132  48.970  1.00  0.00     0.019 A 
HETATM    4  C4  UNL     1      25.565   5.750  48.981  1.00  0.00     0.021 A 
HETATM    5  C5  UNL     1      24.505   5.104  49.568  1.00  0.00     0.004 A 
HETATM    6  C6  UNL     1      24.703   3.864  50.132  1.00  0.00     0.029 A 
HETATM    7  C7  UNL     1      25.894   3.210  50.156  1.00  0.00     0.035 A 
HETATM    8  C16 UNL     1      26.928   3.896  49.554  1.00  0.00     0.050 A 
ENDROOT
BRANCH   7   9
HETATM    9  N1  UNL     1      26.169   1.933  50.723  1.00  0.00    -0.340 N 
HETATM   10  H5  UNL     1      26.011   1.072  50.155  1.00  0.00     0.167 HD
BRANCH   9  11
HETATM   11  C8  UNL     1      26.660   1.735  52.037  1.00  0.00     0.137 A 
HETATM   12  N2  UNL     1      27.832   2.165  52.318  1.00  0.00    -0.224 NA
HETATM   13  C9  UNL     1      28.367   1.986  53.618  1.00  0.00     0.229 A 
HETATM   14  N3  UNL     1      27.756   1.404  54.580  1.00  0.00    -0.278 NA
HETATM   15  C10 UNL     1      26.418   0.842  54.455  1.00  0.00     0.192 A 
HETATM   16  C11 UNL     1      25.912   1.097  53.100  1.00  0.00     0.008 A 
HETATM   17  C12 UNL     1      24.680   0.745  52.778  1.00  0.00     0.025 C 
BRANCH  17  18
HETATM   18  C13 UNL     1      23.405   0.151  53.126  1.00  0.00     0.010 C 
HETATM   19  C14 UNL     1      22.833  -0.891  53.736  1.00  0.00     0.049 C 
BRANCH  18  20
HETATM   20  C15 UNL     1      22.054   0.613  52.851  1.00  0.00     0.245 C 
HETATM   21  N4  UNL     1      21.790   1.864  52.231  1.00  0.00    -0.366 N 
HETATM   22  H12 UNL     1      21.621   2.803  51.790  1.00  0.00     0.159 HD
HETATM   23  H13 UNL     1      21.604   2.776  51.782  1.00  0.00     0.159 HD
HETATM   24  O1  UNL     1      20.802   0.591  52.815  1.00  0.00    -0.268 OA
ENDBRANCH  18  20
ENDBRANCH  17  18
ENDBRANCH   9  11
ENDBRANCH   7   9
TORSDOF 4
ENDMDL
MODEL 6
REMARK VINA RESULT:      -7.6      1.850      2.620
REMARK  4 active torsions:
REMARK  status: ('A' for Active; 'I' for Inactive)
REMARK    1  A    between atoms: C7_7  and  N1_8 
REMARK    2  A    between atoms: N1_8  and  C8_9 
REMARK    3  A    between atoms: C12_15  and  C13_16 
REMARK    4  A    between atoms: C13_16  and  C15_18 
REMARK       I    between atoms: C15_18  and  N4_19 
ROOT
HETATM    1  C1  UNL     1      23.457   7.621  50.806  1.00  0.00     0.018 C 
HETATM    2  C2  UNL     1      24.288   6.821  50.439  1.00  0.00    -0.078 C 
HETATM    3  C3  UNL     1      25.285   5.887  49.991  1.00  0.00     0.019 A 
HETATM    4  C4  UNL     1      26.213   6.293  49.028  1.00  0.00     0.021 A 
HETATM    5  C5  UNL     1      27.166   5.403  48.598  1.00  0.00     0.004 A 
HETATM    6  C6  UNL     1      27.185   4.132  49.127  1.00  0.00     0.029 A 
HETATM    7  C7  UNL     1      26.312   3.674  50.063  1.00  0.00     0.035 A 
HETATM    8  C16 UNL     1      25.374   4.604  50.464  1.00  0.00     0.050 A 
ENDROOT
BRANCH   7   9
HETATM    9  N1  UNL     1      26.272   2.377  50.647  1.00  0.00    -0.340 N 
HETATM   10  H5  UNL     1      25.875   1.579  50.105  1.00  0.00     0.167 HD
BRANCH   9  11
HETATM   11  C8  UNL     1      26.748   2.075  51.947  1.00  0.00     0.137 A 
HETATM   12  N2  UNL     1      27.908   2.497  52.282  1.00  0.00    -0.224 NA
HETATM   13  C9  UNL     1      28.428   2.215  53.570  1.00  0.00     0.229 A 
HETATM   14  N3  UNL     1      27.813   1.543  54.469  1.00  0.00    -0.278 NA
HETATM   15  C10 UNL     1      26.487   0.973  54.276  1.00  0.00     0.192 A 
HETATM   16  C11 UNL     1      25.996   1.335  52.940  1.00  0.00     0.008 A 
HETATM   17  C12 UNL     1      24.775   0.993  52.570  1.00  0.00     0.025 C 
BRANCH  17  18
HETATM   18  C13 UNL     1      23.505   0.351  52.846  1.00  0.00     0.010 C 
HETATM   19  C14 UNL     1      22.898  -0.542  53.633  1.00  0.00     0.049 C 
BRANCH  18  20
HETATM   20  C15 UNL     1      22.214   0.521  52.200  1.00  0.00     0.245 C 
HETATM   21  N4  UNL     1      21.472   1.729  52.289  1.00  0.00    -0.366 N 
HETATM   22  H12 UNL     1      20.934   2.627  52.387  1.00  0.00     0.159 HD
HETATM   23  H13 UNL     1      20.937   2.610  52.359  1.00  0.00     0.159 HD
HETATM   24  O1  UNL     1      21.207   0.223  51.516  1.00  0.00    -0.268 OA
ENDBRANCH  18  20
ENDBRANCH  17  18
ENDBRANCH   9  11
ENDBRANCH   7   9
TORSDOF 4
ENDMDL
MODEL 7
REMARK VINA RESULT:      -7.6      1.767      2.439
REMARK  4 active torsions:
REMARK  status: ('A' for Active; 'I' for Inactive)
REMARK    1  A    between atoms: C7_7  and  N1_8 
REMARK    2  A    between atoms: N1_8  and  C8_9 
REMARK    3  A    between atoms: C12_15  and  C13_16 
REMARK    4  A    between atoms: C13_16  and  C15_18 
REMARK       I    between atoms: C15_18  and  N4_19 
ROOT
HETATM    1  C1  UNL     1      21.810   7.289  50.599  1.00  0.00     0.018 C 
HETATM    2  C2  UNL     1      22.512   6.306  50.677  1.00  0.00    -0.078 C 
HETATM    3  C3  UNL     1      23.348   5.139  50.747  1.00  0.00     0.019 A 
HETATM    4  C4  UNL     1      23.741   4.511  49.562  1.00  0.00     0.021 A 
HETATM    5  C5  UNL     1      24.539   3.395  49.627  1.00  0.00     0.004 A 
HETATM    6  C6  UNL     1      24.933   2.922  50.859  1.00  0.00     0.029 A 
HETATM    7  C7  UNL     1      24.585   3.483  52.047  1.00  0.00     0.035 A 
HETATM    8  C16 UNL     1      23.784   4.601  51.931  1.00  0.00     0.050 A 
ENDROOT
BRANCH   7   9
HETATM    9  N1  UNL     1      24.951   3.045  53.351  1.00  0.00    -0.340 N 
HETATM   10  H5  UNL     1      24.727   3.641  54.177  1.00  0.00     0.167 HD
BRANCH   9  11
HETATM   11  C8  UNL     1      25.614   1.823  53.623  1.00  0.00     0.137 A 
HETATM   12  N2  UNL     1      26.873   1.852  53.849  1.00  0.00    -0.224 NA
HETATM   13  C9  UNL     1      27.579   0.654  54.123  1.00  0.00     0.229 A 
HETATM   14  N3  UNL     1      27.046  -0.509  54.162  1.00  0.00    -0.278 NA
HETATM   15  C10 UNL     1      25.629  -0.749  53.923  1.00  0.00     0.192 A 
HETATM   16  C11 UNL     1      24.956   0.534  53.687  1.00  0.00     0.008 A 
HETATM   17  C12 UNL     1      23.646   0.572  53.524  1.00  0.00     0.025 C 
BRANCH  17  18
HETATM   18  C13 UNL     1      22.363  -0.099  53.444  1.00  0.00     0.010 C 
HETATM   19  C14 UNL     1      21.232  -0.179  52.738  1.00  0.00     0.049 C 
BRANCH  18  20
HETATM   20  C15 UNL     1      21.788  -1.118  54.307  1.00  0.00     0.245 C 
HETATM   21  N4  UNL     1      20.444  -1.557  54.175  1.00  0.00    -0.366 N 
HETATM   22  H12 UNL     1      19.440  -1.850  54.070  1.00  0.00     0.159 HD
HETATM   23  H13 UNL     1      19.465  -1.871  54.075  1.00  0.00     0.159 HD
HETATM   24  O1  UNL     1      21.735  -1.970  55.223  1.00  0.00    -0.268 OA
ENDBRANCH  18  20
ENDBRANCH  17  18
ENDBRANCH   9  11
ENDBRANCH   7   9
TORSDOF 4
ENDMDL
MODEL 8
REMARK VINA RESULT:      -7.4      3.798      7.838
REMARK  4 active torsions:
REMARK  status: ('A' for Active; 'I' for Inactive)
REMARK    1  A    between atoms: C7_7  and  N1_8 
REMARK    2  A    between atoms: N1_8  and  C8_9 
REMARK    3  A    between atoms: C12_15  and  C13_16 
REMARK    4  A    between atoms: C13_16  and  C15_18 
REMARK       I    between atoms: C15_18  and  N4_19 
ROOT
HETATM    1  C1  UNL     1      21.701  -1.188  54.527  1.00  0.00     0.018 C 
HETATM    2  C2  UNL     1      22.619  -0.581  54.025  1.00  0.00    -0.078 C 
HETATM    3  C3  UNL     1      23.722   0.123  53.429  1.00  0.00     0.019 A 
HETATM    4  C4  UNL     1      24.943  -0.538  53.269  1.00  0.00     0.021 A 
HETATM    5  C5  UNL     1      25.999   0.132  52.701  1.00  0.00     0.004 A 
HETATM    6  C6  UNL     1      25.828   1.439  52.302  1.00  0.00     0.029 A 
HETATM    7  C7  UNL     1      24.670   2.139  52.431  1.00  0.00     0.035 A 
HETATM    8  C16 UNL     1      23.639   1.424  53.006  1.00  0.00     0.050 A 
ENDROOT
BRANCH   7   9
HETATM    9  N1  UNL     1      24.427   3.487  52.046  1.00  0.00    -0.340 N 
HETATM   10  H5  UNL     1      24.867   4.265  52.585  1.00  0.00     0.167 HD
BRANCH   9  11
HETATM   11  C8  UNL     1      23.611   3.868  50.952  1.00  0.00     0.137 A 
HETATM   12  N2  UNL     1      22.347   3.696  51.050  1.00  0.00    -0.224 NA
HETATM   13  C9  UNL     1      21.491   4.058  49.979  1.00  0.00     0.229 A 
HETATM   14  N3  UNL     1      21.888   4.561  48.872  1.00  0.00    -0.278 NA
HETATM   15  C10 UNL     1      23.288   4.825  48.568  1.00  0.00     0.192 A 
HETATM   16  C11 UNL     1      24.109   4.465  49.731  1.00  0.00     0.008 A 
HETATM   17  C12 UNL     1      25.411   4.693  49.716  1.00  0.00     0.025 C 
BRANCH  17  18
HETATM   18  C13 UNL     1      26.601   5.177  49.044  1.00  0.00     0.010 C 
HETATM   19  C14 UNL     1      27.799   4.813  48.579  1.00  0.00     0.049 C 
BRANCH  18  20
HETATM   20  C15 UNL     1      26.924   6.512  48.568  1.00  0.00     0.245 C 
HETATM   21  N4  UNL     1      27.839   7.361  49.246  1.00  0.00    -0.366 N 
HETATM   22  H12 UNL     1      28.505   7.977  49.778  1.00  0.00     0.159 HD
HETATM   23  H13 UNL     1      28.504   7.974  49.745  1.00  0.00     0.159 HD
HETATM   24  O1  UNL     1      26.893   7.521  47.826  1.00  0.00    -0.268 OA
ENDBRANCH  18  20
ENDBRANCH  17  18
ENDBRANCH   9  11
ENDBRANCH   7   9
TORSDOF 4
ENDMDL
MODEL 9
REMARK VINA RESULT:      -7.3      3.401      5.405
REMARK  4 active torsions:
REMARK  status: ('A' for Active; 'I' for Inactive)
REMARK    1  A    between atoms: C7_7  and  N1_8 
REMARK    2  A    between atoms: N1_8  and  C8_9 
REMARK    3  A    between atoms: C12_15  and  C13_16 
REMARK    4  A    between atoms: C13_16  and  C15_18 
REMARK       I    between atoms: C15_18  and  N4_19 
ROOT
HETATM    1  C1  UNL     1      29.325  -2.134  53.188  1.00  0.00     0.018 C 
HETATM    2  C2  UNL     1      28.547  -1.207  53.167  1.00  0.00    -0.078 C 
HETATM    3  C3  UNL     1      27.639  -0.092  53.148  1.00  0.00     0.019 A 
HETATM    4  C4  UNL     1      28.106   1.171  53.519  1.00  0.00     0.021 A 
HETATM    5  C5  UNL     1      27.241   2.238  53.502  1.00  0.00     0.004 A 
HETATM    6  C6  UNL     1      25.934   2.036  53.120  1.00  0.00     0.029 A 
HETATM    7  C7  UNL     1      25.416   0.835  52.750  1.00  0.00     0.035 A 
HETATM    8  C16 UNL     1      26.323  -0.205  52.782  1.00  0.00     0.050 A 
ENDROOT
BRANCH   7   9
HETATM    9  N1  UNL     1      24.080   0.555  52.349  1.00  0.00    -0.340 N 
HETATM   10  H5  UNL     1      23.761   0.824  51.393  1.00  0.00     0.167 HD
BRANCH   9  11
HETATM   11  C8  UNL     1      23.120  -0.084  53.172  1.00  0.00     0.137 A 
HETATM   12  N2  UNL     1      23.511  -0.592  54.279  1.00  0.00    -0.224 NA
HETATM   13  C9  UNL     1      22.588  -1.245  55.133  1.00  0.00     0.229 A 
HETATM   14  N3  UNL     1      21.340  -1.382  54.883  1.00  0.00    -0.278 NA
HETATM   15  C10 UNL     1      20.707  -0.880  53.671  1.00  0.00     0.192 A 
HETATM   16  C11 UNL     1      21.710  -0.184  52.856  1.00  0.00     0.008 A 
HETATM   17  C12 UNL     1      21.348   0.426  51.741  1.00  0.00     0.025 C 
BRANCH  17  18
HETATM   18  C13 UNL     1      20.328   0.803  50.782  1.00  0.00     0.010 C 
HETATM   19  C14 UNL     1      20.131   1.336  49.573  1.00  0.00     0.049 C 
BRANCH  18  20
HETATM   20  C15 UNL     1      18.881   0.692  50.867  1.00  0.00     0.245 C 
HETATM   21  N4  UNL     1      18.075   0.361  49.745  1.00  0.00    -0.366 N 
HETATM   22  H12 UNL     1      17.500   0.134  48.895  1.00  0.00     0.159 HD
HETATM   23  H13 UNL     1      17.495   0.121  48.925  1.00  0.00     0.159 HD
HETATM   24  O1  UNL     1      17.742   0.710  51.390  1.00  0.00    -0.268 OA
ENDBRANCH  18  20
ENDBRANCH  17  18
ENDBRANCH   9  11
ENDBRANCH   7   9
TORSDOF 4
ENDMDL
