MODEL 1
REMARK VINA RESULT:      -7.2      0.000      0.000
REMARK  10 active torsions:
REMARK  status: ('A' for Active; 'I' for Inactive)
REMARK    1  A    between atoms: O1_2  and  C2_3 
REMARK    2  A    between atoms: C2_3  and  C3_4 
REMARK    3  A    between atoms: C3_4  and  O2_5 
REMARK    4  A    between atoms: O2_5  and  C4_6 
REMARK    5  A    between atoms: C8_12  and  N3_13 
REMARK    6  A    between atoms: N3_13  and  C9_14 
REMARK    7  A    between atoms: C19_24  and  O3_25 
REMARK    8  A    between atoms: O3_25  and  C20_26 
REMARK    9  A    between atoms: C20_26  and  C21_27 
REMARK   10  A    between atoms: C21_27  and  O4_28 
ROOT
HETATM    1  C4  UNL     1      23.497   1.102  52.793  1.00  0.00     0.104 A 
HETATM    2  C5  UNL     1      22.350   1.693  52.265  1.00  0.00     0.072 A 
HETATM    3  C6  UNL     1      22.140   3.039  51.912  1.00  0.00     0.075 A 
HETATM    4  N1  UNL     1      21.002   3.508  51.440  1.00  0.00    -0.241 NA
HETATM    5  C7  UNL     1      20.795   4.806  51.123  1.00  0.00     0.236 A 
HETATM    6  N2  UNL     1      21.872   5.537  51.341  1.00  0.00    -0.224 NA
HETATM    7  C8  UNL     1      23.049   5.197  51.802  1.00  0.00     0.142 A 
HETATM    8  C17 UNL     1      23.253   3.856  52.130  1.00  0.00     0.042 A 
HETATM    9  C18 UNL     1      24.421   3.354  52.644  1.00  0.00     0.057 A 
HETATM   10  C19 UNL     1      24.523   1.992  52.967  1.00  0.00     0.103 A 
ENDROOT
BRANCH   7  11
HETATM   11  N3  UNL     1      24.109   6.118  51.985  1.00  0.00    -0.340 N 
HETATM   12  H10 UNL     1      24.539   6.512  52.880  1.00  0.00     0.167 HD
BRANCH  11  13
HETATM   13  C9  UNL     1      24.691   6.592  50.764  1.00  0.00     0.030 C 
HETATM   14  C10 UNL     1      24.556   7.872  50.399  1.00  0.00     0.007 C 
HETATM   15  C11 UNL     1      24.936   8.803  49.306  1.00  0.00     0.063 C 
HETATM   16  C12 UNL     1      25.981   8.277  48.415  1.00  0.00    -0.080 C 
HETATM   17  C13 UNL     1      26.553   9.350  47.530  1.00  0.00     0.043 C 
HETATM   18  C14 UNL     1      26.578   7.094  48.161  1.00  0.00     0.003 C 
HETATM   19  C15 UNL     1      26.212   5.881  48.880  1.00  0.00     0.002 C 
HETATM   20  C16 UNL     1      25.456   5.642  49.928  1.00  0.00     0.029 C 
ENDBRANCH  11  13
ENDBRANCH   7  11
BRANCH  10  21
HETATM   21  O3  UNL     1      25.651   1.709  53.430  1.00  0.00    -0.346 OA
BRANCH  21  22
HETATM   22  C20 UNL     1      26.839   1.454  53.973  1.00  0.00     0.201 C 
BRANCH  22  23
HETATM   23  C21 UNL     1      26.643   0.249  54.952  1.00  0.00     0.193 C 
BRANCH  23  24
HETATM   24  O4  UNL     1      27.878  -0.423  54.983  1.00  0.00    -0.394 OA
HETATM   25  C22 UNL     1      28.838   0.530  54.615  1.00  0.00     0.201 C 
ENDBRANCH  23  24
ENDBRANCH  22  23
ENDBRANCH  21  22
ENDBRANCH  10  21
BRANCH   1  26
HETATM   26  O2  UNL     1      23.595  -0.226  53.118  1.00  0.00    -0.346 OA
BRANCH  26  27
HETATM   27  C3  UNL     1      22.490  -1.083  53.293  1.00  0.00     0.201 C 
BRANCH  27  28
HETATM   28  C2  UNL     1      21.934  -0.928  54.663  1.00  0.00     0.193 C 
BRANCH  28  29
HETATM   29  O1  UNL     1      20.721  -0.237  54.735  1.00  0.00    -0.394 OA
HETATM   30  C1  UNL     1      19.899  -0.498  53.666  1.00  0.00     0.201 C 
ENDBRANCH  28  29
ENDBRANCH  27  28
ENDBRANCH  26  27
ENDBRANCH   1  26
TORSDOF 10
ENDMDL
MODEL 2
REMARK VINA RESULT:      -7.2      3.273      6.253
REMARK  10 active torsions:
REMARK  status: ('A' for Active; 'I' for Inactive)
REMARK    1  A    between atoms: O1_2  and  C2_3 
REMARK    2  A    between atoms: C2_3  and  C3_4 
REMARK    3  A    between atoms: C3_4  and  O2_5 
REMARK    4  A    between atoms: O2_5  and  C4_6 
REMARK    5  A    between atoms: C8_12  and  N3_13 
REMARK    6  A    between atoms: N3_13  and  C9_14 
REMARK    7  A    between atoms: C19_24  and  O3_25 
REMARK    8  A    between atoms: O3_25  and  C20_26 
REMARK    9  A    between atoms: C20_26  and  C21_27 
REMARK   10  A    between atoms: C21_27  and  O4_28 
ROOT
HETATM    1  C4  UNL     1      20.637   1.020  50.677  1.00  0.00     0.104 A 
HETATM    2  C5  UNL     1      21.476   1.773  49.857  1.00  0.00     0.072 A 
HETATM    3  C6  UNL     1      22.761   2.272  50.139  1.00  0.00     0.075 A 
HETATM    4  N1  UNL     1      23.470   3.000  49.298  1.00  0.00    -0.241 NA
HETATM    5  C7  UNL     1      24.694   3.499  49.579  1.00  0.00     0.236 A 
HETATM    6  N2  UNL     1      25.090   3.161  50.792  1.00  0.00    -0.224 NA
HETATM    7  C8  UNL     1      24.488   2.452  51.713  1.00  0.00     0.142 A 
HETATM    8  C17 UNL     1      23.223   1.944  51.416  1.00  0.00     0.042 A 
HETATM    9  C18 UNL     1      22.462   1.205  52.286  1.00  0.00     0.057 A 
HETATM   10  C19 UNL     1      21.187   0.759  51.904  1.00  0.00     0.103 A 
ENDROOT
BRANCH   7  11
HETATM   11  N3  UNL     1      25.055   2.185  52.984  1.00  0.00    -0.340 N 
HETATM   12  H10 UNL     1      24.799   2.561  53.950  1.00  0.00     0.167 HD
BRANCH  11  13
HETATM   13  C9  UNL     1      26.147   1.257  52.954  1.00  0.00     0.030 C 
HETATM   14  C10 UNL     1      27.380   1.649  53.296  1.00  0.00     0.007 C 
HETATM   15  C11 UNL     1      28.762   1.120  53.424  1.00  0.00     0.063 C 
HETATM   16  C12 UNL     1      28.839  -0.348  53.396  1.00  0.00    -0.080 C 
HETATM   17  C13 UNL     1      30.189  -0.845  53.836  1.00  0.00     0.043 C 
HETATM   18  C14 UNL     1      28.039  -1.387  53.082  1.00  0.00     0.003 C 
HETATM   19  C15 UNL     1      26.670  -1.189  52.623  1.00  0.00     0.002 C 
HETATM   20  C16 UNL     1      25.880  -0.141  52.557  1.00  0.00     0.029 C 
ENDBRANCH  11  13
ENDBRANCH   7  11
BRANCH  10  21
HETATM   21  O3  UNL     1      20.631   0.109  52.818  1.00  0.00    -0.346 OA
BRANCH  21  22
HETATM   22  C20 UNL     1      20.104  -0.602  53.812  1.00  0.00     0.201 C 
BRANCH  22  23
HETATM   23  C21 UNL     1      21.181  -1.653  54.242  1.00  0.00     0.193 C 
BRANCH  23  24
HETATM   24  O4  UNL     1      21.833  -1.099  55.358  1.00  0.00    -0.394 OA
HETATM   25  C22 UNL     1      23.205  -1.184  55.077  1.00  0.00     0.201 C 
ENDBRANCH  23  24
ENDBRANCH  22  23
ENDBRANCH  21  22
ENDBRANCH  10  21
BRANCH   1  26
HETATM   26  O2  UNL     1      19.388   0.592  50.310  1.00  0.00    -0.346 OA
BRANCH  26  27
HETATM   27  C3  UNL     1      18.186   1.171  50.762  1.00  0.00     0.201 C 
BRANCH  27  28
HETATM   28  C2  UNL     1      17.657   2.114  49.741  1.00  0.00     0.193 C 
BRANCH  28  29
HETATM   29  O1  UNL     1      17.824   3.469  50.044  1.00  0.00    -0.394 OA
HETATM   30  C1  UNL     1      18.072   3.686  51.377  1.00  0.00     0.201 C 
ENDBRANCH  28  29
ENDBRANCH  27  28
ENDBRANCH  26  27
ENDBRANCH   1  26
TORSDOF 10
ENDMDL
MODEL 3
REMARK VINA RESULT:      -7.2      3.067      5.111
REMARK  10 active torsions:
REMARK  status: ('A' for Active; 'I' for Inactive)
REMARK    1  A    between atoms: O1_2  and  C2_3 
REMARK    2  A    between atoms: C2_3  and  C3_4 
REMARK    3  A    between atoms: C3_4  and  O2_5 
REMARK    4  A    between atoms: O2_5  and  C4_6 
REMARK    5  A    between atoms: C8_12  and  N3_13 
REMARK    6  A    between atoms: N3_13  and  C9_14 
REMARK    7  A    between atoms: C19_24  and  O3_25 
REMARK    8  A    between atoms: O3_25  and  C20_26 
REMARK    9  A    between atoms: C20_26  and  C21_27 
REMARK   10  A    between atoms: C21_27  and  O4_28 
ROOT
HETATM    1  C4  UNL     1      25.696   0.811  52.483  1.00  0.00     0.104 A 
HETATM    2  C5  UNL     1      26.528   1.591  51.682  1.00  0.00     0.072 A 
HETATM    3  C6  UNL     1      26.181   2.664  50.841  1.00  0.00     0.075 A 
HETATM    4  N1  UNL     1      27.046   3.328  50.098  1.00  0.00    -0.241 NA
HETATM    5  C7  UNL     1      26.707   4.344  49.273  1.00  0.00     0.236 A 
HETATM    6  N2  UNL     1      25.411   4.589  49.309  1.00  0.00    -0.224 NA
HETATM    7  C8  UNL     1      24.458   4.009  49.995  1.00  0.00     0.142 A 
HETATM    8  C17 UNL     1      24.815   2.959  50.841  1.00  0.00     0.042 A 
HETATM    9  C18 UNL     1      23.927   2.242  51.602  1.00  0.00     0.057 A 
HETATM   10  C19 UNL     1      24.380   1.183  52.405  1.00  0.00     0.103 A 
ENDROOT
BRANCH   7  11
HETATM   11  N3  UNL     1      23.097   4.392  49.912  1.00  0.00    -0.340 N 
HETATM   12  H10 UNL     1      22.393   4.622  50.681  1.00  0.00     0.167 HD
BRANCH  11  13
HETATM   13  C9  UNL     1      22.595   4.485  48.572  1.00  0.00     0.030 C 
HETATM   14  C10 UNL     1      22.409   5.679  47.998  1.00  0.00     0.007 C 
HETATM   15  C11 UNL     1      21.941   6.283  46.724  1.00  0.00     0.063 C 
HETATM   16  C12 UNL     1      21.844   5.324  45.614  1.00  0.00    -0.080 C 
HETATM   17  C13 UNL     1      21.676   6.017  44.290  1.00  0.00     0.043 C 
HETATM   18  C14 UNL     1      21.860   3.986  45.442  1.00  0.00     0.003 C 
HETATM   19  C15 UNL     1      22.011   3.071  46.565  1.00  0.00     0.002 C 
HETATM   20  C16 UNL     1      22.305   3.236  47.836  1.00  0.00     0.029 C 
ENDBRANCH  11  13
ENDBRANCH   7  11
BRANCH  10  21
HETATM   21  O3  UNL     1      23.439   0.636  53.023  1.00  0.00    -0.346 OA
BRANCH  21  22
HETATM   22  C20 UNL     1      22.394   0.088  53.638  1.00  0.00     0.201 C 
BRANCH  22  23
HETATM   23  C21 UNL     1      22.960  -0.978  54.635  1.00  0.00     0.193 C 
BRANCH  23  24
HETATM   24  O4  UNL     1      21.840  -1.655  55.148  1.00  0.00    -0.394 OA
HETATM   25  C22 UNL     1      20.819  -1.470  54.204  1.00  0.00     0.201 C 
ENDBRANCH  23  24
ENDBRANCH  22  23
ENDBRANCH  21  22
ENDBRANCH  10  21
BRANCH   1  26
HETATM   26  O2  UNL     1      26.135  -0.229  53.260  1.00  0.00    -0.346 OA
BRANCH  26  27
HETATM   27  C3  UNL     1      26.530  -0.101  54.607  1.00  0.00     0.201 C 
BRANCH  27  28
HETATM   28  C2  UNL     1      27.991   0.163  54.689  1.00  0.00     0.193 C 
BRANCH  28  29
HETATM   29  O1  UNL     1      28.808  -0.908  54.317  1.00  0.00    -0.394 OA
HETATM   30  C1  UNL     1      29.903  -0.512  53.591  1.00  0.00     0.201 C 
ENDBRANCH  28  29
ENDBRANCH  27  28
ENDBRANCH  26  27
ENDBRANCH   1  26
TORSDOF 10
ENDMDL
MODEL 4
REMARK VINA RESULT:      -7.1      4.450      7.169
REMARK  10 active torsions:
REMARK  status: ('A' for Active; 'I' for Inactive)
REMARK    1  A    between atoms: O1_2  and  C2_3 
REMARK    2  A    between atoms: C2_3  and  C3_4 
REMARK    3  A    between atoms: C3_4  and  O2_5 
REMARK    4  A    between atoms: O2_5  and  C4_6 
REMARK    5  A    between atoms: C8_12  and  N3_13 
REMARK    6  A    between atoms: N3_13  and  C9_14 
REMARK    7  A    between atoms: C19_24  and  O3_25 
REMARK    8  A    between atoms: O3_25  and  C20_26 
REMARK    9  A    between atoms: C20_26  and  C21_27 
REMARK   10  A    between atoms: C21_27  and  O4_28 
ROOT
HETATM    1  C4  UNL     1      19.248  -0.145  52.421  1.00  0.00     0.104 A 
HETATM    2  C5  UNL     1      19.843  -0.706  53.551  1.00  0.00     0.072 A 
HETATM    3  C6  UNL     1      21.206  -0.740  53.898  1.00  0.00     0.075 A 
HETATM    4  N1  UNL     1      21.675  -1.321  54.986  1.00  0.00    -0.241 NA
HETATM    5  C7  UNL     1      22.987  -1.373  55.306  1.00  0.00     0.236 A 
HETATM    6  N2  UNL     1      23.733  -0.768  54.401  1.00  0.00    -0.224 NA
HETATM    7  C8  UNL     1      23.395  -0.161  53.292  1.00  0.00     0.142 A 
HETATM    8  C17 UNL     1      22.039  -0.116  52.966  1.00  0.00     0.042 A 
HETATM    9  C18 UNL     1      21.535   0.463  51.829  1.00  0.00     0.057 A 
HETATM   10  C19 UNL     1      20.155   0.437  51.575  1.00  0.00     0.103 A 
ENDROOT
BRANCH   7  11
HETATM   11  N3  UNL     1      24.333   0.437  52.416  1.00  0.00    -0.340 N 
HETATM   12  H10 UNL     1      24.196   0.895  51.460  1.00  0.00     0.167 HD
BRANCH  11  13
HETATM   13  C9  UNL     1      25.681   0.422  52.902  1.00  0.00     0.030 C 
HETATM   14  C10 UNL     1      26.423  -0.688  52.812  1.00  0.00     0.007 C 
HETATM   15  C11 UNL     1      27.778  -1.196  53.143  1.00  0.00     0.063 C 
HETATM   16  C12 UNL     1      28.742  -0.138  53.479  1.00  0.00    -0.080 C 
HETATM   17  C13 UNL     1      30.154  -0.655  53.500  1.00  0.00     0.043 C 
HETATM   18  C14 UNL     1      28.722   1.177  53.779  1.00  0.00     0.003 C 
HETATM   19  C15 UNL     1      27.478   1.932  53.830  1.00  0.00     0.002 C 
HETATM   20  C16 UNL     1      26.238   1.660  53.487  1.00  0.00     0.029 C 
ENDBRANCH  11  13
ENDBRANCH   7  11
BRANCH  10  21
HETATM   21  O3  UNL     1      19.872   1.001  50.494  1.00  0.00    -0.346 OA
BRANCH  21  22
HETATM   22  C20 UNL     1      19.637   1.623  49.342  1.00  0.00     0.201 C 
BRANCH  22  23
HETATM   23  C21 UNL     1      21.018   1.786  48.622  1.00  0.00     0.193 C 
BRANCH  23  24
HETATM   24  O4  UNL     1      21.586   2.960  49.145  1.00  0.00    -0.394 OA
HETATM   25  C22 UNL     1      22.956   2.690  49.284  1.00  0.00     0.201 C 
ENDBRANCH  23  24
ENDBRANCH  22  23
ENDBRANCH  21  22
ENDBRANCH  10  21
BRANCH   1  26
HETATM   26  O2  UNL     1      17.901  -0.178  52.167  1.00  0.00    -0.346 OA
BRANCH  26  27
HETATM   27  C3  UNL     1      17.012  -1.116  52.728  1.00  0.00     0.201 C 
BRANCH  27  28
HETATM   28  C2  UNL     1      15.613  -0.785  52.347  1.00  0.00     0.193 C 
BRANCH  28  29
HETATM   29  O1  UNL     1      15.239   0.544  52.566  1.00  0.00    -0.394 OA
HETATM   30  C1  UNL     1      14.076   0.655  53.287  1.00  0.00     0.201 C 
ENDBRANCH  28  29
ENDBRANCH  27  28
ENDBRANCH  26  27
ENDBRANCH   1  26
TORSDOF 10
ENDMDL
MODEL 5
REMARK VINA RESULT:      -7.0      2.417      4.950
REMARK  10 active torsions:
REMARK  status: ('A' for Active; 'I' for Inactive)
REMARK    1  A    between atoms: O1_2  and  C2_3 
REMARK    2  A    between atoms: C2_3  and  C3_4 
REMARK    3  A    between atoms: C3_4  and  O2_5 
REMARK    4  A    between atoms: O2_5  and  C4_6 
REMARK    5  A    between atoms: C8_12  and  N3_13 
REMARK    6  A    between atoms: N3_13  and  C9_14 
REMARK    7  A    between atoms: C19_24  and  O3_25 
REMARK    8  A    between atoms: O3_25  and  C20_26 
REMARK    9  A    between atoms: C20_26  and  C21_27 
REMARK   10  A    between atoms: C21_27  and  O4_28 
ROOT
HETATM    1  C4  UNL     1      25.811   0.856  52.565  1.00  0.00     0.104 A 
HETATM    2  C5  UNL     1      26.624   1.720  51.833  1.00  0.00     0.072 A 
HETATM    3  C6  UNL     1      26.248   2.674  50.869  1.00  0.00     0.075 A 
HETATM    4  N1  UNL     1      27.102   3.431  50.209  1.00  0.00    -0.241 NA
HETATM    5  C7  UNL     1      26.740   4.330  49.267  1.00  0.00     0.236 A 
HETATM    6  N2  UNL     1      25.431   4.356  49.096  1.00  0.00    -0.224 NA
HETATM    7  C8  UNL     1      24.487   3.663  49.680  1.00  0.00     0.142 A 
HETATM    8  C17 UNL     1      24.869   2.735  50.649  1.00  0.00     0.042 A 
HETATM    9  C18 UNL     1      23.998   1.922  51.328  1.00  0.00     0.057 A 
HETATM   10  C19 UNL     1      24.481   0.999  52.269  1.00  0.00     0.103 A 
ENDROOT
BRANCH   7  11
HETATM   11  N3  UNL     1      23.112   3.809  49.371  1.00  0.00    -0.340 N 
HETATM   12  H10 UNL     1      22.377   3.077  49.118  1.00  0.00     0.167 HD
BRANCH  11  13
HETATM   13  C9  UNL     1      22.643   5.162  49.410  1.00  0.00     0.030 C 
HETATM   14  C10 UNL     1      22.520   5.871  48.281  1.00  0.00     0.007 C 
HETATM   15  C11 UNL     1      22.111   7.217  47.807  1.00  0.00     0.063 C 
HETATM   16  C12 UNL     1      21.389   8.007  48.815  1.00  0.00    -0.080 C 
HETATM   17  C13 UNL     1      20.728   9.215  48.211  1.00  0.00     0.043 C 
HETATM   18  C14 UNL     1      21.150   7.960  50.142  1.00  0.00     0.003 C 
HETATM   19  C15 UNL     1      21.677   6.888  50.977  1.00  0.00     0.002 C 
HETATM   20  C16 UNL     1      22.283   5.751  50.717  1.00  0.00     0.029 C 
ENDBRANCH  11  13
ENDBRANCH   7  11
BRANCH  10  21
HETATM   21  O3  UNL     1      23.553   0.336  52.786  1.00  0.00    -0.346 OA
BRANCH  21  22
HETATM   22  C20 UNL     1      22.573  -0.414  53.283  1.00  0.00     0.201 C 
BRANCH  22  23
HETATM   23  C21 UNL     1      23.124  -1.075  54.591  1.00  0.00     0.193 C 
BRANCH  23  24
HETATM   24  O4  UNL     1      22.005  -1.622  55.243  1.00  0.00    -0.394 OA
HETATM   25  C22 UNL     1      20.964  -1.590  54.304  1.00  0.00     0.201 C 
ENDBRANCH  23  24
ENDBRANCH  22  23
ENDBRANCH  21  22
ENDBRANCH  10  21
BRANCH   1  26
HETATM   26  O2  UNL     1      26.282  -0.052  53.477  1.00  0.00    -0.346 OA
BRANCH  26  27
HETATM   27  C3  UNL     1      26.706   0.279  54.779  1.00  0.00     0.201 C 
BRANCH  27  28
HETATM   28  C2  UNL     1      28.173   0.074  54.907  1.00  0.00     0.193 C 
BRANCH  28  29
HETATM   29  O1  UNL     1      28.692  -0.978  54.146  1.00  0.00    -0.394 OA
HETATM   30  C1  UNL     1      29.839  -0.630  53.476  1.00  0.00     0.201 C 
ENDBRANCH  28  29
ENDBRANCH  27  28
ENDBRANCH  26  27
ENDBRANCH   1  26
TORSDOF 10
ENDMDL
MODEL 6
REMARK VINA RESULT:      -6.9      2.676      6.485
REMARK  10 active torsions:
REMARK  status: ('A' for Active; 'I' for Inactive)
REMARK    1  A    between atoms: O1_2  and  C2_3 
REMARK    2  A    between atoms: C2_3  and  C3_4 
REMARK    3  A    between atoms: C3_4  and  O2_5 
REMARK    4  A    between atoms: O2_5  and  C4_6 
REMARK    5  A    between atoms: C8_12  and  N3_13 
REMARK    6  A    between atoms: N3_13  and  C9_14 
REMARK    7  A    between atoms: C19_24  and  O3_25 
REMARK    8  A    between atoms: O3_25  and  C20_26 
REMARK    9  A    between atoms: C20_26  and  C21_27 
REMARK   10  A    between atoms: C21_27  and  O4_28 
ROOT
HETATM    1  C4  UNL     1      25.939   0.275  52.807  1.00  0.00     0.104 A 
HETATM    2  C5  UNL     1      26.065   1.205  51.776  1.00  0.00     0.072 A 
HETATM    3  C6  UNL     1      25.114   2.132  51.311  1.00  0.00     0.075 A 
HETATM    4  N1  UNL     1      25.321   2.959  50.305  1.00  0.00    -0.241 NA
HETATM    5  C7  UNL     1      24.399   3.833  49.845  1.00  0.00     0.236 A 
HETATM    6  N2  UNL     1      23.273   3.758  50.530  1.00  0.00    -0.224 NA
HETATM    7  C8  UNL     1      22.944   2.989  51.537  1.00  0.00     0.142 A 
HETATM    8  C17 UNL     1      23.901   2.087  52.003  1.00  0.00     0.042 A 
HETATM    9  C18 UNL     1      23.695   1.204  53.033  1.00  0.00     0.057 A 
HETATM   10  C19 UNL     1      24.712   0.316  53.414  1.00  0.00     0.103 A 
ENDROOT
BRANCH   7  11
HETATM   11  N3  UNL     1      21.674   3.029  52.163  1.00  0.00    -0.340 N 
HETATM   12  H10 UNL     1      21.383   3.407  53.118  1.00  0.00     0.167 HD
BRANCH  11  13
HETATM   13  C9  UNL     1      20.615   2.468  51.376  1.00  0.00     0.030 C 
HETATM   14  C10 UNL     1      20.209   1.210  51.582  1.00  0.00     0.007 C 
HETATM   15  C11 UNL     1      19.224   0.221  51.074  1.00  0.00     0.063 C 
HETATM   16  C12 UNL     1      18.179   0.808  50.223  1.00  0.00    -0.080 C 
HETATM   17  C13 UNL     1      17.044  -0.150  49.991  1.00  0.00     0.043 C 
HETATM   18  C14 UNL     1      17.946   1.972  49.581  1.00  0.00     0.003 C 
HETATM   19  C15 UNL     1      18.891   3.080  49.638  1.00  0.00     0.002 C 
HETATM   20  C16 UNL     1      19.973   3.312  50.346  1.00  0.00     0.029 C 
ENDBRANCH  11  13
ENDBRANCH   7  11
BRANCH  10  21
HETATM   21  O3  UNL     1      24.353  -0.421  54.360  1.00  0.00    -0.346 OA
BRANCH  21  22
HETATM   22  C20 UNL     1      24.022  -1.175  55.406  1.00  0.00     0.201 C 
BRANCH  22  23
HETATM   23  C21 UNL     1      22.731  -1.965  55.007  1.00  0.00     0.193 C 
BRANCH  23  24
HETATM   24  O4  UNL     1      21.656  -1.097  55.267  1.00  0.00    -0.394 OA
HETATM   25  C22 UNL     1      20.799  -1.213  54.162  1.00  0.00     0.201 C 
ENDBRANCH  23  24
ENDBRANCH  22  23
ENDBRANCH  21  22
ENDBRANCH  10  21
BRANCH   1  26
HETATM   26  O2  UNL     1      26.929  -0.599  53.175  1.00  0.00    -0.346 OA
BRANCH  26  27
HETATM   27  C3  UNL     1      28.271  -0.233  53.391  1.00  0.00     0.201 C 
BRANCH  27  28
HETATM   28  C2  UNL     1      28.476   0.142  54.816  1.00  0.00     0.193 C 
BRANCH  28  29
HETATM   29  O1  UNL     1      28.924   1.450  55.025  1.00  0.00    -0.394 OA
HETATM   30  C1  UNL     1      28.919   2.201  53.876  1.00  0.00     0.201 C 
ENDBRANCH  28  29
ENDBRANCH  27  28
ENDBRANCH  26  27
ENDBRANCH   1  26
TORSDOF 10
ENDMDL
MODEL 7
REMARK VINA RESULT:      -6.8      3.196      5.236
REMARK  10 active torsions:
REMARK  status: ('A' for Active; 'I' for Inactive)
REMARK    1  A    between atoms: O1_2  and  C2_3 
REMARK    2  A    between atoms: C2_3  and  C3_4 
REMARK    3  A    between atoms: C3_4  and  O2_5 
REMARK    4  A    between atoms: O2_5  and  C4_6 
REMARK    5  A    between atoms: C8_12  and  N3_13 
REMARK    6  A    between atoms: N3_13  and  C9_14 
REMARK    7  A    between atoms: C19_24  and  O3_25 
REMARK    8  A    between atoms: O3_25  and  C20_26 
REMARK    9  A    between atoms: C20_26  and  C21_27 
REMARK   10  A    between atoms: C21_27  and  O4_28 
ROOT
HETATM    1  C4  UNL     1      25.409   1.160  51.955  1.00  0.00     0.104 A 
HETATM    2  C5  UNL     1      26.377   1.895  51.270  1.00  0.00     0.072 A 
HETATM    3  C6  UNL     1      26.204   3.033  50.461  1.00  0.00     0.075 A 
HETATM    4  N1  UNL     1      27.187   3.646  49.831  1.00  0.00    -0.241 NA
HETATM    5  C7  UNL     1      27.016   4.725  49.036  1.00  0.00     0.236 A 
HETATM    6  N2  UNL     1      25.748   5.088  48.975  1.00  0.00    -0.224 NA
HETATM    7  C8  UNL     1      24.690   4.570  49.544  1.00  0.00     0.142 A 
HETATM    8  C17 UNL     1      24.875   3.453  50.361  1.00  0.00     0.042 A 
HETATM    9  C18 UNL     1      23.862   2.789  51.004  1.00  0.00     0.057 A 
HETATM   10  C19 UNL     1      24.144   1.658  51.785  1.00  0.00     0.103 A 
ENDROOT
BRANCH   7  11
HETATM   11  N3  UNL     1      23.381   5.082  49.366  1.00  0.00    -0.340 N 
HETATM   12  H10 UNL     1      22.689   5.478  50.077  1.00  0.00     0.167 HD
BRANCH  11  13
HETATM   13  C9  UNL     1      22.924   5.062  48.008  1.00  0.00     0.030 C 
HETATM   14  C10 UNL     1      22.449   3.933  47.468  1.00  0.00     0.007 C 
HETATM   15  C11 UNL     1      21.891   3.413  46.194  1.00  0.00     0.063 C 
HETATM   16  C12 UNL     1      21.501   4.466  45.244  1.00  0.00    -0.080 C 
HETATM   17  C13 UNL     1      20.666   3.921  44.119  1.00  0.00     0.043 C 
HETATM   18  C14 UNL     1      21.682   5.794  45.091  1.00  0.00     0.003 C 
HETATM   19  C15 UNL     1      22.457   6.577  46.044  1.00  0.00     0.002 C 
HETATM   20  C16 UNL     1      22.973   6.315  47.225  1.00  0.00     0.029 C 
ENDBRANCH  11  13
ENDBRANCH   7  11
BRANCH  10  21
HETATM   21  O3  UNL     1      23.107   1.173  52.291  1.00  0.00    -0.346 OA
BRANCH  21  22
HETATM   22  C20 UNL     1      22.028   0.679  52.893  1.00  0.00     0.201 C 
BRANCH  22  23
HETATM   23  C21 UNL     1      22.282  -0.851  53.100  1.00  0.00     0.193 C 
BRANCH  23  24
HETATM   24  O4  UNL     1      21.698  -1.173  54.338  1.00  0.00    -0.394 OA
HETATM   25  C22 UNL     1      22.766  -1.305  55.238  1.00  0.00     0.201 C 
ENDBRANCH  23  24
ENDBRANCH  22  23
ENDBRANCH  21  22
ENDBRANCH  10  21
BRANCH   1  26
HETATM   26  O2  UNL     1      25.682   0.050  52.710  1.00  0.00    -0.346 OA
BRANCH  26  27
HETATM   27  C3  UNL     1      26.976  -0.337  53.113  1.00  0.00     0.201 C 
BRANCH  27  28
HETATM   28  C2  UNL     1      27.218   0.074  54.521  1.00  0.00     0.193 C 
BRANCH  28  29
HETATM   29  O1  UNL     1      28.493  -0.221  55.013  1.00  0.00    -0.394 OA
HETATM   30  C1  UNL     1      29.367  -0.599  54.025  1.00  0.00     0.201 C 
ENDBRANCH  28  29
ENDBRANCH  27  28
ENDBRANCH  26  27
ENDBRANCH   1  26
TORSDOF 10
ENDMDL
MODEL 8
REMARK VINA RESULT:      -6.7      1.671      2.397
REMARK  10 active torsions:
REMARK  status: ('A' for Active; 'I' for Inactive)
REMARK    1  A    between atoms: O1_2  and  C2_3 
REMARK    2  A    between atoms: C2_3  and  C3_4 
REMARK    3  A    between atoms: C3_4  and  O2_5 
REMARK    4  A    between atoms: O2_5  and  C4_6 
REMARK    5  A    between atoms: C8_12  and  N3_13 
REMARK    6  A    between atoms: N3_13  and  C9_14 
REMARK    7  A    between atoms: C19_24  and  O3_25 
REMARK    8  A    between atoms: O3_25  and  C20_26 
REMARK    9  A    between atoms: C20_26  and  C21_27 
REMARK   10  A    between atoms: C21_27  and  O4_28 
ROOT
HETATM    1  C4  UNL     1      21.265   1.322  51.772  1.00  0.00     0.104 A 
HETATM    2  C5  UNL     1      20.635   2.397  51.145  1.00  0.00     0.072 A 
HETATM    3  C6  UNL     1      21.138   3.689  50.906  1.00  0.00     0.075 A 
HETATM    4  N1  UNL     1      20.449   4.651  50.322  1.00  0.00    -0.241 NA
HETATM    5  C7  UNL     1      20.925   5.899  50.115  1.00  0.00     0.236 A 
HETATM    6  N2  UNL     1      22.160   6.030  50.564  1.00  0.00    -0.224 NA
HETATM    7  C8  UNL     1      22.943   5.164  51.155  1.00  0.00     0.142 A 
HETATM    8  C17 UNL     1      22.442   3.879  51.369  1.00  0.00     0.042 A 
HETATM    9  C18 UNL     1      23.134   2.873  51.995  1.00  0.00     0.057 A 
HETATM   10  C19 UNL     1      22.536   1.619  52.187  1.00  0.00     0.103 A 
ENDROOT
BRANCH   7  11
HETATM   11  N3  UNL     1      24.256   5.471  51.587  1.00  0.00    -0.340 N 
HETATM   12  H10 UNL     1      24.634   5.678  52.564  1.00  0.00     0.167 HD
BRANCH  11  13
HETATM   13  C9  UNL     1      25.227   5.505  50.534  1.00  0.00     0.030 C 
HETATM   14  C10 UNL     1      25.590   6.669  49.982  1.00  0.00     0.007 C 
HETATM   15  C11 UNL     1      26.488   7.215  48.932  1.00  0.00     0.063 C 
HETATM   16  C12 UNL     1      27.493   6.254  48.454  1.00  0.00    -0.080 C 
HETATM   17  C13 UNL     1      28.563   6.925  47.638  1.00  0.00     0.043 C 
HETATM   18  C14 UNL     1      27.731   4.929  48.537  1.00  0.00     0.003 C 
HETATM   19  C15 UNL     1      26.845   4.036  49.272  1.00  0.00     0.002 C 
HETATM   20  C16 UNL     1      25.829   4.233  50.082  1.00  0.00     0.029 C 
ENDBRANCH  11  13
ENDBRANCH   7  11
BRANCH  10  21
HETATM   21  O3  UNL     1      23.303   0.825  52.779  1.00  0.00    -0.346 OA
BRANCH  21  22
HETATM   22  C20 UNL     1      24.087  -0.070  53.373  1.00  0.00     0.201 C 
BRANCH  22  23
HETATM   23  C21 UNL     1      25.543   0.189  52.863  1.00  0.00     0.193 C 
BRANCH  23  24
HETATM   24  O4  UNL     1      26.255   0.684  53.969  1.00  0.00    -0.394 OA
HETATM   25  C22 UNL     1      26.566   2.016  53.656  1.00  0.00     0.201 C 
ENDBRANCH  23  24
ENDBRANCH  22  23
ENDBRANCH  21  22
ENDBRANCH  10  21
BRANCH   1  26
HETATM   26  O2  UNL     1      20.678   0.099  51.969  1.00  0.00    -0.346 OA
BRANCH  26  27
HETATM   27  C3  UNL     1      19.564  -0.122  52.801  1.00  0.00     0.201 C 
BRANCH  27  28
HETATM   28  C2  UNL     1      18.321  -0.180  51.987  1.00  0.00     0.193 C 
BRANCH  28  29
HETATM   29  O1  UNL     1      17.488  -1.270  52.257  1.00  0.00    -0.394 OA
HETATM   30  C1  UNL     1      17.772  -1.869  53.458  1.00  0.00     0.201 C 
ENDBRANCH  28  29
ENDBRANCH  27  28
ENDBRANCH  26  27
ENDBRANCH   1  26
TORSDOF 10
ENDMDL
MODEL 9
REMARK VINA RESULT:      -6.6      3.861      7.430
REMARK  10 active torsions:
REMARK  status: ('A' for Active; 'I' for Inactive)
REMARK    1  A    between atoms: O1_2  and  C2_3 
REMARK    2  A    between atoms: C2_3  and  C3_4 
REMARK    3  A    between atoms: C3_4  and  O2_5 
REMARK    4  A    between atoms: O2_5  and  C4_6 
REMARK    5  A    between atoms: C8_12  and  N3_13 
REMARK    6  A    between atoms: N3_13  and  C9_14 
REMARK    7  A    between atoms: C19_24  and  O3_25 
REMARK    8  A    between atoms: O3_25  and  C20_26 
REMARK    9  A    between atoms: C20_26  and  C21_27 
REMARK   10  A    between atoms: C21_27  and  O4_28 
ROOT
HETATM    1  C4  UNL     1      23.062   3.146  48.867  1.00  0.00     0.104 A 
HETATM    2  C5  UNL     1      22.254   2.148  49.410  1.00  0.00     0.072 A 
HETATM    3  C6  UNL     1      22.381   1.494  50.650  1.00  0.00     0.075 A 
HETATM    4  N1  UNL     1      21.573   0.538  51.065  1.00  0.00    -0.241 NA
HETATM    5  C7  UNL     1      21.710  -0.105  52.246  1.00  0.00     0.236 A 
HETATM    6  N2  UNL     1      22.747   0.347  52.928  1.00  0.00    -0.224 NA
HETATM    7  C8  UNL     1      23.616   1.279  52.630  1.00  0.00     0.142 A 
HETATM    8  C17 UNL     1      23.469   1.935  51.408  1.00  0.00     0.042 A 
HETATM    9  C18 UNL     1      24.313   2.914  50.949  1.00  0.00     0.057 A 
HETATM   10  C19 UNL     1      24.098   3.499  49.691  1.00  0.00     0.103 A 
ENDROOT
BRANCH   7  11
HETATM   11  N3  UNL     1      24.689   1.642  53.481  1.00  0.00    -0.340 N 
HETATM   12  H10 UNL     1      24.752   2.396  54.234  1.00  0.00     0.167 HD
BRANCH  11  13
HETATM   13  C9  UNL     1      25.877   0.862  53.291  1.00  0.00     0.030 C 
HETATM   14  C10 UNL     1      27.076   1.364  53.608  1.00  0.00     0.007 C 
HETATM   15  C11 UNL     1      28.515   0.996  53.603  1.00  0.00     0.063 C 
HETATM   16  C12 UNL     1      28.759  -0.440  53.407  1.00  0.00    -0.080 C 
HETATM   17  C13 UNL     1      30.183  -0.812  53.717  1.00  0.00     0.043 C 
HETATM   18  C14 UNL     1      28.065  -1.531  53.022  1.00  0.00     0.003 C 
HETATM   19  C15 UNL     1      26.656  -1.454  52.660  1.00  0.00     0.002 C 
HETATM   20  C16 UNL     1      25.747  -0.509  52.754  1.00  0.00     0.029 C 
ENDBRANCH  11  13
ENDBRANCH   7  11
BRANCH  10  21
HETATM   21  O3  UNL     1      24.963   4.365  49.429  1.00  0.00    -0.346 OA
BRANCH  21  22
HETATM   22  C20 UNL     1      25.857   5.288  49.084  1.00  0.00     0.201 C 
BRANCH  22  23
HETATM   23  C21 UNL     1      25.602   6.534  49.998  1.00  0.00     0.193 C 
BRANCH  23  24
HETATM   24  O4  UNL     1      24.239   6.844  49.850  1.00  0.00    -0.394 OA
HETATM   25  C22 UNL     1      24.068   8.098  50.456  1.00  0.00     0.201 C 
ENDBRANCH  23  24
ENDBRANCH  22  23
ENDBRANCH  21  22
ENDBRANCH  10  21
BRANCH   1  26
HETATM   26  O2  UNL     1      22.859   3.712  47.636  1.00  0.00    -0.346 OA
BRANCH  26  27
HETATM   27  C3  UNL     1      21.625   3.707  46.955  1.00  0.00     0.201 C 
BRANCH  27  28
HETATM   28  C2  UNL     1      21.851   3.751  45.486  1.00  0.00     0.193 C 
BRANCH  28  29
HETATM   29  O1  UNL     1      20.924   4.510  44.766  1.00  0.00    -0.394 OA
HETATM   30  C1  UNL     1      20.380   3.820  43.712  1.00  0.00     0.201 C 
ENDBRANCH  28  29
ENDBRANCH  27  28
ENDBRANCH  26  27
ENDBRANCH   1  26
TORSDOF 10
ENDMDL
