MODEL 1
REMARK VINA RESULT:      -7.9      0.000      0.000
REMARK  1 active torsions:
REMARK  status: ('A' for Active; 'I' for Inactive)
REMARK    1  A    between atoms: C3_3  and  C4_4 
ROOT
HETATM    1  C4  UNL     1      26.254   1.140  51.693  1.00  0.00     0.007 C 
HETATM    2  C5  UNL     1      24.940   1.231  51.807  1.00  0.00    -0.052 C 
HETATM    3  C6  UNL     1      24.189   0.379  52.782  1.00  0.00     0.004 C 
HETATM    4  C7  UNL     1      23.151   1.140  53.211  1.00  0.00    -0.016 C 
HETATM    5  C8  UNL     1      23.208   2.370  52.589  1.00  0.00     0.050 C 
HETATM    6  C9  UNL     1      22.016   3.167  52.080  1.00  0.00    -0.030 C 
HETATM    7  C10 UNL     1      21.054   2.512  51.368  1.00  0.00     0.094 C 
HETATM    8  N1  UNL     1      21.597   2.515  49.987  1.00  0.00    -0.361 N 
HETATM    9  C11 UNL     1      21.320   1.998  48.628  1.00  0.00     0.129 C 
HETATM   10  C12 UNL     1      22.774   2.195  48.271  1.00  0.00     0.076 C 
HETATM   11  C13 UNL     1      22.798   3.162  49.370  1.00  0.00     0.137 C 
HETATM   12  N2  UNL     1      22.350   4.509  49.080  1.00  0.00    -0.252 NA
HETATM   13  C14 UNL     1      21.664   5.365  49.820  1.00  0.00     0.200 C 
HETATM   14  N3  UNL     1      21.496   5.484  51.274  1.00  0.00    -0.373 N 
HETATM   15  C15 UNL     1      22.092   4.689  52.335  1.00  0.00     0.136 C 
HETATM   16  C16 UNL     1      23.560   5.057  52.021  1.00  0.00    -0.001 C 
HETATM   17  C17 UNL     1      24.242   4.413  51.031  1.00  0.00    -0.019 C 
HETATM   18  C18 UNL     1      23.987   3.104  50.325  1.00  0.00     0.068 C 
HETATM   19  C19 UNL     1      23.879   1.974  51.220  1.00  0.00     0.042 C 
HETATM   20  H16 UNL     1      20.861   6.239  51.599  1.00  0.00     0.161 HD
ENDROOT
BRANCH   1  21
HETATM   21  C3  UNL     1      27.086   0.240  52.470  1.00  0.00    -0.004 C 
HETATM   22  C2  UNL     1      28.010   0.649  53.315  1.00  0.00    -0.031 C 
HETATM   23  C1  UNL     1      28.825  -0.347  54.078  1.00  0.00     0.036 C 
ENDBRANCH   1  21
TORSDOF 1
ENDMDL
MODEL 2
REMARK VINA RESULT:      -7.7      2.459      3.519
REMARK  1 active torsions:
REMARK  status: ('A' for Active; 'I' for Inactive)
REMARK    1  A    between atoms: C3_3  and  C4_4 
ROOT
HETATM    1  C4  UNL     1      26.407   4.857  48.830  1.00  0.00     0.007 C 
HETATM    2  C5  UNL     1      25.762   3.894  49.465  1.00  0.00    -0.052 C 
HETATM    3  C6  UNL     1      26.503   2.856  50.250  1.00  0.00     0.004 C 
HETATM    4  C7  UNL     1      25.700   2.547  51.299  1.00  0.00    -0.016 C 
HETATM    5  C8  UNL     1      24.547   3.302  51.222  1.00  0.00     0.050 C 
HETATM    6  C9  UNL     1      23.143   2.821  51.555  1.00  0.00    -0.030 C 
HETATM    7  C10 UNL     1      22.743   1.608  51.076  1.00  0.00     0.094 C 
HETATM    8  N1  UNL     1      22.267   1.926  49.708  1.00  0.00    -0.361 N 
HETATM    9  C11 UNL     1      21.761   1.283  48.475  1.00  0.00     0.129 C 
HETATM   10  C12 UNL     1      22.146   2.515  47.690  1.00  0.00     0.076 C 
HETATM   11  C13 UNL     1      22.080   3.218  48.972  1.00  0.00     0.137 C 
HETATM   12  N2  UNL     1      20.778   3.675  49.413  1.00  0.00    -0.252 NA
HETATM   13  C14 UNL     1      20.248   3.725  50.626  1.00  0.00     0.200 C 
HETATM   14  N3  UNL     1      20.862   3.781  51.958  1.00  0.00    -0.373 N 
HETATM   15  C15 UNL     1      22.269   3.841  52.318  1.00  0.00     0.136 C 
HETATM   16  C16 UNL     1      22.566   5.192  51.631  1.00  0.00    -0.001 C 
HETATM   17  C17 UNL     1      22.813   5.250  50.290  1.00  0.00    -0.019 C 
HETATM   18  C18 UNL     1      23.213   4.187  49.297  1.00  0.00     0.068 C 
HETATM   19  C19 UNL     1      24.417   3.476  49.662  1.00  0.00     0.042 C 
HETATM   20  H16 UNL     1      20.205   3.776  52.763  1.00  0.00     0.161 HD
ENDROOT
BRANCH   1  21
HETATM   21  C3  UNL     1      27.849   5.014  48.821  1.00  0.00    -0.004 C 
HETATM   22  C2  UNL     1      28.475   5.959  48.152  1.00  0.00    -0.031 C 
HETATM   23  C1  UNL     1      29.968   6.051  48.196  1.00  0.00     0.036 C 
ENDBRANCH   1  21
TORSDOF 1
ENDMDL
MODEL 3
REMARK VINA RESULT:      -7.6      1.309      2.282
REMARK  1 active torsions:
REMARK  status: ('A' for Active; 'I' for Inactive)
REMARK    1  A    between atoms: C3_3  and  C4_4 
ROOT
HETATM    1  C4  UNL     1      25.643   0.782  51.796  1.00  0.00     0.007 C 
HETATM    2  C5  UNL     1      24.674   1.593  52.183  1.00  0.00    -0.052 C 
HETATM    3  C6  UNL     1      24.823   2.447  53.403  1.00  0.00     0.004 C 
HETATM    4  C7  UNL     1      24.144   3.591  53.135  1.00  0.00    -0.016 C 
HETATM    5  C8  UNL     1      23.603   3.507  51.868  1.00  0.00     0.050 C 
HETATM    6  C9  UNL     1      22.233   4.017  51.449  1.00  0.00    -0.030 C 
HETATM    7  C10 UNL     1      21.165   3.742  52.253  1.00  0.00     0.094 C 
HETATM    8  N1  UNL     1      20.753   2.387  51.813  1.00  0.00    -0.361 N 
HETATM    9  C11 UNL     1      19.804   1.298  52.138  1.00  0.00     0.129 C 
HETATM   10  C12 UNL     1      20.687   0.325  51.394  1.00  0.00     0.076 C 
HETATM   11  C13 UNL     1      21.205   1.501  50.693  1.00  0.00     0.137 C 
HETATM   12  N2  UNL     1      20.452   1.981  49.553  1.00  0.00    -0.252 NA
HETATM   13  C14 UNL     1      20.219   3.214  49.133  1.00  0.00     0.200 C 
HETATM   14  N3  UNL     1      20.947   4.471  49.345  1.00  0.00    -0.373 N 
HETATM   15  C15 UNL     1      22.187   4.704  50.066  1.00  0.00     0.136 C 
HETATM   16  C16 UNL     1      23.078   3.817  49.167  1.00  0.00    -0.001 C 
HETATM   17  C17 UNL     1      23.120   2.465  49.348  1.00  0.00    -0.019 C 
HETATM   18  C18 UNL     1      22.718   1.597  50.514  1.00  0.00     0.068 C 
HETATM   19  C19 UNL     1      23.367   1.954  51.755  1.00  0.00     0.042 C 
HETATM   20  H16 UNL     1      20.520   5.321  48.925  1.00  0.00     0.161 HD
ENDROOT
BRANCH   1  21
HETATM   21  C3  UNL     1      26.913   0.633  52.483  1.00  0.00    -0.004 C 
HETATM   22  C2  UNL     1      27.422  -0.531  52.829  1.00  0.00    -0.031 C 
HETATM   23  C1  UNL     1      28.740  -0.596  53.536  1.00  0.00     0.036 C 
ENDBRANCH   1  21
TORSDOF 1
ENDMDL
MODEL 4
REMARK VINA RESULT:      -7.6      9.151     11.212
REMARK  1 active torsions:
REMARK  status: ('A' for Active; 'I' for Inactive)
REMARK    1  A    between atoms: C3_3  and  C4_4 
ROOT
HETATM    1  C4  UNL     1      29.270   5.133  47.784  1.00  0.00     0.007 C 
HETATM    2  C5  UNL     1      30.508   5.564  47.950  1.00  0.00    -0.052 C 
HETATM    3  C6  UNL     1      30.884   6.391  49.141  1.00  0.00     0.004 C 
HETATM    4  C7  UNL     1      32.162   6.045  49.439  1.00  0.00    -0.016 C 
HETATM    5  C8  UNL     1      32.589   5.086  48.543  1.00  0.00     0.050 C 
HETATM    6  C9  UNL     1      33.979   4.995  47.933  1.00  0.00    -0.030 C 
HETATM    7  C10 UNL     1      34.553   6.135  47.452  1.00  0.00     0.094 C 
HETATM    8  N1  UNL     1      33.999   6.239  46.080  1.00  0.00    -0.361 N 
HETATM    9  C11 UNL     1      33.978   7.131  44.899  1.00  0.00     0.129 C 
HETATM   10  C12 UNL     1      32.720   6.446  44.421  1.00  0.00     0.076 C 
HETATM   11  C13 UNL     1      33.145   5.323  45.258  1.00  0.00     0.137 C 
HETATM   12  N2  UNL     1      34.095   4.390  44.688  1.00  0.00    -0.252 NA
HETATM   13  C14 UNL     1      35.105   3.741  45.245  1.00  0.00     0.200 C 
HETATM   14  N3  UNL     1      35.371   3.360  46.637  1.00  0.00    -0.373 N 
HETATM   15  C15 UNL     1      34.548   3.563  47.818  1.00  0.00     0.136 C 
HETATM   16  C16 UNL     1      33.350   2.711  47.341  1.00  0.00    -0.001 C 
HETATM   17  C17 UNL     1      32.420   3.235  46.491  1.00  0.00    -0.019 C 
HETATM   18  C18 UNL     1      32.082   4.659  46.129  1.00  0.00     0.068 C 
HETATM   19  C19 UNL     1      31.753   5.486  47.269  1.00  0.00     0.042 C 
HETATM   20  H16 UNL     1      36.275   2.878  46.813  1.00  0.00     0.161 HD
ENDROOT
BRANCH   1  21
HETATM   21  C3  UNL     1      28.177   5.400  48.700  1.00  0.00    -0.004 C 
HETATM   22  C2  UNL     1      27.168   6.197  48.417  1.00  0.00    -0.031 C 
HETATM   23  C1  UNL     1      26.079   6.419  49.420  1.00  0.00     0.036 C 
ENDBRANCH   1  21
TORSDOF 1
ENDMDL
MODEL 5
REMARK VINA RESULT:      -7.4      1.331      1.724
REMARK  1 active torsions:
REMARK  status: ('A' for Active; 'I' for Inactive)
REMARK    1  A    between atoms: C3_3  and  C4_4 
ROOT
HETATM    1  C4  UNL     1      26.413   1.735  51.289  1.00  0.00     0.007 C 
HETATM    2  C5  UNL     1      25.226   2.279  51.491  1.00  0.00    -0.052 C 
HETATM    3  C6  UNL     1      24.554   2.194  52.826  1.00  0.00     0.004 C 
HETATM    4  C7  UNL     1      23.859   3.351  52.962  1.00  0.00    -0.016 C 
HETATM    5  C8  UNL     1      24.051   4.126  51.836  1.00  0.00     0.050 C 
HETATM    6  C9  UNL     1      22.993   4.976  51.149  1.00  0.00    -0.030 C 
HETATM    7  C10 UNL     1      21.761   4.429  50.934  1.00  0.00     0.094 C 
HETATM    8  N1  UNL     1      21.938   3.689  49.661  1.00  0.00    -0.361 N 
HETATM    9  C11 UNL     1      21.227   2.775  48.740  1.00  0.00     0.129 C 
HETATM   10  C12 UNL     1      22.556   2.333  48.175  1.00  0.00     0.076 C 
HETATM   11  C13 UNL     1      23.072   3.603  48.686  1.00  0.00     0.137 C 
HETATM   12  N2  UNL     1      22.896   4.775  47.854  1.00  0.00    -0.252 NA
HETATM   13  C14 UNL     1      22.630   6.031  48.179  1.00  0.00     0.200 C 
HETATM   14  N3  UNL     1      22.852   6.785  49.419  1.00  0.00    -0.373 N 
HETATM   15  C15 UNL     1      23.484   6.355  50.655  1.00  0.00     0.136 C 
HETATM   16  C16 UNL     1      24.876   6.072  50.048  1.00  0.00    -0.001 C 
HETATM   17  C17 UNL     1      25.127   4.895  49.404  1.00  0.00    -0.019 C 
HETATM   18  C18 UNL     1      24.409   3.569  49.422  1.00  0.00     0.068 C 
HETATM   19  C19 UNL     1      24.259   3.008  50.746  1.00  0.00     0.042 C 
HETATM   20  H16 UNL     1      22.510   7.767  49.422  1.00  0.00     0.161 HD
ENDROOT
BRANCH   1  21
HETATM   21  C3  UNL     1      27.173   1.023  52.300  1.00  0.00    -0.004 C 
HETATM   22  C2  UNL     1      27.199  -0.290  52.400  1.00  0.00    -0.031 C 
HETATM   23  C1  UNL     1      28.009  -0.947  53.473  1.00  0.00     0.036 C 
ENDBRANCH   1  21
TORSDOF 1
ENDMDL
MODEL 6
REMARK VINA RESULT:      -7.4      1.410      3.390
REMARK  1 active torsions:
REMARK  status: ('A' for Active; 'I' for Inactive)
REMARK    1  A    between atoms: C3_3  and  C4_4 
ROOT
HETATM    1  C4  UNL     1      24.915   1.152  52.041  1.00  0.00     0.007 C 
HETATM    2  C5  UNL     1      24.714   2.197  51.258  1.00  0.00    -0.052 C 
HETATM    3  C6  UNL     1      25.864   2.988  50.715  1.00  0.00     0.004 C 
HETATM    4  C7  UNL     1      25.473   3.409  49.487  1.00  0.00    -0.016 C 
HETATM    5  C8  UNL     1      24.197   2.945  49.236  1.00  0.00     0.050 C 
HETATM    6  C9  UNL     1      23.092   3.714  48.529  1.00  0.00    -0.030 C 
HETATM    7  C10 UNL     1      22.876   5.013  48.885  1.00  0.00     0.094 C 
HETATM    8  N1  UNL     1      21.986   4.896  50.066  1.00  0.00    -0.361 N 
HETATM    9  C11 UNL     1      21.333   5.712  51.114  1.00  0.00     0.129 C 
HETATM   10  C12 UNL     1      21.187   4.474  51.967  1.00  0.00     0.076 C 
HETATM   11  C13 UNL     1      21.306   3.729  50.713  1.00  0.00     0.137 C 
HETATM   12  N2  UNL     1      20.103   3.557  49.925  1.00  0.00    -0.252 NA
HETATM   13  C14 UNL     1      19.925   3.556  48.613  1.00  0.00     0.200 C 
HETATM   14  N3  UNL     1      20.845   3.280  47.504  1.00  0.00    -0.373 N 
HETATM   15  C15 UNL     1      22.241   2.878  47.547  1.00  0.00     0.136 C 
HETATM   16  C16 UNL     1      22.011   1.538  48.282  1.00  0.00    -0.001 C 
HETATM   17  C17 UNL     1      21.865   1.506  49.639  1.00  0.00    -0.019 C 
HETATM   18  C18 UNL     1      22.221   2.508  50.710  1.00  0.00     0.068 C 
HETATM   19  C19 UNL     1      23.612   2.900  50.698  1.00  0.00     0.042 C 
HETATM   20  H16 UNL     1      20.451   3.387  46.548  1.00  0.00     0.161 HD
ENDROOT
BRANCH   1  21
HETATM   21  C3  UNL     1      26.221   0.670  52.449  1.00  0.00    -0.004 C 
HETATM   22  C2  UNL     1      26.514  -0.606  52.594  1.00  0.00    -0.031 C 
HETATM   23  C1  UNL     1      27.888  -1.019  53.018  1.00  0.00     0.036 C 
ENDBRANCH   1  21
TORSDOF 1
ENDMDL
MODEL 7
REMARK VINA RESULT:      -7.4      3.308      4.399
REMARK  1 active torsions:
REMARK  status: ('A' for Active; 'I' for Inactive)
REMARK    1  A    between atoms: C3_3  and  C4_4 
ROOT
HETATM    1  C4  UNL     1      27.609   5.915  48.355  1.00  0.00     0.007 C 
HETATM    2  C5  UNL     1      26.629   5.139  48.785  1.00  0.00    -0.052 C 
HETATM    3  C6  UNL     1      26.895   3.737  49.235  1.00  0.00     0.004 C 
HETATM    4  C7  UNL     1      26.011   3.498  50.236  1.00  0.00    -0.016 C 
HETATM    5  C8  UNL     1      25.239   4.625  50.433  1.00  0.00     0.050 C 
HETATM    6  C9  UNL     1      23.751   4.642  50.746  1.00  0.00    -0.030 C 
HETATM    7  C10 UNL     1      22.926   3.833  50.019  1.00  0.00     0.094 C 
HETATM    8  N1  UNL     1      22.642   4.643  48.809  1.00  0.00    -0.361 N 
HETATM    9  C11 UNL     1      21.956   4.573  47.499  1.00  0.00     0.129 C 
HETATM   10  C12 UNL     1      22.803   5.724  47.011  1.00  0.00     0.076 C 
HETATM   11  C13 UNL     1      22.982   6.050  48.426  1.00  0.00     0.137 C 
HETATM   12  N2  UNL     1      21.946   6.837  49.063  1.00  0.00    -0.252 NA
HETATM   13  C14 UNL     1      21.448   6.774  50.288  1.00  0.00     0.200 C 
HETATM   14  N3  UNL     1      22.005   6.255  51.543  1.00  0.00    -0.373 N 
HETATM   15  C15 UNL     1      23.318   5.686  51.799  1.00  0.00     0.136 C 
HETATM   16  C16 UNL     1      24.127   6.952  51.439  1.00  0.00    -0.001 C 
HETATM   17  C17 UNL     1      24.409   7.250  50.137  1.00  0.00    -0.019 C 
HETATM   18  C18 UNL     1      24.392   6.404  48.889  1.00  0.00     0.068 C 
HETATM   19  C19 UNL     1      25.222   5.224  48.976  1.00  0.00     0.042 C 
HETATM   20  H16 UNL     1      21.377   6.294  52.371  1.00  0.00     0.161 HD
ENDROOT
BRANCH   1  21
HETATM   21  C3  UNL     1      29.000   5.512  48.274  1.00  0.00    -0.004 C 
HETATM   22  C2  UNL     1      30.009   6.343  48.439  1.00  0.00    -0.031 C 
HETATM   23  C1  UNL     1      31.417   5.845  48.340  1.00  0.00     0.036 C 
ENDBRANCH   1  21
TORSDOF 1
ENDMDL
MODEL 8
REMARK VINA RESULT:      -7.4      8.311     10.278
REMARK  1 active torsions:
REMARK  status: ('A' for Active; 'I' for Inactive)
REMARK    1  A    between atoms: C3_3  and  C4_4 
ROOT
HETATM    1  C4  UNL     1      28.156   5.410  48.586  1.00  0.00     0.007 C 
HETATM    2  C5  UNL     1      29.001   6.100  47.840  1.00  0.00    -0.052 C 
HETATM    3  C6  UNL     1      28.531   7.245  46.998  1.00  0.00     0.004 C 
HETATM    4  C7  UNL     1      29.549   8.141  46.994  1.00  0.00    -0.016 C 
HETATM    5  C8  UNL     1      30.587   7.646  47.757  1.00  0.00     0.050 C 
HETATM    6  C9  UNL     1      32.069   7.774  47.436  1.00  0.00    -0.030 C 
HETATM    7  C10 UNL     1      32.481   7.518  46.161  1.00  0.00     0.094 C 
HETATM    8  N1  UNL     1      32.646   6.044  46.150  1.00  0.00    -0.361 N 
HETATM    9  C11 UNL     1      32.958   4.916  45.244  1.00  0.00     0.129 C 
HETATM   10  C12 UNL     1      32.312   3.967  46.225  1.00  0.00     0.076 C 
HETATM   11  C13 UNL     1      32.562   5.005  47.226  1.00  0.00     0.137 C 
HETATM   12  N2  UNL     1      33.876   5.038  47.835  1.00  0.00    -0.252 NA
HETATM   13  C14 UNL     1      34.626   6.063  48.208  1.00  0.00     0.200 C 
HETATM   14  N3  UNL     1      34.283   7.445  48.566  1.00  0.00    -0.373 N 
HETATM   15  C15 UNL     1      32.975   8.074  48.651  1.00  0.00     0.136 C 
HETATM   16  C16 UNL     1      32.422   7.169  49.775  1.00  0.00    -0.001 C 
HETATM   17  C17 UNL     1      31.912   5.937  49.487  1.00  0.00    -0.019 C 
HETATM   18  C18 UNL     1      31.428   5.328  48.194  1.00  0.00     0.068 C 
HETATM   19  C19 UNL     1      30.392   6.097  47.543  1.00  0.00     0.042 C 
HETATM   20  H16 UNL     1      35.083   8.070  48.789  1.00  0.00     0.161 HD
ENDROOT
BRANCH   1  21
HETATM   21  C3  UNL     1      26.731   5.674  48.672  1.00  0.00    -0.004 C 
HETATM   22  C2  UNL     1      25.865   4.830  49.192  1.00  0.00    -0.031 C 
HETATM   23  C1  UNL     1      24.411   5.179  49.242  1.00  0.00     0.036 C 
ENDBRANCH   1  21
TORSDOF 1
ENDMDL
MODEL 9
REMARK VINA RESULT:      -7.3      2.491      4.536
REMARK  1 active torsions:
REMARK  status: ('A' for Active; 'I' for Inactive)
REMARK    1  A    between atoms: C3_3  and  C4_4 
ROOT
HETATM    1  C4  UNL     1      26.509   4.746  48.909  1.00  0.00     0.007 C 
HETATM    2  C5  UNL     1      25.481   4.905  49.725  1.00  0.00    -0.052 C 
HETATM    3  C6  UNL     1      25.243   6.210  50.420  1.00  0.00     0.004 C 
HETATM    4  C7  UNL     1      23.895   6.334  50.515  1.00  0.00    -0.016 C 
HETATM    5  C8  UNL     1      23.300   5.229  49.940  1.00  0.00     0.050 C 
HETATM    6  C9  UNL     1      22.064   4.512  50.461  1.00  0.00    -0.030 C 
HETATM    7  C10 UNL     1      21.988   4.237  51.795  1.00  0.00     0.094 C 
HETATM    8  N1  UNL     1      22.734   2.961  51.919  1.00  0.00    -0.361 N 
HETATM    9  C11 UNL     1      23.227   1.996  52.928  1.00  0.00     0.129 C 
HETATM   10  C12 UNL     1      24.231   1.481  51.925  1.00  0.00     0.076 C 
HETATM   11  C13 UNL     1      23.335   2.033  50.908  1.00  0.00     0.137 C 
HETATM   12  N2  UNL     1      22.216   1.212  50.492  1.00  0.00    -0.252 NA
HETATM   13  C14 UNL     1      20.977   1.546  50.169  1.00  0.00     0.200 C 
HETATM   14  N3  UNL     1      20.400   2.805  49.682  1.00  0.00    -0.373 N 
HETATM   15  C15 UNL     1      21.065   4.060  49.372  1.00  0.00     0.136 C 
HETATM   16  C16 UNL     1      21.956   3.507  48.238  1.00  0.00    -0.001 C 
HETATM   17  C17 UNL     1      23.121   2.856  48.524  1.00  0.00    -0.019 C 
HETATM   18  C18 UNL     1      23.972   2.824  49.769  1.00  0.00     0.068 C 
HETATM   19  C19 UNL     1      24.395   4.132  50.217  1.00  0.00     0.042 C 
HETATM   20  H16 UNL     1      19.371   2.809  49.537  1.00  0.00     0.161 HD
ENDROOT
BRANCH   1  21
HETATM   21  C3  UNL     1      27.484   5.776  48.605  1.00  0.00    -0.004 C 
HETATM   22  C2  UNL     1      28.730   5.521  48.263  1.00  0.00    -0.031 C 
HETATM   23  C1  UNL     1      29.674   6.644  47.965  1.00  0.00     0.036 C 
ENDBRANCH   1  21
TORSDOF 1
ENDMDL
