MODEL 1
REMARK VINA RESULT:      -8.0      0.000      0.000
REMARK  3 active torsions:
REMARK  status: ('A' for Active; 'I' for Inactive)
REMARK    1  A    between atoms: C5_6  and  C6_7 
REMARK    2  A    between atoms: C6_7  and  C7_8 
REMARK    3  A    between atoms: C7_8  and  O2_10 
ROOT
HETATM    1  C1  UNL     1      22.289   2.006  48.992  1.00  0.00     0.155 C 
HETATM    2  N1  UNL     1      23.264   2.428  49.975  1.00  0.00    -0.361 N 
HETATM    3  C2  UNL     1      23.984   3.642  49.663  1.00  0.00     0.087 C 
HETATM    4  C3  UNL     1      25.234   3.902  50.093  1.00  0.00    -0.005 C 
HETATM    5  C4  UNL     1      26.228   3.234  50.898  1.00  0.00     0.063 C 
HETATM    6  C5  UNL     1      25.923   1.944  51.499  1.00  0.00    -0.065 C 
HETATM    7  C8  UNL     1      24.768   1.259  51.598  1.00  0.00     0.034 C 
HETATM    8  C9  UNL     1      23.428   1.604  51.118  1.00  0.00     0.050 C 
HETATM    9  C10 UNL     1      22.378   1.219  51.797  1.00  0.00     0.067 C 
HETATM   10  C11 UNL     1      20.930   1.389  51.760  1.00  0.00     0.255 C 
HETATM   11  O3  UNL     1      20.350   2.174  50.916  1.00  0.00    -0.268 OA
HETATM   12  N2  UNL     1      20.200   0.602  52.754  1.00  0.00    -0.345 N 
HETATM   13  C12 UNL     1      21.272   0.689  53.720  1.00  0.00     0.142 A 
HETATM   14  C13 UNL     1      21.243  -0.210  54.854  1.00  0.00     0.003 A 
HETATM   15  C14 UNL     1      22.271  -1.022  54.717  1.00  0.00    -0.001 A 
HETATM   16  C15 UNL     1      23.070  -0.781  53.528  1.00  0.00     0.010 A 
HETATM   17  C16 UNL     1      22.472   0.250  52.908  1.00  0.00    -0.014 A 
HETATM   18  H12 UNL     1      19.226   0.231  52.544  1.00  0.00     0.163 HD
ENDROOT
BRANCH   6  19
HETATM   19  C6  UNL     1      27.113   1.287  52.098  1.00  0.00     0.144 C 
BRANCH  19  20
HETATM   20  C7  UNL     1      27.732   2.099  53.162  1.00  0.00     0.143 C 
HETATM   21  O1  UNL     1      27.098   2.356  54.244  1.00  0.00    -0.650 OA
BRANCH  20  22
HETATM   22  O2  UNL     1      29.011   2.640  53.092  1.00  0.00    -0.776 OA
HETATM   23  H10 UNL     1      29.316   3.443  53.648  1.00  0.00     0.167 HD
ENDBRANCH  20  22
ENDBRANCH  19  20
ENDBRANCH   6  19
TORSDOF 3
ENDMDL
MODEL 2
REMARK VINA RESULT:      -7.9      2.466      3.979
REMARK  3 active torsions:
REMARK  status: ('A' for Active; 'I' for Inactive)
REMARK    1  A    between atoms: C5_6  and  C6_7 
REMARK    2  A    between atoms: C6_7  and  C7_8 
REMARK    3  A    between atoms: C7_8  and  O2_10 
ROOT
HETATM    1  C1  UNL     1      24.392  -0.974  55.623  1.00  0.00     0.155 C 
HETATM    2  N1  UNL     1      24.603  -0.708  54.216  1.00  0.00    -0.361 N 
HETATM    3  C2  UNL     1      25.824  -1.241  53.654  1.00  0.00     0.087 C 
HETATM    4  C3  UNL     1      26.472  -0.686  52.612  1.00  0.00    -0.005 C 
HETATM    5  C4  UNL     1      26.290   0.456  51.748  1.00  0.00     0.063 C 
HETATM    6  C5  UNL     1      25.117   1.303  51.910  1.00  0.00    -0.065 C 
HETATM    7  C8  UNL     1      24.004   1.150  52.650  1.00  0.00     0.034 C 
HETATM    8  C9  UNL     1      23.615   0.058  53.547  1.00  0.00     0.050 C 
HETATM    9  C10 UNL     1      22.353  -0.264  53.666  1.00  0.00     0.067 C 
HETATM   10  C11 UNL     1      21.541  -1.277  54.330  1.00  0.00     0.255 C 
HETATM   11  O3  UNL     1      22.065  -2.262  54.980  1.00  0.00    -0.268 OA
HETATM   12  N2  UNL     1      20.097  -1.083  54.197  1.00  0.00    -0.345 N 
HETATM   13  C12 UNL     1      20.222  -0.492  52.883  1.00  0.00     0.142 A 
HETATM   14  C13 UNL     1      19.081   0.217  52.343  1.00  0.00     0.003 A 
HETATM   15  C14 UNL     1      19.431   1.484  52.261  1.00  0.00    -0.001 A 
HETATM   16  C15 UNL     1      20.781   1.764  52.722  1.00  0.00     0.010 A 
HETATM   17  C16 UNL     1      21.271   0.576  53.110  1.00  0.00    -0.014 A 
HETATM   18  H12 UNL     1      19.435  -1.380  54.974  1.00  0.00     0.163 HD
ENDROOT
BRANCH   6  19
HETATM   19  C6  UNL     1      25.190   2.553  51.111  1.00  0.00     0.144 C 
BRANCH  19  20
HETATM   20  C7  UNL     1      26.574   2.912  50.747  1.00  0.00     0.143 C 
HETATM   21  O1  UNL     1      26.918   3.035  49.520  1.00  0.00    -0.650 OA
BRANCH  20  22
HETATM   22  O2  UNL     1      27.592   3.141  51.666  1.00  0.00    -0.776 OA
HETATM   23  H10 UNL     1      28.580   2.950  51.474  1.00  0.00     0.167 HD
ENDBRANCH  20  22
ENDBRANCH  19  20
ENDBRANCH   6  19
TORSDOF 3
ENDMDL
MODEL 3
REMARK VINA RESULT:      -7.9      2.544      5.213
REMARK  3 active torsions:
REMARK  status: ('A' for Active; 'I' for Inactive)
REMARK    1  A    between atoms: C5_6  and  C6_7 
REMARK    2  A    between atoms: C6_7  and  C7_8 
REMARK    3  A    between atoms: C7_8  and  O2_10 
ROOT
HETATM    1  C1  UNL     1      23.400   3.947  51.404  1.00  0.00     0.155 C 
HETATM    2  N1  UNL     1      23.175   2.524  51.262  1.00  0.00    -0.361 N 
HETATM    3  C2  UNL     1      22.210   2.140  50.257  1.00  0.00     0.087 C 
HETATM    4  C3  UNL     1      21.465   1.021  50.325  1.00  0.00    -0.005 C 
HETATM    5  C4  UNL     1      21.312  -0.087  51.238  1.00  0.00     0.063 C 
HETATM    6  C5  UNL     1      22.149  -0.162  52.427  1.00  0.00    -0.065 C 
HETATM    7  C8  UNL     1      23.222   0.557  52.807  1.00  0.00     0.034 C 
HETATM    8  C9  UNL     1      23.898   1.665  52.129  1.00  0.00     0.050 C 
HETATM    9  C10 UNL     1      25.191   1.813  52.260  1.00  0.00     0.067 C 
HETATM   10  C11 UNL     1      26.253   2.665  51.736  1.00  0.00     0.255 C 
HETATM   11  O3  UNL     1      26.040   3.539  50.810  1.00  0.00    -0.268 OA
HETATM   12  N2  UNL     1      27.565   2.443  52.342  1.00  0.00    -0.345 N 
HETATM   13  C12 UNL     1      27.315   1.033  52.548  1.00  0.00     0.142 A 
HETATM   14  C13 UNL     1      28.195   0.308  53.440  1.00  0.00     0.003 A 
HETATM   15  C14 UNL     1      27.466  -0.050  54.478  1.00  0.00    -0.001 A 
HETATM   16  C15 UNL     1      26.079   0.379  54.411  1.00  0.00     0.010 A 
HETATM   17  C16 UNL     1      25.973   1.045  53.250  1.00  0.00    -0.014 A 
HETATM   18  H12 UNL     1      28.254   3.245  52.456  1.00  0.00     0.163 HD
ENDROOT
BRANCH   6  19
HETATM   19  C6  UNL     1      21.718  -1.223  53.373  1.00  0.00     0.144 C 
BRANCH  19  20
HETATM   20  C7  UNL     1      21.683  -0.754  54.771  1.00  0.00     0.143 C 
HETATM   21  O1  UNL     1      22.479  -1.244  55.647  1.00  0.00    -0.650 OA
BRANCH  20  22
HETATM   22  O2  UNL     1      20.819   0.224  55.249  1.00  0.00    -0.776 OA
HETATM   23  H10 UNL     1      20.285   0.131  56.117  1.00  0.00     0.167 HD
ENDBRANCH  20  22
ENDBRANCH  19  20
ENDBRANCH   6  19
TORSDOF 3
ENDMDL
MODEL 4
REMARK VINA RESULT:      -7.8      1.496      4.075
REMARK  3 active torsions:
REMARK  status: ('A' for Active; 'I' for Inactive)
REMARK    1  A    between atoms: C5_6  and  C6_7 
REMARK    2  A    between atoms: C6_7  and  C7_8 
REMARK    3  A    between atoms: C7_8  and  O2_10 
ROOT
HETATM    1  C1  UNL     1      21.633   0.628  53.827  1.00  0.00     0.155 C 
HETATM    2  N1  UNL     1      22.879   0.301  53.167  1.00  0.00    -0.361 N 
HETATM    3  C2  UNL     1      23.668  -0.734  53.796  1.00  0.00     0.087 C 
HETATM    4  C3  UNL     1      25.010  -0.807  53.711  1.00  0.00    -0.005 C 
HETATM    5  C4  UNL     1      26.066  -0.047  53.087  1.00  0.00     0.063 C 
HETATM    6  C5  UNL     1      25.735   1.111  52.269  1.00  0.00    -0.065 C 
HETATM    7  C8  UNL     1      24.556   1.570  51.811  1.00  0.00     0.034 C 
HETATM    8  C9  UNL     1      23.204   1.037  51.999  1.00  0.00     0.050 C 
HETATM    9  C10 UNL     1      22.317   1.169  51.047  1.00  0.00     0.067 C 
HETATM   10  C11 UNL     1      20.950   0.750  50.760  1.00  0.00     0.255 C 
HETATM   11  O3  UNL     1      20.298  -0.049  51.536  1.00  0.00    -0.268 OA
HETATM   12  N2  UNL     1      20.390   1.305  49.528  1.00  0.00    -0.345 N 
HETATM   13  C12 UNL     1      21.674   1.325  48.864  1.00  0.00     0.142 A 
HETATM   14  C13 UNL     1      21.802   2.101  47.649  1.00  0.00     0.003 A 
HETATM   15  C14 UNL     1      22.628   3.091  47.920  1.00  0.00    -0.001 A 
HETATM   16  C15 UNL     1      23.123   3.100  49.287  1.00  0.00     0.010 A 
HETATM   17  C16 UNL     1      22.547   2.039  49.874  1.00  0.00    -0.014 A 
HETATM   18  H12 UNL     1      19.350   1.515  49.450  1.00  0.00     0.163 HD
ENDROOT
BRANCH   6  19
HETATM   19  C6  UNL     1      26.927   1.913  51.890  1.00  0.00     0.144 C 
BRANCH  19  20
HETATM   20  C7  UNL     1      27.840   2.141  53.026  1.00  0.00     0.143 C 
HETATM   21  O1  UNL     1      29.018   1.639  53.032  1.00  0.00    -0.650 OA
BRANCH  20  22
HETATM   22  O2  UNL     1      27.519   2.891  54.152  1.00  0.00    -0.776 OA
HETATM   23  H10 UNL     1      26.652   2.771  54.683  1.00  0.00     0.167 HD
ENDBRANCH  20  22
ENDBRANCH  19  20
ENDBRANCH   6  19
TORSDOF 3
ENDMDL
MODEL 5
REMARK VINA RESULT:      -7.8      2.719      4.767
REMARK  3 active torsions:
REMARK  status: ('A' for Active; 'I' for Inactive)
REMARK    1  A    between atoms: C5_6  and  C6_7 
REMARK    2  A    between atoms: C6_7  and  C7_8 
REMARK    3  A    between atoms: C7_8  and  O2_10 
ROOT
HETATM    1  C1  UNL     1      21.183  -1.308  53.654  1.00  0.00     0.155 C 
HETATM    2  N1  UNL     1      21.558   0.052  53.331  1.00  0.00    -0.361 N 
HETATM    3  C2  UNL     1      20.492   1.026  53.389  1.00  0.00     0.087 C 
HETATM    4  C3  UNL     1      20.460   2.145  52.639  1.00  0.00    -0.005 C 
HETATM    5  C4  UNL     1      21.296   2.765  51.640  1.00  0.00     0.063 C 
HETATM    6  C5  UNL     1      22.561   2.144  51.272  1.00  0.00    -0.065 C 
HETATM    7  C8  UNL     1      23.240   1.118  51.816  1.00  0.00     0.034 C 
HETATM    8  C9  UNL     1      22.911   0.282  52.973  1.00  0.00     0.050 C 
HETATM    9  C10 UNL     1      23.871  -0.185  53.729  1.00  0.00     0.067 C 
HETATM   10  C11 UNL     1      24.018  -0.944  54.966  1.00  0.00     0.255 C 
HETATM   11  O3  UNL     1      23.006  -1.274  55.695  1.00  0.00    -0.268 OA
HETATM   12  N2  UNL     1      25.398  -1.293  55.305  1.00  0.00    -0.345 N 
HETATM   13  C12 UNL     1      25.928  -0.086  54.709  1.00  0.00     0.142 A 
HETATM   14  C13 UNL     1      27.352  -0.018  54.459  1.00  0.00     0.003 A 
HETATM   15  C14 UNL     1      27.503   0.016  53.151  1.00  0.00    -0.001 A 
HETATM   16  C15 UNL     1      26.257  -0.030  52.404  1.00  0.00     0.010 A 
HETATM   17  C16 UNL     1      25.293  -0.100  53.335  1.00  0.00    -0.014 A 
HETATM   18  H12 UNL     1      25.619  -2.196  55.820  1.00  0.00     0.163 HD
ENDROOT
BRANCH   6  19
HETATM   19  C6  UNL     1      23.189   2.771  50.080  1.00  0.00     0.144 C 
BRANCH  19  20
HETATM   20  C7  UNL     1      24.480   3.411  50.392  1.00  0.00     0.143 C 
HETATM   21  O1  UNL     1      25.519   3.172  49.683  1.00  0.00    -0.650 OA
BRANCH  20  22
HETATM   22  O2  UNL     1      24.681   4.300  51.442  1.00  0.00    -0.776 OA
HETATM   23  H10 UNL     1      24.548   5.312  51.359  1.00  0.00     0.167 HD
ENDBRANCH  20  22
ENDBRANCH  19  20
ENDBRANCH   6  19
TORSDOF 3
ENDMDL
MODEL 6
REMARK VINA RESULT:      -7.5      2.020      6.194
REMARK  3 active torsions:
REMARK  status: ('A' for Active; 'I' for Inactive)
REMARK    1  A    between atoms: C5_6  and  C6_7 
REMARK    2  A    between atoms: C6_7  and  C7_8 
REMARK    3  A    between atoms: C7_8  and  O2_10 
ROOT
HETATM    1  C1  UNL     1      27.122  -0.227  52.331  1.00  0.00     0.155 C 
HETATM    2  N1  UNL     1      25.831   0.123  52.884  1.00  0.00    -0.361 N 
HETATM    3  C2  UNL     1      25.558  -0.386  54.210  1.00  0.00     0.087 C 
HETATM    4  C3  UNL     1      24.321  -0.663  54.664  1.00  0.00    -0.005 C 
HETATM    5  C4  UNL     1      22.974  -0.597  54.152  1.00  0.00     0.063 C 
HETATM    6  C5  UNL     1      22.736  -0.076  52.813  1.00  0.00    -0.065 C 
HETATM    7  C8  UNL     1      23.552   0.546  51.942  1.00  0.00     0.034 C 
HETATM    8  C9  UNL     1      24.967   0.899  52.070  1.00  0.00     0.050 C 
HETATM    9  C10 UNL     1      25.419   1.985  51.496  1.00  0.00     0.067 C 
HETATM   10  C11 UNL     1      26.660   2.747  51.422  1.00  0.00     0.255 C 
HETATM   11  O3  UNL     1      27.700   2.439  52.121  1.00  0.00    -0.268 OA
HETATM   12  N2  UNL     1      26.622   3.881  50.497  1.00  0.00    -0.345 N 
HETATM   13  C12 UNL     1      25.217   4.126  50.737  1.00  0.00     0.142 A 
HETATM   14  C13 UNL     1      24.510   4.990  49.816  1.00  0.00     0.003 A 
HETATM   15  C14 UNL     1      23.630   4.234  49.192  1.00  0.00    -0.001 A 
HETATM   16  C15 UNL     1      23.647   2.837  49.596  1.00  0.00     0.010 A 
HETATM   17  C16 UNL     1      24.611   2.755  50.527  1.00  0.00    -0.014 A 
HETATM   18  H12 UNL     1      27.497   4.183  49.973  1.00  0.00     0.163 HD
ENDROOT
BRANCH   6  19
HETATM   19  C6  UNL     1      21.340  -0.285  52.350  1.00  0.00     0.144 C 
BRANCH  19  20
HETATM   20  C7  UNL     1      20.344   0.276  53.282  1.00  0.00     0.143 C 
HETATM   21  O1  UNL     1      20.228   1.542  53.433  1.00  0.00    -0.650 OA
BRANCH  20  22
HETATM   22  O2  UNL     1      19.473  -0.486  54.051  1.00  0.00    -0.776 OA
HETATM   23  H10 UNL     1      19.565  -1.499  54.173  1.00  0.00     0.167 HD
ENDBRANCH  20  22
ENDBRANCH  19  20
ENDBRANCH   6  19
TORSDOF 3
ENDMDL
MODEL 7
REMARK VINA RESULT:      -7.4      2.168      5.167
REMARK  3 active torsions:
REMARK  status: ('A' for Active; 'I' for Inactive)
REMARK    1  A    between atoms: C5_6  and  C6_7 
REMARK    2  A    between atoms: C6_7  and  C7_8 
REMARK    3  A    between atoms: C7_8  and  O2_10 
ROOT
HETATM    1  C1  UNL     1      24.671   4.571  50.525  1.00  0.00     0.155 C 
HETATM    2  N1  UNL     1      24.027   3.349  50.091  1.00  0.00    -0.361 N 
HETATM    3  C2  UNL     1      23.390   3.403  48.795  1.00  0.00     0.087 C 
HETATM    4  C3  UNL     1      22.325   2.652  48.453  1.00  0.00    -0.005 C 
HETATM    5  C4  UNL     1      21.497   1.653  49.085  1.00  0.00     0.063 C 
HETATM    6  C5  UNL     1      21.800   1.217  50.440  1.00  0.00    -0.065 C 
HETATM    7  C8  UNL     1      22.860   1.455  51.236  1.00  0.00     0.034 C 
HETATM    8  C9  UNL     1      24.066   2.246  50.982  1.00  0.00     0.050 C 
HETATM    9  C10 UNL     1      25.204   1.882  51.515  1.00  0.00     0.067 C 
HETATM   10  C11 UNL     1      26.606   2.282  51.478  1.00  0.00     0.255 C 
HETATM   11  O3  UNL     1      27.038   3.207  50.688  1.00  0.00    -0.268 OA
HETATM   12  N2  UNL     1      27.471   1.551  52.405  1.00  0.00    -0.345 N 
HETATM   13  C12 UNL     1      26.692   0.338  52.293  1.00  0.00     0.142 A 
HETATM   14  C13 UNL     1      26.907  -0.703  53.276  1.00  0.00     0.003 A 
HETATM   15  C14 UNL     1      25.794  -0.795  53.974  1.00  0.00    -0.001 A 
HETATM   16  C15 UNL     1      24.753   0.134  53.568  1.00  0.00     0.010 A 
HETATM   17  C16 UNL     1      25.286   0.835  52.554  1.00  0.00    -0.014 A 
HETATM   18  H12 UNL     1      28.314   2.024  52.848  1.00  0.00     0.163 HD
ENDROOT
BRANCH   6  19
HETATM   19  C6  UNL     1      20.734   0.366  51.027  1.00  0.00     0.144 C 
BRANCH  19  20
HETATM   20  C7  UNL     1      20.150   0.952  52.248  1.00  0.00     0.143 C 
HETATM   21  O1  UNL     1      19.510   2.060  52.202  1.00  0.00    -0.650 OA
BRANCH  20  22
HETATM   22  O2  UNL     1      20.237   0.379  53.512  1.00  0.00    -0.776 OA
HETATM   23  H10 UNL     1      19.435   0.268  54.138  1.00  0.00     0.167 HD
ENDBRANCH  20  22
ENDBRANCH  19  20
ENDBRANCH   6  19
TORSDOF 3
ENDMDL
MODEL 8
REMARK VINA RESULT:      -7.4      1.718      4.275
REMARK  3 active torsions:
REMARK  status: ('A' for Active; 'I' for Inactive)
REMARK    1  A    between atoms: C5_6  and  C6_7 
REMARK    2  A    between atoms: C6_7  and  C7_8 
REMARK    3  A    between atoms: C7_8  and  O2_10 
ROOT
HETATM    1  C1  UNL     1      20.602   0.456  53.941  1.00  0.00     0.155 C 
HETATM    2  N1  UNL     1      21.973   0.150  53.593  1.00  0.00    -0.361 N 
HETATM    3  C2  UNL     1      22.597  -0.898  54.370  1.00  0.00     0.087 C 
HETATM    4  C3  UNL     1      23.920  -0.963  54.611  1.00  0.00    -0.005 C 
HETATM    5  C4  UNL     1      25.089  -0.184  54.278  1.00  0.00     0.063 C 
HETATM    6  C5  UNL     1      24.955   0.993  53.432  1.00  0.00    -0.065 C 
HETATM    7  C8  UNL     1      23.916   1.459  52.713  1.00  0.00     0.034 C 
HETATM    8  C9  UNL     1      22.564   0.916  52.556  1.00  0.00     0.050 C 
HETATM    9  C10 UNL     1      21.932   1.070  51.422  1.00  0.00     0.067 C 
HETATM   10  C11 UNL     1      20.679   0.652  50.803  1.00  0.00     0.255 C 
HETATM   11  O3  UNL     1      19.866  -0.167  51.380  1.00  0.00    -0.268 OA
HETATM   12  N2  UNL     1      20.428   1.236  49.485  1.00  0.00    -0.345 N 
HETATM   13  C12 UNL     1      21.834   1.278  49.152  1.00  0.00     0.142 A 
HETATM   14  C13 UNL     1      22.244   2.085  48.022  1.00  0.00     0.003 A 
HETATM   15  C14 UNL     1      22.970   3.070  48.509  1.00  0.00    -0.001 A 
HETATM   16  C15 UNL     1      23.121   3.047  49.954  1.00  0.00     0.010 A 
HETATM   17  C16 UNL     1      22.430   1.969  50.360  1.00  0.00    -0.014 A 
HETATM   18  H12 UNL     1      19.435   1.445  49.164  1.00  0.00     0.163 HD
ENDROOT
BRANCH   6  19
HETATM   19  C6  UNL     1      26.195   1.808  53.371  1.00  0.00     0.144 C 
BRANCH  19  20
HETATM   20  C7  UNL     1      26.769   1.865  52.014  1.00  0.00     0.143 C 
HETATM   21  O1  UNL     1      26.856   0.809  51.295  1.00  0.00    -0.650 OA
BRANCH  20  22
HETATM   22  O2  UNL     1      27.250   3.022  51.413  1.00  0.00    -0.776 OA
HETATM   23  H10 UNL     1      27.470   3.878  51.931  1.00  0.00     0.167 HD
ENDBRANCH  20  22
ENDBRANCH  19  20
ENDBRANCH   6  19
TORSDOF 3
ENDMDL
MODEL 9
REMARK VINA RESULT:      -7.4      2.174      4.239
REMARK  3 active torsions:
REMARK  status: ('A' for Active; 'I' for Inactive)
REMARK    1  A    between atoms: C5_6  and  C6_7 
REMARK    2  A    between atoms: C6_7  and  C7_8 
REMARK    3  A    between atoms: C7_8  and  O2_10 
ROOT
HETATM    1  C1  UNL     1      26.589   1.838  53.938  1.00  0.00     0.155 C 
HETATM    2  N1  UNL     1      25.898   1.846  52.666  1.00  0.00    -0.361 N 
HETATM    3  C2  UNL     1      26.721   2.107  51.507  1.00  0.00     0.087 C 
HETATM    4  C3  UNL     1      26.266   2.690  50.382  1.00  0.00    -0.005 C 
HETATM    5  C4  UNL     1      25.009   3.216  49.905  1.00  0.00     0.063 C 
HETATM    6  C5  UNL     1      23.824   3.126  50.745  1.00  0.00    -0.065 C 
HETATM    7  C8  UNL     1      23.599   2.471  51.899  1.00  0.00     0.034 C 
HETATM    8  C9  UNL     1      24.497   1.625  52.690  1.00  0.00     0.050 C 
HETATM    9  C10 UNL     1      24.011   0.609  53.355  1.00  0.00     0.067 C 
HETATM   10  C11 UNL     1      24.500  -0.502  54.164  1.00  0.00     0.255 C 
HETATM   11  O3  UNL     1      25.759  -0.743  54.315  1.00  0.00    -0.268 OA
HETATM   12  N2  UNL     1      23.449  -1.312  54.781  1.00  0.00    -0.345 N 
HETATM   13  C12 UNL     1      22.534  -1.098  53.682  1.00  0.00     0.142 A 
HETATM   14  C13 UNL     1      21.139  -1.430  53.882  1.00  0.00     0.003 A 
HETATM   15  C14 UNL     1      20.473  -0.294  53.838  1.00  0.00    -0.001 A 
HETATM   16  C15 UNL     1      21.304   0.879  53.622  1.00  0.00     0.010 A 
HETATM   17  C16 UNL     1      22.558   0.408  53.533  1.00  0.00    -0.014 A 
HETATM   18  H12 UNL     1      23.605  -1.776  55.725  1.00  0.00     0.163 HD
ENDROOT
BRANCH   6  19
HETATM   19  C6  UNL     1      22.677   3.909  50.216  1.00  0.00     0.144 C 
BRANCH  19  20
HETATM   20  C7  UNL     1      22.065   4.777  51.240  1.00  0.00     0.143 C 
HETATM   21  O1  UNL     1      20.861   4.582  51.629  1.00  0.00    -0.650 OA
BRANCH  20  22
HETATM   22  O2  UNL     1      22.712   5.843  51.853  1.00  0.00    -0.776 OA
HETATM   23  H10 UNL     1      22.234   6.696  52.155  1.00  0.00     0.167 HD
ENDBRANCH  20  22
ENDBRANCH  19  20
ENDBRANCH   6  19
TORSDOF 3
ENDMDL
