MODEL 1
REMARK VINA RESULT:      -7.9      0.000      0.000
REMARK  7 active torsions:
REMARK  status: ('A' for Active; 'I' for Inactive)
REMARK    1  A    between atoms: O1_2  and  C2_3 
REMARK    2  A    between atoms: C4_5  and  C5_6 
REMARK    3  A    between atoms: C5_6  and  C6_7 
REMARK    4  A    between atoms: C8_10  and  N2_11 
REMARK    5  A    between atoms: C9_13  and  N4_14 
REMARK    6  A    between atoms: N4_14  and  C10_15 
REMARK    7  A    between atoms: C13_18  and  O2_19 
ROOT
HETATM    1  C6  UNL     1      22.383   2.208  51.313  1.00  0.00     0.011 A 
HETATM    2  C7  UNL     1      21.514   3.253  51.555  1.00  0.00     0.147 A 
HETATM    3  N1  UNL     1      21.957   4.416  52.062  1.00  0.00    -0.075 NA
HETATM    4  C8  UNL     1      23.251   4.604  52.350  1.00  0.00     0.721 A 
HETATM    5  N3  UNL     1      24.071   3.582  52.108  1.00  0.00    -0.045 NA
HETATM    6  C9  UNL     1      23.734   2.407  51.614  1.00  0.00     0.155 A 
ENDROOT
BRANCH   6   7
HETATM    7  N4  UNL     1      24.637   1.364  51.368  1.00  0.00    -0.340 N 
HETATM    8  H10 UNL     1      24.576   0.866  50.428  1.00  0.00     0.167 HD
BRANCH   7   9
HETATM    9  C10 UNL     1      25.683   0.798  52.147  1.00  0.00     0.033 A 
HETATM   10  C11 UNL     1      25.603  -0.443  52.797  1.00  0.00     0.032 A 
HETATM   11  C12 UNL     1      26.675  -0.904  53.526  1.00  0.00     0.039 A 
HETATM   12  C13 UNL     1      27.856  -0.203  53.660  1.00  0.00     0.068 A 
HETATM   13  C15 UNL     1      27.953   1.018  53.029  1.00  0.00     0.039 A 
HETATM   14  C16 UNL     1      26.874   1.472  52.302  1.00  0.00     0.032 A 
BRANCH  12  15
HETATM   15  O2  UNL     1      28.884  -0.747  54.415  1.00  0.00    -0.356 OA
HETATM   16  C14 UNL     1      30.027  -1.219  53.722  1.00  0.00     0.210 C 
ENDBRANCH  12  15
ENDBRANCH   7   9
ENDBRANCH   6   7
BRANCH   1  17
HETATM   17  C5  UNL     1      21.829   0.939  50.765  1.00  0.00     0.082 C 
BRANCH  17  18
HETATM   18  C4  UNL     1      20.865   0.304  51.699  1.00  0.00    -0.051 A 
HETATM   19  C3  UNL     1      21.555  -0.342  52.825  1.00  0.00     0.071 A 
HETATM   20  C2  UNL     1      20.877  -0.976  53.791  1.00  0.00     0.180 A 
HETATM   21  O3  UNL     1      19.509  -1.013  53.712  1.00  0.00    -0.327 OA
HETATM   22  C18 UNL     1      18.735  -0.431  52.684  1.00  0.00     0.206 A 
HETATM   23  C17 UNL     1      19.538   0.243  51.663  1.00  0.00     0.007 A 
BRANCH  20  24
HETATM   24  O1  UNL     1      21.517  -1.595  54.870  1.00  0.00    -0.336 OA
HETATM   25  C1  UNL     1      22.859  -1.228  55.213  1.00  0.00     0.212 C 
ENDBRANCH  20  24
ENDBRANCH  17  18
ENDBRANCH   1  17
BRANCH   4  26
HETATM   26  N2  UNL     1      23.826   5.799  52.890  1.00  0.00    -0.231 N 
HETATM   27  H8  UNL     1      23.435   6.551  53.498  1.00  0.00     0.174 HD
HETATM   28  H9  UNL     1      24.837   5.999  52.654  1.00  0.00     0.174 HD
ENDBRANCH   4  26
TORSDOF 7
ENDMDL
MODEL 2
REMARK VINA RESULT:      -7.8      0.897      1.782
REMARK  7 active torsions:
REMARK  status: ('A' for Active; 'I' for Inactive)
REMARK    1  A    between atoms: O1_2  and  C2_3 
REMARK    2  A    between atoms: C4_5  and  C5_6 
REMARK    3  A    between atoms: C5_6  and  C6_7 
REMARK    4  A    between atoms: C8_10  and  N2_11 
REMARK    5  A    between atoms: C9_13  and  N4_14 
REMARK    6  A    between atoms: N4_14  and  C10_15 
REMARK    7  A    between atoms: C13_18  and  O2_19 
ROOT
HETATM    1  C6  UNL     1      22.784   2.488  51.415  1.00  0.00     0.011 A 
HETATM    2  C7  UNL     1      21.853   3.469  51.691  1.00  0.00     0.147 A 
HETATM    3  N1  UNL     1      22.239   4.720  51.993  1.00  0.00    -0.075 NA
HETATM    4  C8  UNL     1      23.533   5.061  52.039  1.00  0.00     0.721 A 
HETATM    5  N3  UNL     1      24.413   4.097  51.769  1.00  0.00    -0.045 NA
HETATM    6  C9  UNL     1      24.135   2.845  51.463  1.00  0.00     0.155 A 
ENDROOT
BRANCH   6   7
HETATM    7  N4  UNL     1      25.098   1.869  51.176  1.00  0.00    -0.340 N 
HETATM    8  H10 UNL     1      25.091   1.434  50.204  1.00  0.00     0.167 HD
BRANCH   7   9
HETATM    9  C10 UNL     1      26.148   1.303  51.950  1.00  0.00     0.033 A 
HETATM   10  C11 UNL     1      26.261  -0.062  52.254  1.00  0.00     0.032 A 
HETATM   11  C12 UNL     1      27.320  -0.510  53.009  1.00  0.00     0.039 A 
HETATM   12  C13 UNL     1      28.305   0.323  53.499  1.00  0.00     0.068 A 
HETATM   13  C15 UNL     1      28.212   1.667  53.210  1.00  0.00     0.039 A 
HETATM   14  C16 UNL     1      27.148   2.106  52.454  1.00  0.00     0.032 A 
BRANCH  12  15
HETATM   15  O2  UNL     1      29.336  -0.219  54.252  1.00  0.00    -0.356 OA
HETATM   16  C14 UNL     1      30.034  -1.327  53.707  1.00  0.00     0.210 C 
ENDBRANCH  12  15
ENDBRANCH   7   9
ENDBRANCH   6   7
BRANCH   1  17
HETATM   17  C5  UNL     1      22.294   1.117  51.101  1.00  0.00     0.082 C 
BRANCH  17  18
HETATM   18  C4  UNL     1      21.900   0.374  52.325  1.00  0.00    -0.051 A 
HETATM   19  C3  UNL     1      20.453   0.110  52.350  1.00  0.00     0.071 A 
HETATM   20  C2  UNL     1      19.880  -0.551  53.364  1.00  0.00     0.180 A 
HETATM   21  O3  UNL     1      20.674  -0.985  54.394  1.00  0.00    -0.327 OA
HETATM   22  C18 UNL     1      22.071  -0.794  54.483  1.00  0.00     0.206 A 
HETATM   23  C17 UNL     1      22.631  -0.065  53.344  1.00  0.00     0.007 A 
BRANCH  20  24
HETATM   24  O1  UNL     1      18.506  -0.812  53.404  1.00  0.00    -0.336 OA
HETATM   25  C1  UNL     1      18.037  -2.149  53.616  1.00  0.00     0.212 C 
ENDBRANCH  20  24
ENDBRANCH  17  18
ENDBRANCH   1  17
BRANCH   4  26
HETATM   26  N2  UNL     1      24.049   6.360  52.348  1.00  0.00    -0.231 N 
HETATM   27  H8  UNL     1      24.052   6.921  53.227  1.00  0.00     0.174 HD
HETATM   28  H9  UNL     1      24.528   6.889  51.568  1.00  0.00     0.174 HD
ENDBRANCH   4  26
TORSDOF 7
ENDMDL
MODEL 3
REMARK VINA RESULT:      -7.7      2.913      5.656
REMARK  7 active torsions:
REMARK  status: ('A' for Active; 'I' for Inactive)
REMARK    1  A    between atoms: O1_2  and  C2_3 
REMARK    2  A    between atoms: C4_5  and  C5_6 
REMARK    3  A    between atoms: C5_6  and  C6_7 
REMARK    4  A    between atoms: C8_10  and  N2_11 
REMARK    5  A    between atoms: C9_13  and  N4_14 
REMARK    6  A    between atoms: N4_14  and  C10_15 
REMARK    7  A    between atoms: C13_18  and  O2_19 
ROOT
HETATM    1  C6  UNL     1      26.903   0.490  53.272  1.00  0.00     0.011 A 
HETATM    2  C7  UNL     1      28.047  -0.212  53.595  1.00  0.00     0.147 A 
HETATM    3  N1  UNL     1      29.108   0.410  54.137  1.00  0.00    -0.075 NA
HETATM    4  C8  UNL     1      29.096   1.725  54.385  1.00  0.00     0.721 A 
HETATM    5  N3  UNL     1      27.981   2.382  54.066  1.00  0.00    -0.045 NA
HETATM    6  C9  UNL     1      26.892   1.864  53.532  1.00  0.00     0.155 A 
ENDROOT
BRANCH   6   7
HETATM    7  N4  UNL     1      25.739   2.596  53.223  1.00  0.00    -0.340 N 
HETATM    8  H10 UNL     1      25.228   3.081  54.023  1.00  0.00     0.167 HD
BRANCH   7   9
HETATM    9  C10 UNL     1      25.064   2.851  51.997  1.00  0.00     0.033 A 
HETATM   10  C11 UNL     1      25.706   3.034  50.763  1.00  0.00     0.032 A 
HETATM   11  C12 UNL     1      24.961   3.273  49.632  1.00  0.00     0.039 A 
HETATM   12  C13 UNL     1      23.582   3.344  49.636  1.00  0.00     0.068 A 
HETATM   13  C15 UNL     1      22.933   3.166  50.839  1.00  0.00     0.039 A 
HETATM   14  C16 UNL     1      23.689   2.928  51.966  1.00  0.00     0.032 A 
BRANCH  12  15
HETATM   15  O2  UNL     1      22.914   3.589  48.446  1.00  0.00    -0.356 OA
HETATM   16  C14 UNL     1      22.292   2.487  47.805  1.00  0.00     0.210 C 
ENDBRANCH  12  15
ENDBRANCH   7   9
ENDBRANCH   6   7
BRANCH   1  17
HETATM   17  C5  UNL     1      25.767  -0.252  52.660  1.00  0.00     0.082 C 
BRANCH  17  18
HETATM   18  C4  UNL     1      24.719  -0.586  53.658  1.00  0.00    -0.051 A 
HETATM   19  C3  UNL     1      23.371  -0.453  53.086  1.00  0.00     0.071 A 
HETATM   20  C2  UNL     1      22.275  -0.709  53.813  1.00  0.00     0.180 A 
HETATM   21  O3  UNL     1      22.432  -1.103  55.116  1.00  0.00    -0.327 OA
HETATM   22  C18 UNL     1      23.670  -1.268  55.775  1.00  0.00     0.206 A 
HETATM   23  C17 UNL     1      24.824  -0.971  54.925  1.00  0.00     0.007 A 
BRANCH  20  24
HETATM   24  O1  UNL     1      20.985  -0.589  53.285  1.00  0.00    -0.336 OA
HETATM   25  C1  UNL     1      20.712   0.392  52.277  1.00  0.00     0.212 C 
ENDBRANCH  20  24
ENDBRANCH  17  18
ENDBRANCH   1  17
BRANCH   4  26
HETATM   26  N2  UNL     1      30.168   2.482  54.958  1.00  0.00    -0.231 N 
HETATM   27  H8  UNL     1      30.309   2.887  55.908  1.00  0.00     0.174 HD
HETATM   28  H9  UNL     1      30.997   2.694  54.336  1.00  0.00     0.174 HD
ENDBRANCH   4  26
TORSDOF 7
ENDMDL
MODEL 4
REMARK VINA RESULT:      -7.7      3.017      6.770
REMARK  7 active torsions:
REMARK  status: ('A' for Active; 'I' for Inactive)
REMARK    1  A    between atoms: O1_2  and  C2_3 
REMARK    2  A    between atoms: C4_5  and  C5_6 
REMARK    3  A    between atoms: C5_6  and  C6_7 
REMARK    4  A    between atoms: C8_10  and  N2_11 
REMARK    5  A    between atoms: C9_13  and  N4_14 
REMARK    6  A    between atoms: N4_14  and  C10_15 
REMARK    7  A    between atoms: C13_18  and  O2_19 
ROOT
HETATM    1  C6  UNL     1      26.567   0.647  53.666  1.00  0.00     0.011 A 
HETATM    2  C7  UNL     1      27.832   0.549  53.122  1.00  0.00     0.147 A 
HETATM    3  N1  UNL     1      28.389  -0.650  52.883  1.00  0.00    -0.075 NA
HETATM    4  C8  UNL     1      27.743  -1.789  53.161  1.00  0.00     0.721 A 
HETATM    5  N3  UNL     1      26.523  -1.670  53.684  1.00  0.00    -0.045 NA
HETATM    6  C9  UNL     1      25.893  -0.544  53.955  1.00  0.00     0.155 A 
ENDROOT
BRANCH   6   7
HETATM    7  N4  UNL     1      24.604  -0.471  54.497  1.00  0.00    -0.340 N 
HETATM    8  H10 UNL     1      24.510  -0.458  55.559  1.00  0.00     0.167 HD
BRANCH   7   9
HETATM    9  C10 UNL     1      23.315  -0.401  53.900  1.00  0.00     0.033 A 
HETATM   10  C11 UNL     1      23.072   0.039  52.590  1.00  0.00     0.032 A 
HETATM   11  C12 UNL     1      21.785   0.066  52.104  1.00  0.00     0.039 A 
HETATM   12  C13 UNL     1      20.688  -0.324  52.846  1.00  0.00     0.068 A 
HETATM   13  C15 UNL     1      20.907  -0.759  54.135  1.00  0.00     0.039 A 
HETATM   14  C16 UNL     1      22.199  -0.782  54.613  1.00  0.00     0.032 A 
BRANCH  12  15
HETATM   15  O2  UNL     1      19.427  -0.263  52.273  1.00  0.00    -0.356 OA
HETATM   16  C14 UNL     1      19.108   0.892  51.514  1.00  0.00     0.210 C 
ENDBRANCH  12  15
ENDBRANCH   7   9
ENDBRANCH   6   7
BRANCH   1  17
HETATM   17  C5  UNL     1      26.009   2.004  53.922  1.00  0.00     0.082 C 
BRANCH  17  18
HETATM   18  C4  UNL     1      25.373   2.580  52.711  1.00  0.00    -0.051 A 
HETATM   19  C3  UNL     1      24.208   3.408  53.059  1.00  0.00     0.071 A 
HETATM   20  C2  UNL     1      23.485   4.028  52.117  1.00  0.00     0.180 A 
HETATM   21  O3  UNL     1      23.852   3.877  50.805  1.00  0.00    -0.327 OA
HETATM   22  C18 UNL     1      24.947   3.112  50.347  1.00  0.00     0.206 A 
HETATM   23  C17 UNL     1      25.692   2.462  51.426  1.00  0.00     0.007 A 
BRANCH  20  24
HETATM   24  O1  UNL     1      22.375   4.820  52.430  1.00  0.00    -0.336 OA
HETATM   25  C1  UNL     1      21.577   5.382  51.381  1.00  0.00     0.212 C 
ENDBRANCH  20  24
ENDBRANCH  17  18
ENDBRANCH   1  17
BRANCH   4  26
HETATM   26  N2  UNL     1      28.244  -3.113  52.945  1.00  0.00    -0.231 N 
HETATM   27  H8  UNL     1      29.043  -3.636  53.363  1.00  0.00     0.174 HD
HETATM   28  H9  UNL     1      27.738  -3.712  52.235  1.00  0.00     0.174 HD
ENDBRANCH   4  26
TORSDOF 7
ENDMDL
MODEL 5
REMARK VINA RESULT:      -7.5      4.329      6.409
REMARK  7 active torsions:
REMARK  status: ('A' for Active; 'I' for Inactive)
REMARK    1  A    between atoms: O1_2  and  C2_3 
REMARK    2  A    between atoms: C4_5  and  C5_6 
REMARK    3  A    between atoms: C5_6  and  C6_7 
REMARK    4  A    between atoms: C8_10  and  N2_11 
REMARK    5  A    between atoms: C9_13  and  N4_14 
REMARK    6  A    between atoms: N4_14  and  C10_15 
REMARK    7  A    between atoms: C13_18  and  O2_19 
ROOT
HETATM    1  C6  UNL     1      25.658   1.631  52.375  1.00  0.00     0.011 A 
HETATM    2  C7  UNL     1      25.909   1.225  53.670  1.00  0.00     0.147 A 
HETATM    3  N1  UNL     1      27.099   1.460  54.249  1.00  0.00    -0.075 NA
HETATM    4  C8  UNL     1      28.080   2.094  53.596  1.00  0.00     0.721 A 
HETATM    5  N3  UNL     1      27.815   2.477  52.347  1.00  0.00    -0.045 NA
HETATM    6  C9  UNL     1      26.685   2.293  51.694  1.00  0.00     0.155 A 
ENDROOT
BRANCH   6   7
HETATM    7  N4  UNL     1      26.450   2.724  50.382  1.00  0.00    -0.340 N 
HETATM    8  H10 UNL     1      26.214   1.986  49.651  1.00  0.00     0.167 HD
BRANCH   7   9
HETATM    9  C10 UNL     1      26.457   4.013  49.781  1.00  0.00     0.033 A 
HETATM   10  C11 UNL     1      25.444   4.970  49.948  1.00  0.00     0.032 A 
HETATM   11  C12 UNL     1      25.547   6.192  49.324  1.00  0.00     0.039 A 
HETATM   12  C13 UNL     1      26.614   6.544  48.523  1.00  0.00     0.068 A 
HETATM   13  C15 UNL     1      27.619   5.617  48.347  1.00  0.00     0.039 A 
HETATM   14  C16 UNL     1      27.507   4.397  48.976  1.00  0.00     0.032 A 
BRANCH  12  15
HETATM   15  O2  UNL     1      26.633   7.799  47.934  1.00  0.00    -0.356 OA
HETATM   16  C14 UNL     1      25.714   8.044  46.882  1.00  0.00     0.210 C 
ENDBRANCH  12  15
ENDBRANCH   7   9
ENDBRANCH   6   7
BRANCH   1  17
HETATM   17  C5  UNL     1      24.326   1.328  51.784  1.00  0.00     0.082 C 
BRANCH  17  18
HETATM   18  C4  UNL     1      23.465   2.535  51.704  1.00  0.00    -0.051 A 
HETATM   19  C3  UNL     1      22.686   2.558  50.457  1.00  0.00     0.071 A 
HETATM   20  C2  UNL     1      21.840   3.559  50.179  1.00  0.00     0.180 A 
HETATM   21  O3  UNL     1      21.710   4.576  51.088  1.00  0.00    -0.327 OA
HETATM   22  C18 UNL     1      22.400   4.666  52.317  1.00  0.00     0.206 A 
HETATM   23  C17 UNL     1      23.307   3.542  52.556  1.00  0.00     0.007 A 
BRANCH  20  24
HETATM   24  O1  UNL     1      21.090   3.596  48.998  1.00  0.00    -0.336 OA
HETATM   25  C1  UNL     1      21.444   2.749  47.899  1.00  0.00     0.212 C 
ENDBRANCH  20  24
ENDBRANCH  17  18
ENDBRANCH   1  17
BRANCH   4  26
HETATM   26  N2  UNL     1      29.379   2.394  54.118  1.00  0.00    -0.231 N 
HETATM   27  H8  UNL     1      29.974   3.249  54.066  1.00  0.00     0.174 HD
HETATM   28  H9  UNL     1      29.867   1.634  54.668  1.00  0.00     0.174 HD
ENDBRANCH   4  26
TORSDOF 7
ENDMDL
MODEL 6
REMARK VINA RESULT:      -7.4      3.496      5.997
REMARK  7 active torsions:
REMARK  status: ('A' for Active; 'I' for Inactive)
REMARK    1  A    between atoms: O1_2  and  C2_3 
REMARK    2  A    between atoms: C4_5  and  C5_6 
REMARK    3  A    between atoms: C5_6  and  C6_7 
REMARK    4  A    between atoms: C8_10  and  N2_11 
REMARK    5  A    between atoms: C9_13  and  N4_14 
REMARK    6  A    between atoms: N4_14  and  C10_15 
REMARK    7  A    between atoms: C13_18  and  O2_19 
ROOT
HETATM    1  C6  UNL     1      22.987   1.591  51.823  1.00  0.00     0.011 A 
HETATM    2  C7  UNL     1      22.098   0.569  51.557  1.00  0.00     0.147 A 
HETATM    3  N1  UNL     1      21.402   0.542  50.407  1.00  0.00    -0.075 NA
HETATM    4  C8  UNL     1      21.544   1.499  49.482  1.00  0.00     0.721 A 
HETATM    5  N3  UNL     1      22.408   2.474  49.760  1.00  0.00    -0.045 NA
HETATM    6  C9  UNL     1      23.135   2.589  50.854  1.00  0.00     0.155 A 
ENDROOT
BRANCH   6   7
HETATM    7  N4  UNL     1      24.039   3.630  51.097  1.00  0.00    -0.340 N 
HETATM    8  H10 UNL     1      23.990   4.122  52.041  1.00  0.00     0.167 HD
BRANCH   7   9
HETATM    9  C10 UNL     1      25.075   4.204  50.309  1.00  0.00     0.033 A 
HETATM   10  C11 UNL     1      26.217   3.512  49.877  1.00  0.00     0.032 A 
HETATM   11  C12 UNL     1      27.161   4.159  49.113  1.00  0.00     0.039 A 
HETATM   12  C13 UNL     1      27.051   5.482  48.735  1.00  0.00     0.068 A 
HETATM   13  C15 UNL     1      25.936   6.177  49.149  1.00  0.00     0.039 A 
HETATM   14  C16 UNL     1      24.996   5.521  49.914  1.00  0.00     0.032 A 
BRANCH  12  15
HETATM   15  O2  UNL     1      28.053   6.050  47.963  1.00  0.00    -0.356 OA
HETATM   16  C14 UNL     1      29.390   5.667  48.240  1.00  0.00     0.210 C 
ENDBRANCH  12  15
ENDBRANCH   7   9
ENDBRANCH   6   7
BRANCH   1  17
HETATM   17  C5  UNL     1      23.717   1.573  53.120  1.00  0.00     0.082 C 
BRANCH  17  18
HETATM   18  C4  UNL     1      25.113   1.089  52.966  1.00  0.00    -0.051 A 
HETATM   19  C3  UNL     1      26.072   2.006  53.600  1.00  0.00     0.071 A 
HETATM   20  C2  UNL     1      27.389   1.761  53.583  1.00  0.00     0.180 A 
HETATM   21  O3  UNL     1      27.835   0.627  52.957  1.00  0.00    -0.327 OA
HETATM   22  C18 UNL     1      27.015  -0.327  52.316  1.00  0.00     0.206 A 
HETATM   23  C17 UNL     1      25.590   0.002  52.371  1.00  0.00     0.007 A 
BRANCH  20  24
HETATM   24  O1  UNL     1      28.316   2.622  54.182  1.00  0.00    -0.336 OA
HETATM   25  C1  UNL     1      29.633   2.151  54.493  1.00  0.00     0.212 C 
ENDBRANCH  20  24
ENDBRANCH  17  18
ENDBRANCH   1  17
BRANCH   4  26
HETATM   26  N2  UNL     1      20.854   1.564  48.229  1.00  0.00    -0.231 N 
HETATM   27  H8  UNL     1      21.193   1.572  47.242  1.00  0.00     0.174 HD
HETATM   28  H9  UNL     1      19.798   1.616  48.260  1.00  0.00     0.174 HD
ENDBRANCH   4  26
TORSDOF 7
ENDMDL
MODEL 7
REMARK VINA RESULT:      -7.4      4.008      6.449
REMARK  7 active torsions:
REMARK  status: ('A' for Active; 'I' for Inactive)
REMARK    1  A    between atoms: O1_2  and  C2_3 
REMARK    2  A    between atoms: C4_5  and  C5_6 
REMARK    3  A    between atoms: C5_6  and  C6_7 
REMARK    4  A    between atoms: C8_10  and  N2_11 
REMARK    5  A    between atoms: C9_13  and  N4_14 
REMARK    6  A    between atoms: N4_14  and  C10_15 
REMARK    7  A    between atoms: C13_18  and  O2_19 
ROOT
HETATM    1  C6  UNL     1      24.397   3.550  50.217  1.00  0.00     0.011 A 
HETATM    2  C7  UNL     1      23.234   3.759  49.503  1.00  0.00     0.147 A 
HETATM    3  N1  UNL     1      22.035   3.709  50.108  1.00  0.00    -0.075 NA
HETATM    4  C8  UNL     1      21.923   3.456  51.417  1.00  0.00     0.721 A 
HETATM    5  N3  UNL     1      23.059   3.258  52.086  1.00  0.00    -0.045 NA
HETATM    6  C9  UNL     1      24.278   3.286  51.585  1.00  0.00     0.155 A 
ENDROOT
BRANCH   6   7
HETATM    7  N4  UNL     1      25.444   3.082  52.333  1.00  0.00    -0.340 N 
HETATM    8  H10 UNL     1      25.884   3.927  52.811  1.00  0.00     0.167 HD
BRANCH   7   9
HETATM    9  C10 UNL     1      26.212   1.917  52.613  1.00  0.00     0.033 A 
HETATM   10  C11 UNL     1      25.821   0.612  52.278  1.00  0.00     0.032 A 
HETATM   11  C12 UNL     1      26.639  -0.449  52.591  1.00  0.00     0.039 A 
HETATM   12  C13 UNL     1      27.854  -0.305  53.231  1.00  0.00     0.068 A 
HETATM   13  C15 UNL     1      28.254   0.970  53.568  1.00  0.00     0.039 A 
HETATM   14  C16 UNL     1      27.428   2.026  53.251  1.00  0.00     0.032 A 
BRANCH  12  15
HETATM   15  O2  UNL     1      28.612  -1.433  53.506  1.00  0.00    -0.356 OA
HETATM   16  C14 UNL     1      30.002  -1.252  53.718  1.00  0.00     0.210 C 
ENDBRANCH  12  15
ENDBRANCH   7   9
ENDBRANCH   6   7
BRANCH   1  17
HETATM   17  C5  UNL     1      25.695   3.604  49.488  1.00  0.00     0.082 C 
BRANCH  17  18
HETATM   18  C4  UNL     1      26.202   4.993  49.360  1.00  0.00    -0.051 A 
HETATM   19  C3  UNL     1      27.453   5.039  48.587  1.00  0.00     0.071 A 
HETATM   20  C2  UNL     1      28.085   6.195  48.347  1.00  0.00     0.180 A 
HETATM   21  O3  UNL     1      27.540   7.353  48.839  1.00  0.00    -0.327 OA
HETATM   22  C18 UNL     1      26.348   7.438  49.591  1.00  0.00     0.206 A 
HETATM   23  C17 UNL     1      25.710   6.140  49.817  1.00  0.00     0.007 A 
BRANCH  20  24
HETATM   24  O1  UNL     1      29.274   6.257  47.613  1.00  0.00    -0.336 OA
HETATM   25  C1  UNL     1      30.400   5.463  48.006  1.00  0.00     0.212 C 
ENDBRANCH  20  24
ENDBRANCH  17  18
ENDBRANCH   1  17
BRANCH   4  26
HETATM   26  N2  UNL     1      20.699   3.381  52.156  1.00  0.00    -0.231 N 
HETATM   27  H8  UNL     1      20.495   3.152  53.153  1.00  0.00     0.174 HD
HETATM   28  H9  UNL     1      19.804   3.588  51.632  1.00  0.00     0.174 HD
ENDBRANCH   4  26
TORSDOF 7
ENDMDL
MODEL 8
REMARK VINA RESULT:      -7.0      4.291      6.116
REMARK  7 active torsions:
REMARK  status: ('A' for Active; 'I' for Inactive)
REMARK    1  A    between atoms: O1_2  and  C2_3 
REMARK    2  A    between atoms: C4_5  and  C5_6 
REMARK    3  A    between atoms: C5_6  and  C6_7 
REMARK    4  A    between atoms: C8_10  and  N2_11 
REMARK    5  A    between atoms: C9_13  and  N4_14 
REMARK    6  A    between atoms: N4_14  and  C10_15 
REMARK    7  A    between atoms: C13_18  and  O2_19 
ROOT
HETATM    1  C6  UNL     1      23.968   2.459  51.122  1.00  0.00     0.011 A 
HETATM    2  C7  UNL     1      22.842   1.709  50.844  1.00  0.00     0.147 A 
HETATM    3  N1  UNL     1      22.279   1.735  49.624  1.00  0.00    -0.075 NA
HETATM    4  C8  UNL     1      22.786   2.484  48.637  1.00  0.00     0.721 A 
HETATM    5  N3  UNL     1      23.873   3.198  48.928  1.00  0.00    -0.045 NA
HETATM    6  C9  UNL     1      24.496   3.240  50.089  1.00  0.00     0.155 A 
ENDROOT
BRANCH   6   7
HETATM    7  N4  UNL     1      25.644   4.001  50.343  1.00  0.00    -0.340 N 
HETATM    8  H10 UNL     1      26.208   3.773  51.218  1.00  0.00     0.167 HD
BRANCH   7   9
HETATM    9  C10 UNL     1      26.258   5.073  49.639  1.00  0.00     0.033 A 
HETATM   10  C11 UNL     1      25.782   6.393  49.634  1.00  0.00     0.032 A 
HETATM   11  C12 UNL     1      26.453   7.360  48.922  1.00  0.00     0.039 A 
HETATM   12  C13 UNL     1      27.597   7.105  48.193  1.00  0.00     0.068 A 
HETATM   13  C15 UNL     1      28.080   5.815  48.186  1.00  0.00     0.039 A 
HETATM   14  C16 UNL     1      27.401   4.853  48.902  1.00  0.00     0.032 A 
BRANCH  12  15
HETATM   15  O2  UNL     1      28.206   8.144  47.506  1.00  0.00    -0.356 OA
HETATM   16  C14 UNL     1      28.980   7.810  46.365  1.00  0.00     0.210 C 
ENDBRANCH  12  15
ENDBRANCH   7   9
ENDBRANCH   6   7
BRANCH   1  17
HETATM   17  C5  UNL     1      24.536   2.400  52.497  1.00  0.00     0.082 C 
BRANCH  17  18
HETATM   18  C4  UNL     1      25.307   1.152  52.726  1.00  0.00    -0.051 A 
HETATM   19  C3  UNL     1      24.797   0.411  53.890  1.00  0.00     0.071 A 
HETATM   20  C2  UNL     1      25.346  -0.748  54.276  1.00  0.00     0.180 A 
HETATM   21  O3  UNL     1      26.406  -1.240  53.560  1.00  0.00    -0.327 OA
HETATM   22  C18 UNL     1      26.983  -0.624  52.428  1.00  0.00     0.206 A 
HETATM   23  C17 UNL     1      26.336   0.637  52.061  1.00  0.00     0.007 A 
BRANCH  20  24
HETATM   24  O1  UNL     1      24.873  -1.466  55.380  1.00  0.00    -0.336 OA
HETATM   25  C1  UNL     1      23.474  -1.463  55.690  1.00  0.00     0.212 C 
ENDBRANCH  20  24
ENDBRANCH  17  18
ENDBRANCH   1  17
BRANCH   4  26
HETATM   26  N2  UNL     1      22.266   2.582  47.307  1.00  0.00    -0.231 N 
HETATM   27  H8  UNL     1      21.292   2.632  46.937  1.00  0.00     0.174 HD
HETATM   28  H9  UNL     1      22.967   2.614  46.514  1.00  0.00     0.174 HD
ENDBRANCH   4  26
TORSDOF 7
ENDMDL
MODEL 9
REMARK VINA RESULT:      -6.9      2.397      3.119
REMARK  7 active torsions:
REMARK  status: ('A' for Active; 'I' for Inactive)
REMARK    1  A    between atoms: O1_2  and  C2_3 
REMARK    2  A    between atoms: C4_5  and  C5_6 
REMARK    3  A    between atoms: C5_6  and  C6_7 
REMARK    4  A    between atoms: C8_10  and  N2_11 
REMARK    5  A    between atoms: C9_13  and  N4_14 
REMARK    6  A    between atoms: N4_14  and  C10_15 
REMARK    7  A    between atoms: C13_18  and  O2_19 
ROOT
HETATM    1  C6  UNL     1      24.321   3.694  49.494  1.00  0.00     0.011 A 
HETATM    2  C7  UNL     1      23.827   4.918  49.090  1.00  0.00     0.147 A 
HETATM    3  N1  UNL     1      24.595   6.020  49.133  1.00  0.00    -0.075 NA
HETATM    4  C8  UNL     1      25.861   5.973  49.565  1.00  0.00     0.721 A 
HETATM    5  N3  UNL     1      26.316   4.781  49.950  1.00  0.00    -0.045 NA
HETATM    6  C9  UNL     1      25.643   3.647  49.946  1.00  0.00     0.155 A 
ENDROOT
BRANCH   6   7
HETATM    7  N4  UNL     1      26.170   2.414  50.351  1.00  0.00    -0.340 N 
HETATM    8  H10 UNL     1      26.695   1.835  49.627  1.00  0.00     0.167 HD
BRANCH   7   9
HETATM    9  C10 UNL     1      26.159   1.730  51.598  1.00  0.00     0.033 A 
HETATM   10  C11 UNL     1      25.801   2.318  52.821  1.00  0.00     0.032 A 
HETATM   11  C12 UNL     1      25.820   1.567  53.973  1.00  0.00     0.039 A 
HETATM   12  C13 UNL     1      26.178   0.234  54.001  1.00  0.00     0.068 A 
HETATM   13  C15 UNL     1      26.532  -0.361  52.810  1.00  0.00     0.039 A 
HETATM   14  C16 UNL     1      26.511   0.400  51.662  1.00  0.00     0.032 A 
BRANCH  12  15
HETATM   15  O2  UNL     1      26.167  -0.444  55.211  1.00  0.00    -0.356 OA
HETATM   16  C14 UNL     1      24.949  -1.049  55.613  1.00  0.00     0.210 C 
ENDBRANCH  12  15
ENDBRANCH   7   9
ENDBRANCH   6   7
BRANCH   1  17
HETATM   17  C5  UNL     1      23.416   2.513  49.438  1.00  0.00     0.082 C 
BRANCH  17  18
HETATM   18  C4  UNL     1      22.514   2.447  50.616  1.00  0.00    -0.051 A 
HETATM   19  C3  UNL     1      22.785   1.255  51.434  1.00  0.00     0.071 A 
HETATM   20  C2  UNL     1      22.088   0.998  52.548  1.00  0.00     0.180 A 
HETATM   21  O3  UNL     1      21.103   1.876  52.920  1.00  0.00    -0.327 OA
HETATM   22  C18 UNL     1      20.751   3.051  52.221  1.00  0.00     0.206 A 
HETATM   23  C17 UNL     1      21.551   3.270  51.015  1.00  0.00     0.007 A 
BRANCH  20  24
HETATM   24  O1  UNL     1      22.333  -0.130  53.338  1.00  0.00    -0.336 OA
HETATM   25  C1  UNL     1      21.335  -0.592  54.256  1.00  0.00     0.212 C 
ENDBRANCH  20  24
ENDBRANCH  17  18
ENDBRANCH   1  17
BRANCH   4  26
HETATM   26  N2  UNL     1      26.761   7.083  49.650  1.00  0.00    -0.231 N 
HETATM   27  H8  UNL     1      27.801   7.147  49.602  1.00  0.00     0.174 HD
HETATM   28  H9  UNL     1      26.336   8.042  49.788  1.00  0.00     0.174 HD
ENDBRANCH   4  26
TORSDOF 7
ENDMDL
