MODEL 1
REMARK VINA RESULT:      -8.1      0.000      0.000
REMARK  5 active torsions:
REMARK  status: ('A' for Active; 'I' for Inactive)
REMARK    1  A    between atoms: C3_3  and  C4_4 
REMARK    2  A    between atoms: C9_9  and  C10_10 
REMARK    3  A    between atoms: C10_10  and  O1_11 
REMARK    4  A    between atoms: C11_13  and  N2_14 
REMARK    5  A    between atoms: N2_14  and  C12_15 
ROOT
HETATM    1  C1  UNL     1      22.214  -1.599  55.026  1.00  0.00     0.012 C 
HETATM    2  C2  UNL     1      21.582  -0.827  54.348  1.00  0.00    -0.113 C 
HETATM    3  C3  UNL     1      20.808   0.117  53.546  1.00  0.00     0.132 C 
ENDROOT
BRANCH   3   4
HETATM    4  C4  UNL     1      21.714   0.783  52.587  1.00  0.00    -0.038 A 
HETATM    5  C5  UNL     1      22.984   1.130  53.057  1.00  0.00     0.026 A 
HETATM    6  C6  UNL     1      23.904   1.763  52.216  1.00  0.00     0.039 A 
HETATM    7  C7  UNL     1      23.475   2.011  50.928  1.00  0.00     0.073 A 
HETATM    8  C11 UNL     1      25.093   2.309  51.972  1.00  0.00     0.141 A 
HETATM    9  C8  UNL     1      22.227   1.679  50.443  1.00  0.00     0.042 A 
HETATM   10  N1  UNL     1      24.625   2.557  50.636  1.00  0.00    -0.230 NA
HETATM   11  C9  UNL     1      21.330   1.052  51.292  1.00  0.00    -0.025 A 
BRANCH  11  12
HETATM   12  C10 UNL     1      19.980   0.658  50.872  1.00  0.00     0.203 C 
BRANCH  12  13
HETATM   13  O1  UNL     1      19.834   0.982  49.519  1.00  0.00    -0.396 OA
HETATM   14  H8  UNL     1      19.668   0.184  48.960  1.00  0.00     0.209 HD
ENDBRANCH  12  13
ENDBRANCH  11  12
BRANCH   8  15
HETATM   15  N2  UNL     1      26.239   2.493  52.792  1.00  0.00    -0.340 N 
HETATM   16  H9  UNL     1      26.426   3.403  53.249  1.00  0.00     0.167 HD
BRANCH  15  17
HETATM   17  C12 UNL     1      27.227   1.540  53.089  1.00  0.00     0.035 A 
HETATM   18  C13 UNL     1      28.426   1.889  53.654  1.00  0.00     0.032 A 
HETATM   19  C14 UNL     1      29.425   0.973  53.963  1.00  0.00     0.046 A 
HETATM   20  C15 UNL     1      29.110  -0.338  53.651  1.00  0.00     0.138 A 
HETATM   21  F1  UNL     1      30.058  -1.274  53.934  1.00  0.00    -0.204 F 
HETATM   22  C16 UNL     1      27.919  -0.723  53.083  1.00  0.00     0.074 A 
HETATM   23 CL1  UNL     1      27.574  -2.412  52.708  1.00  0.00    -0.081 Cl
HETATM   24  C17 UNL     1      26.958   0.223  52.795  1.00  0.00     0.056 A 
ENDBRANCH  15  17
ENDBRANCH   8  15
ENDBRANCH   3   4
TORSDOF 5
ENDMDL
MODEL 2
REMARK VINA RESULT:      -8.0      3.206      4.931
REMARK  5 active torsions:
REMARK  status: ('A' for Active; 'I' for Inactive)
REMARK    1  A    between atoms: C3_3  and  C4_4 
REMARK    2  A    between atoms: C9_9  and  C10_10 
REMARK    3  A    between atoms: C10_10  and  O1_11 
REMARK    4  A    between atoms: C11_13  and  N2_14 
REMARK    5  A    between atoms: N2_14  and  C12_15 
ROOT
HETATM    1  C1  UNL     1      27.927   4.824  48.591  1.00  0.00     0.012 C 
HETATM    2  C2  UNL     1      26.812   5.242  48.788  1.00  0.00    -0.113 C 
HETATM    3  C3  UNL     1      25.457   5.741  49.005  1.00  0.00     0.132 C 
ENDROOT
BRANCH   3   4
HETATM    4  C4  UNL     1      24.885   5.071  50.191  1.00  0.00    -0.038 A 
HETATM    5  C5  UNL     1      25.314   3.764  50.443  1.00  0.00     0.026 A 
HETATM    6  C6  UNL     1      24.823   3.056  51.544  1.00  0.00     0.039 A 
HETATM    7  C7  UNL     1      23.913   3.725  52.337  1.00  0.00     0.073 A 
HETATM    8  C11 UNL     1      24.761   1.971  52.312  1.00  0.00     0.141 A 
HETATM    9  C8  UNL     1      23.476   5.013  52.107  1.00  0.00     0.042 A 
HETATM   10  N1  UNL     1      23.815   2.687  53.123  1.00  0.00    -0.230 NA
HETATM   11  C9  UNL     1      23.974   5.697  51.011  1.00  0.00    -0.025 A 
BRANCH  11  12
HETATM   12  C10 UNL     1      23.572   7.070  50.680  1.00  0.00     0.203 C 
BRANCH  12  13
HETATM   13  O1  UNL     1      24.161   7.930  51.613  1.00  0.00    -0.396 OA
HETATM   14  H8  UNL     1      23.895   8.872  51.473  1.00  0.00     0.209 HD
ENDBRANCH  12  13
ENDBRANCH  11  12
BRANCH   8  15
HETATM   15  N2  UNL     1      25.416   0.712  52.232  1.00  0.00    -0.340 N 
HETATM   16  H9  UNL     1      24.939  -0.111  51.824  1.00  0.00     0.167 HD
BRANCH  15  17
HETATM   17  C12 UNL     1      26.718   0.409  52.664  1.00  0.00     0.035 A 
HETATM   18  C13 UNL     1      27.599   1.383  53.054  1.00  0.00     0.032 A 
HETATM   19  C14 UNL     1      28.892   1.120  53.488  1.00  0.00     0.046 A 
HETATM   20  C15 UNL     1      29.227  -0.223  53.495  1.00  0.00     0.138 A 
HETATM   21  F1  UNL     1      30.486  -0.532  53.912  1.00  0.00    -0.204 F 
HETATM   22  C16 UNL     1      28.370  -1.226  53.110  1.00  0.00     0.074 A 
HETATM   23 CL1  UNL     1      28.854  -2.922  53.142  1.00  0.00    -0.081 Cl
HETATM   24  C17 UNL     1      27.095  -0.915  52.687  1.00  0.00     0.056 A 
ENDBRANCH  15  17
ENDBRANCH   8  15
ENDBRANCH   3   4
TORSDOF 5
ENDMDL
MODEL 3
REMARK VINA RESULT:      -8.0      3.952      5.204
REMARK  5 active torsions:
REMARK  status: ('A' for Active; 'I' for Inactive)
REMARK    1  A    between atoms: C3_3  and  C4_4 
REMARK    2  A    between atoms: C9_9  and  C10_10 
REMARK    3  A    between atoms: C10_10  and  O1_11 
REMARK    4  A    between atoms: C11_13  and  N2_14 
REMARK    5  A    between atoms: N2_14  and  C12_15 
ROOT
HETATM    1  C1  UNL     1      26.712  -1.021  52.525  1.00  0.00     0.012 C 
HETATM    2  C2  UNL     1      25.781  -0.849  53.274  1.00  0.00    -0.113 C 
HETATM    3  C3  UNL     1      24.670  -0.633  54.197  1.00  0.00     0.132 C 
ENDROOT
BRANCH   3   4
HETATM    4  C4  UNL     1      23.652   0.206  53.531  1.00  0.00    -0.038 A 
HETATM    5  C5  UNL     1      24.077   1.450  53.053  1.00  0.00     0.026 A 
HETATM    6  C6  UNL     1      23.179   2.306  52.409  1.00  0.00     0.039 A 
HETATM    7  C7  UNL     1      21.884   1.845  52.286  1.00  0.00     0.073 A 
HETATM    8  C11 UNL     1      22.878   3.445  51.789  1.00  0.00     0.141 A 
HETATM    9  C8  UNL     1      21.443   0.623  52.751  1.00  0.00     0.042 A 
HETATM   10  N1  UNL     1      21.536   2.944  51.673  1.00  0.00    -0.230 NA
HETATM   11  C9  UNL     1      22.348  -0.211  53.386  1.00  0.00    -0.025 A 
BRANCH  11  12
HETATM   12  C10 UNL     1      21.979  -1.531  53.914  1.00  0.00     0.203 C 
BRANCH  12  13
HETATM   13  O1  UNL     1      21.135  -1.337  55.013  1.00  0.00    -0.396 OA
HETATM   14  H8  UNL     1      20.734  -0.434  55.020  1.00  0.00     0.209 HD
ENDBRANCH  12  13
ENDBRANCH  11  12
BRANCH   8  15
HETATM   15  N2  UNL     1      23.664   4.582  51.458  1.00  0.00    -0.340 N 
HETATM   16  H9  UNL     1      23.443   5.514  51.848  1.00  0.00     0.167 HD
BRANCH  15  17
HETATM   17  C12 UNL     1      24.783   4.616  50.608  1.00  0.00     0.035 A 
HETATM   18  C13 UNL     1      25.559   3.509  50.385  1.00  0.00     0.032 A 
HETATM   19  C14 UNL     1      26.670   3.505  49.551  1.00  0.00     0.046 A 
HETATM   20  C15 UNL     1      26.937   4.725  48.954  1.00  0.00     0.138 A 
HETATM   21  F1  UNL     1      28.018   4.773  48.127  1.00  0.00    -0.204 F 
HETATM   22  C16 UNL     1      26.181   5.855  49.155  1.00  0.00     0.074 A 
HETATM   23 CL1  UNL     1      26.569   7.383  48.364  1.00  0.00    -0.081 Cl
HETATM   24  C17 UNL     1      25.086   5.809  49.993  1.00  0.00     0.056 A 
ENDBRANCH  15  17
ENDBRANCH   8  15
ENDBRANCH   3   4
TORSDOF 5
ENDMDL
MODEL 4
REMARK VINA RESULT:      -8.0      2.250      3.565
REMARK  5 active torsions:
REMARK  status: ('A' for Active; 'I' for Inactive)
REMARK    1  A    between atoms: C3_3  and  C4_4 
REMARK    2  A    between atoms: C9_9  and  C10_10 
REMARK    3  A    between atoms: C10_10  and  O1_11 
REMARK    4  A    between atoms: C11_13  and  N2_14 
REMARK    5  A    between atoms: N2_14  and  C12_15 
ROOT
HETATM    1  C1  UNL     1      20.638   1.396  49.007  1.00  0.00     0.012 C 
HETATM    2  C2  UNL     1      20.058   1.064  50.011  1.00  0.00    -0.113 C 
HETATM    3  C3  UNL     1      19.342   0.648  51.214  1.00  0.00     0.132 C 
ENDROOT
BRANCH   3   4
HETATM    4  C4  UNL     1      20.319   0.149  52.203  1.00  0.00    -0.038 A 
HETATM    5  C5  UNL     1      21.644   0.570  52.047  1.00  0.00     0.026 A 
HETATM    6  C6  UNL     1      22.633   0.146  52.939  1.00  0.00     0.039 A 
HETATM    7  C7  UNL     1      22.215  -0.693  53.952  1.00  0.00     0.073 A 
HETATM    8  C11 UNL     1      23.890   0.118  53.374  1.00  0.00     0.141 A 
HETATM    9  C8  UNL     1      20.915  -1.122  54.124  1.00  0.00     0.042 A 
HETATM   10  N1  UNL     1      23.432  -0.755  54.421  1.00  0.00    -0.230 NA
HETATM   11  C9  UNL     1      19.950  -0.690  53.230  1.00  0.00    -0.025 A 
BRANCH  11  12
HETATM   12  C10 UNL     1      18.540  -1.088  53.328  1.00  0.00     0.203 C 
BRANCH  12  13
HETATM   13  O1  UNL     1      18.471  -2.255  54.097  1.00  0.00    -0.396 OA
HETATM   14  H8  UNL     1      18.067  -3.007  53.599  1.00  0.00     0.209 HD
ENDBRANCH  12  13
ENDBRANCH  11  12
BRANCH   8  15
HETATM   15  N2  UNL     1      25.075   0.742  52.897  1.00  0.00    -0.340 N 
HETATM   16  H9  UNL     1      25.028   1.583  52.297  1.00  0.00     0.167 HD
BRANCH  15  17
HETATM   17  C12 UNL     1      26.398   0.343  53.147  1.00  0.00     0.035 A 
HETATM   18  C13 UNL     1      26.845  -0.918  52.849  1.00  0.00     0.032 A 
HETATM   19  C14 UNL     1      28.147  -1.346  53.080  1.00  0.00     0.046 A 
HETATM   20  C15 UNL     1      28.970  -0.386  53.643  1.00  0.00     0.138 A 
HETATM   21  F1  UNL     1      30.256  -0.758  53.890  1.00  0.00    -0.204 F 
HETATM   22  C16 UNL     1      28.555   0.887  53.955  1.00  0.00     0.074 A 
HETATM   23 CL1  UNL     1      29.651   2.069  54.671  1.00  0.00    -0.081 Cl
HETATM   24  C17 UNL     1      27.252   1.266  53.706  1.00  0.00     0.056 A 
ENDBRANCH  15  17
ENDBRANCH   8  15
ENDBRANCH   3   4
TORSDOF 5
ENDMDL
MODEL 5
REMARK VINA RESULT:      -7.9      3.855      5.546
REMARK  5 active torsions:
REMARK  status: ('A' for Active; 'I' for Inactive)
REMARK    1  A    between atoms: C3_3  and  C4_4 
REMARK    2  A    between atoms: C9_9  and  C10_10 
REMARK    3  A    between atoms: C10_10  and  O1_11 
REMARK    4  A    between atoms: C11_13  and  N2_14 
REMARK    5  A    between atoms: N2_14  and  C12_15 
ROOT
HETATM    1  C1  UNL     1      27.031  -1.305  52.663  1.00  0.00     0.012 C 
HETATM    2  C2  UNL     1      26.163  -0.910  53.402  1.00  0.00    -0.113 C 
HETATM    3  C3  UNL     1      25.128  -0.416  54.306  1.00  0.00     0.132 C 
ENDROOT
BRANCH   3   4
HETATM    4  C4  UNL     1      23.950  -0.014  53.509  1.00  0.00    -0.038 A 
HETATM    5  C5  UNL     1      24.188   0.822  52.413  1.00  0.00     0.026 A 
HETATM    6  C6  UNL     1      23.130   1.250  51.605  1.00  0.00     0.039 A 
HETATM    7  C7  UNL     1      21.876   0.799  51.961  1.00  0.00     0.073 A 
HETATM    8  C11 UNL     1      22.641   1.931  50.571  1.00  0.00     0.141 A 
HETATM    9  C8  UNL     1      21.618  -0.024  53.037  1.00  0.00     0.042 A 
HETATM   10  N1  UNL     1      21.344   1.448  50.960  1.00  0.00    -0.230 NA
HETATM   11  C9  UNL     1      22.679  -0.438  53.826  1.00  0.00    -0.025 A 
BRANCH  11  12
HETATM   12  C10 UNL     1      22.511  -1.314  54.991  1.00  0.00     0.203 C 
BRANCH  12  13
HETATM   13  O1  UNL     1      21.171  -1.716  55.041  1.00  0.00    -0.396 OA
HETATM   14  H8  UNL     1      21.079  -2.691  55.171  1.00  0.00     0.209 HD
ENDBRANCH  12  13
ENDBRANCH  11  12
BRANCH   8  15
HETATM   15  N2  UNL     1      23.267   2.744  49.588  1.00  0.00    -0.340 N 
HETATM   16  H9  UNL     1      23.224   2.493  48.584  1.00  0.00     0.167 HD
BRANCH  15  17
HETATM   17  C12 UNL     1      23.989   3.928  49.807  1.00  0.00     0.035 A 
HETATM   18  C13 UNL     1      23.514   4.930  50.612  1.00  0.00     0.032 A 
HETATM   19  C14 UNL     1      24.202   6.114  50.852  1.00  0.00     0.046 A 
HETATM   20  C15 UNL     1      25.422   6.203  50.206  1.00  0.00     0.138 A 
HETATM   21  F1  UNL     1      26.135   7.346  50.410  1.00  0.00    -0.204 F 
HETATM   22  C16 UNL     1      25.929   5.219  49.392  1.00  0.00     0.074 A 
HETATM   23 CL1  UNL     1      27.494   5.389  48.595  1.00  0.00    -0.081 Cl
HETATM   24  C17 UNL     1      25.209   4.061  49.184  1.00  0.00     0.056 A 
ENDBRANCH  15  17
ENDBRANCH   8  15
ENDBRANCH   3   4
TORSDOF 5
ENDMDL
MODEL 6
REMARK VINA RESULT:      -7.7      4.909      6.654
REMARK  5 active torsions:
REMARK  status: ('A' for Active; 'I' for Inactive)
REMARK    1  A    between atoms: C3_3  and  C4_4 
REMARK    2  A    between atoms: C9_9  and  C10_10 
REMARK    3  A    between atoms: C10_10  and  O1_11 
REMARK    4  A    between atoms: C11_13  and  N2_14 
REMARK    5  A    between atoms: N2_14  and  C12_15 
ROOT
HETATM    1  C1  UNL     1      29.919  -0.610  53.472  1.00  0.00     0.012 C 
HETATM    2  C2  UNL     1      28.766  -0.915  53.286  1.00  0.00    -0.113 C 
HETATM    3  C3  UNL     1      27.371  -1.294  53.083  1.00  0.00     0.132 C 
ENDROOT
BRANCH   3   4
HETATM    4  C4  UNL     1      26.579  -0.077  52.809  1.00  0.00    -0.038 A 
HETATM    5  C5  UNL     1      26.926   0.655  51.669  1.00  0.00     0.026 A 
HETATM    6  C6  UNL     1      26.229   1.820  51.335  1.00  0.00     0.039 A 
HETATM    7  C7  UNL     1      25.206   2.180  52.189  1.00  0.00     0.073 A 
HETATM    8  C11 UNL     1      26.005   2.873  50.553  1.00  0.00     0.141 A 
HETATM    9  C8  UNL     1      24.849   1.474  53.319  1.00  0.00     0.042 A 
HETATM   10  N1  UNL     1      24.945   3.228  51.456  1.00  0.00    -0.230 NA
HETATM   11  C9  UNL     1      25.551   0.322  53.633  1.00  0.00    -0.025 A 
BRANCH  11  12
HETATM   12  C10 UNL     1      25.247  -0.500  54.811  1.00  0.00     0.203 C 
BRANCH  12  13
HETATM   13  O1  UNL     1      23.934  -0.966  54.687  1.00  0.00    -0.396 OA
HETATM   14  H8  UNL     1      23.637  -0.997  53.746  1.00  0.00     0.209 HD
ENDBRANCH  12  13
ENDBRANCH  11  12
BRANCH   8  15
HETATM   15  N2  UNL     1      26.634   3.321  49.360  1.00  0.00    -0.340 N 
HETATM   16  H9  UNL     1      26.980   2.647  48.655  1.00  0.00     0.167 HD
BRANCH  15  17
HETATM   17  C12 UNL     1      26.870   4.652  48.979  1.00  0.00     0.035 A 
HETATM   18  C13 UNL     1      28.105   5.082  48.567  1.00  0.00     0.032 A 
HETATM   19  C14 UNL     1      28.374   6.389  48.181  1.00  0.00     0.046 A 
HETATM   20  C15 UNL     1      27.282   7.238  48.246  1.00  0.00     0.138 A 
HETATM   21  F1  UNL     1      27.496   8.531  47.879  1.00  0.00    -0.204 F 
HETATM   22  C16 UNL     1      26.031   6.842  48.655  1.00  0.00     0.074 A 
HETATM   23 CL1  UNL     1      24.676   7.969  48.716  1.00  0.00    -0.081 Cl
HETATM   24  C17 UNL     1      25.813   5.532  49.028  1.00  0.00     0.056 A 
ENDBRANCH  15  17
ENDBRANCH   8  15
ENDBRANCH   3   4
TORSDOF 5
ENDMDL
MODEL 7
REMARK VINA RESULT:      -7.7      4.884      6.948
REMARK  5 active torsions:
REMARK  status: ('A' for Active; 'I' for Inactive)
REMARK    1  A    between atoms: C3_3  and  C4_4 
REMARK    2  A    between atoms: C9_9  and  C10_10 
REMARK    3  A    between atoms: C10_10  and  O1_11 
REMARK    4  A    between atoms: C11_13  and  N2_14 
REMARK    5  A    between atoms: N2_14  and  C12_15 
ROOT
HETATM    1  C1  UNL     1      29.422   5.483  48.213  1.00  0.00     0.012 C 
HETATM    2  C2  UNL     1      28.491   6.245  48.119  1.00  0.00    -0.113 C 
HETATM    3  C3  UNL     1      27.362   7.161  47.982  1.00  0.00     0.132 C 
ENDROOT
BRANCH   3   4
HETATM    4  C4  UNL     1      26.373   6.861  49.038  1.00  0.00    -0.038 A 
HETATM    5  C5  UNL     1      25.968   5.527  49.161  1.00  0.00     0.026 A 
HETATM    6  C6  UNL     1      25.036   5.156  50.134  1.00  0.00     0.039 A 
HETATM    7  C7  UNL     1      24.561   6.172  50.938  1.00  0.00     0.073 A 
HETATM    8  C11 UNL     1      24.287   4.251  50.761  1.00  0.00     0.141 A 
HETATM    9  C8  UNL     1      24.945   7.493  50.833  1.00  0.00     0.042 A 
HETATM   10  N1  UNL     1      23.807   5.326  51.585  1.00  0.00    -0.230 NA
HETATM   11  C9  UNL     1      25.870   7.841  49.863  1.00  0.00    -0.025 A 
BRANCH  11  12
HETATM   12  C10 UNL     1      26.344   9.218  49.673  1.00  0.00     0.203 C 
BRANCH  12  13
HETATM   13  O1  UNL     1      27.024   9.607  50.832  1.00  0.00    -0.396 OA
HETATM   14  H8  UNL     1      27.618  10.381  50.673  1.00  0.00     0.209 HD
ENDBRANCH  12  13
ENDBRANCH  11  12
BRANCH   8  15
HETATM   15  N2  UNL     1      24.137   2.850  50.576  1.00  0.00    -0.340 N 
HETATM   16  H9  UNL     1      23.687   2.471  49.724  1.00  0.00     0.167 HD
BRANCH  15  17
HETATM   17  C12 UNL     1      24.544   1.834  51.455  1.00  0.00     0.035 A 
HETATM   18  C13 UNL     1      25.858   1.467  51.582  1.00  0.00     0.032 A 
HETATM   19  C14 UNL     1      26.297   0.468  52.443  1.00  0.00     0.046 A 
HETATM   20  C15 UNL     1      25.289  -0.137  53.173  1.00  0.00     0.138 A 
HETATM   21  F1  UNL     1      25.669  -1.124  54.031  1.00  0.00    -0.204 F 
HETATM   22  C16 UNL     1      23.962   0.205  53.070  1.00  0.00     0.074 A 
HETATM   23 CL1  UNL     1      22.720  -0.602  54.029  1.00  0.00    -0.081 Cl
HETATM   24  C17 UNL     1      23.574   1.204  52.202  1.00  0.00     0.056 A 
ENDBRANCH  15  17
ENDBRANCH   8  15
ENDBRANCH   3   4
TORSDOF 5
ENDMDL
MODEL 8
REMARK VINA RESULT:      -7.5      6.680      7.794
REMARK  5 active torsions:
REMARK  status: ('A' for Active; 'I' for Inactive)
REMARK    1  A    between atoms: C3_3  and  C4_4 
REMARK    2  A    between atoms: C9_9  and  C10_10 
REMARK    3  A    between atoms: C10_10  and  O1_11 
REMARK    4  A    between atoms: C11_13  and  N2_14 
REMARK    5  A    between atoms: N2_14  and  C12_15 
ROOT
HETATM    1  C1  UNL     1      26.769   2.421  51.450  1.00  0.00     0.012 C 
HETATM    2  C2  UNL     1      26.146   3.049  50.629  1.00  0.00    -0.113 C 
HETATM    3  C3  UNL     1      25.371   3.806  49.649  1.00  0.00     0.132 C 
ENDROOT
BRANCH   3   4
HETATM    4  C4  UNL     1      26.007   5.126  49.455  1.00  0.00    -0.038 A 
HETATM    5  C5  UNL     1      27.176   5.154  48.689  1.00  0.00     0.026 A 
HETATM    6  C6  UNL     1      27.842   6.361  48.455  1.00  0.00     0.039 A 
HETATM    7  C7  UNL     1      27.274   7.485  49.019  1.00  0.00     0.073 A 
HETATM    8  C11 UNL     1      28.832   7.074  47.923  1.00  0.00     0.141 A 
HETATM    9  C8  UNL     1      26.122   7.480  49.778  1.00  0.00     0.042 A 
HETATM   10  N1  UNL     1      28.223   8.231  48.520  1.00  0.00    -0.230 NA
HETATM   11  C9  UNL     1      25.477   6.274  49.999  1.00  0.00    -0.025 A 
BRANCH  11  12
HETATM   12  C10 UNL     1      24.246   6.163  50.791  1.00  0.00     0.203 C 
BRANCH  12  13
HETATM   13  O1  UNL     1      24.473   6.771  52.031  1.00  0.00    -0.396 OA
HETATM   14  H8  UNL     1      24.010   6.300  52.767  1.00  0.00     0.209 HD
ENDBRANCH  12  13
ENDBRANCH  11  12
BRANCH   8  15
HETATM   15  N2  UNL     1      29.948   6.703  47.125  1.00  0.00    -0.340 N 
HETATM   16  H9  UNL     1      29.894   6.726  46.092  1.00  0.00     0.167 HD
BRANCH  15  17
HETATM   17  C12 UNL     1      31.206   6.276  47.580  1.00  0.00     0.035 A 
HETATM   18  C13 UNL     1      32.120   7.148  48.112  1.00  0.00     0.032 A 
HETATM   19  C14 UNL     1      33.373   6.762  48.572  1.00  0.00     0.046 A 
HETATM   20  C15 UNL     1      33.630   5.407  48.451  1.00  0.00     0.138 A 
HETATM   21  F1  UNL     1      34.846   4.978  48.888  1.00  0.00    -0.204 F 
HETATM   22  C16 UNL     1      32.738   4.505  47.922  1.00  0.00     0.074 A 
HETATM   23 CL1  UNL     1      33.122   2.788  47.794  1.00  0.00    -0.081 Cl
HETATM   24  C17 UNL     1      31.506   4.937  47.478  1.00  0.00     0.056 A 
ENDBRANCH  15  17
ENDBRANCH   8  15
ENDBRANCH   3   4
TORSDOF 5
ENDMDL
MODEL 9
REMARK VINA RESULT:      -7.5      4.686      7.612
REMARK  5 active torsions:
REMARK  status: ('A' for Active; 'I' for Inactive)
REMARK    1  A    between atoms: C3_3  and  C4_4 
REMARK    2  A    between atoms: C9_9  and  C10_10 
REMARK    3  A    between atoms: C10_10  and  O1_11 
REMARK    4  A    between atoms: C11_13  and  N2_14 
REMARK    5  A    between atoms: N2_14  and  C12_15 
ROOT
HETATM    1  C1  UNL     1      24.169   3.531  51.889  1.00  0.00     0.012 C 
HETATM    2  C2  UNL     1      24.709   2.452  51.901  1.00  0.00    -0.113 C 
HETATM    3  C3  UNL     1      25.384   1.157  51.918  1.00  0.00     0.132 C 
ENDROOT
BRANCH   3   4
HETATM    4  C4  UNL     1      24.825   0.341  53.016  1.00  0.00    -0.038 A 
HETATM    5  C5  UNL     1      23.438   0.166  53.026  1.00  0.00     0.026 A 
HETATM    6  C6  UNL     1      22.826  -0.592  54.029  1.00  0.00     0.039 A 
HETATM    7  C7  UNL     1      23.669  -1.136  54.976  1.00  0.00     0.073 A 
HETATM    8  C11 UNL     1      21.754  -1.121  54.614  1.00  0.00     0.141 A 
HETATM    9  C8  UNL     1      25.039  -0.976  54.986  1.00  0.00     0.042 A 
HETATM   10  N1  UNL     1      22.651  -1.678  55.590  1.00  0.00    -0.230 NA
HETATM   11  C9  UNL     1      25.626  -0.221  53.984  1.00  0.00    -0.025 A 
BRANCH  11  12
HETATM   12  C10 UNL     1      27.075   0.008  53.906  1.00  0.00     0.203 C 
BRANCH  12  13
HETATM   13  O1  UNL     1      27.630  -0.299  55.152  1.00  0.00    -0.396 OA
HETATM   14  H8  UNL     1      28.263   0.395  55.460  1.00  0.00     0.209 HD
ENDBRANCH  12  13
ENDBRANCH  11  12
BRANCH   8  15
HETATM   15  N2  UNL     1      20.372  -1.068  54.290  1.00  0.00    -0.340 N 
HETATM   16  H9  UNL     1      19.688  -1.677  54.773  1.00  0.00     0.167 HD
BRANCH  15  17
HETATM   17  C12 UNL     1      19.760  -0.243  53.332  1.00  0.00     0.035 A 
HETATM   18  C13 UNL     1      18.728  -0.683  52.547  1.00  0.00     0.032 A 
HETATM   19  C14 UNL     1      18.098   0.105  51.591  1.00  0.00     0.046 A 
HETATM   20  C15 UNL     1      18.603   1.391  51.493  1.00  0.00     0.138 A 
HETATM   21  F1  UNL     1      18.020   2.203  50.569  1.00  0.00    -0.204 F 
HETATM   22  C16 UNL     1      19.637   1.865  52.264  1.00  0.00     0.074 A 
HETATM   23 CL1  UNL     1      20.237   3.516  52.094  1.00  0.00    -0.081 Cl
HETATM   24  C17 UNL     1      20.230   1.044  53.200  1.00  0.00     0.056 A 
ENDBRANCH  15  17
ENDBRANCH   8  15
ENDBRANCH   3   4
TORSDOF 5
ENDMDL
