MODEL 1
REMARK VINA RESULT:      -7.0      0.000      0.000
REMARK  7 active torsions:
REMARK  status: ('A' for Active; 'I' for Inactive)
REMARK    1  A    between atoms: C1_1  and  C8_10 
REMARK    2  A    between atoms: C2_2  and  O1_3 
REMARK    3  A    between atoms: O1_3  and  C3_4 
REMARK    4  A    between atoms: C3_4  and  C4_5 
REMARK    5  A    between atoms: C8_10  and  C9_11 
REMARK    6  A    between atoms: C9_11  and  C10_12 
REMARK    7  A    between atoms: C10_12  and  C11_13 
ROOT
HETATM    1  C10 UNL     1      25.840   2.121  52.089  1.00  0.00     0.036 C 
ENDROOT
BRANCH   1   2
HETATM    2  C9  UNL     1      24.723   2.844  52.755  1.00  0.00     0.008 C 
BRANCH   2   3
HETATM    3  C8  UNL     1      23.780   3.435  51.708  1.00  0.00     0.029 C 
BRANCH   3   4
HETATM    4  C1  UNL     1      23.788   2.527  50.536  1.00  0.00    -0.003 C 
HETATM    5  C2  UNL     1      22.731   1.759  50.351  1.00  0.00     0.130 C 
BRANCH   5   6
HETATM    6  O1  UNL     1      21.732   1.917  51.315  1.00  0.00    -0.361 OA
BRANCH   6   7
HETATM    7  C3  UNL     1      21.224   0.718  51.869  1.00  0.00     0.206 C 
BRANCH   7   8
HETATM    8  C4  UNL     1      21.783   0.587  53.272  1.00  0.00     0.145 C 
HETATM    9  C5  UNL     1      22.907  -0.422  53.331  1.00  0.00     0.036 C 
HETATM   10  C6  UNL     1      22.592  -1.106  54.647  1.00  0.00     0.029 C 
HETATM   11  C7  UNL     1      21.063  -1.079  54.575  1.00  0.00     0.168 C 
HETATM   12  O2  UNL     1      20.794   0.211  54.139  1.00  0.00    -0.384 OA
ENDBRANCH   7   8
ENDBRANCH   6   7
ENDBRANCH   5   6
ENDBRANCH   3   4
ENDBRANCH   2   3
ENDBRANCH   1   2
BRANCH   1  13
HETATM   13  C11 UNL     1      26.212   0.823  52.763  1.00  0.00    -0.063 C 
HETATM   14  C12 UNL     1      26.519  -0.245  52.017  1.00  0.00     0.087 C 
HETATM   15  N1  UNL     1      26.910  -1.619  52.261  1.00  0.00    -0.381 N 
HETATM   16  C13 UNL     1      27.711  -2.421  53.123  1.00  0.00     0.271 C 
HETATM   17  H19 UNL     1      26.380  -2.182  51.518  1.00  0.00     0.160 HD
HETATM   18  N2  UNL     1      29.098  -2.110  53.191  1.00  0.00    -0.262 NA
HETATM   19  C14 UNL     1      29.677  -1.083  53.647  1.00  0.00     0.252 C 
HETATM   20  N3  UNL     1      28.361  -0.707  53.899  1.00  0.00    -0.149 NA
HETATM   21  N4  UNL     1      27.952  -0.301  54.988  1.00  0.00    -0.192 NA
HETATM   22  C15 UNL     1      26.554   0.065  55.138  1.00  0.00     0.178 C 
HETATM   23  C16 UNL     1      26.138   1.139  54.193  1.00  0.00     0.059 C 
ENDBRANCH   1  13
TORSDOF 7
ENDMDL
MODEL 2
REMARK VINA RESULT:      -6.9      2.201      4.630
REMARK  7 active torsions:
REMARK  status: ('A' for Active; 'I' for Inactive)
REMARK    1  A    between atoms: C1_1  and  C8_10 
REMARK    2  A    between atoms: C2_2  and  O1_3 
REMARK    3  A    between atoms: O1_3  and  C3_4 
REMARK    4  A    between atoms: C3_4  and  C4_5 
REMARK    5  A    between atoms: C8_10  and  C9_11 
REMARK    6  A    between atoms: C9_11  and  C10_12 
REMARK    7  A    between atoms: C10_12  and  C11_13 
ROOT
HETATM    1  C10 UNL     1      23.664   0.236  53.851  1.00  0.00     0.036 C 
ENDROOT
BRANCH   1   2
HETATM    2  C9  UNL     1      22.770  -0.162  52.729  1.00  0.00     0.008 C 
BRANCH   2   3
HETATM    3  C8  UNL     1      22.000   1.053  52.214  1.00  0.00     0.029 C 
BRANCH   3   4
HETATM    4  C1  UNL     1      22.352   1.233  50.785  1.00  0.00    -0.003 C 
HETATM    5  C2  UNL     1      23.035   2.313  50.455  1.00  0.00     0.130 C 
BRANCH   5   6
HETATM    6  O1  UNL     1      23.334   3.153  51.532  1.00  0.00    -0.361 OA
BRANCH   6   7
HETATM    7  C3  UNL     1      24.208   4.227  51.244  1.00  0.00     0.206 C 
BRANCH   7   8
HETATM    8  C4  UNL     1      24.956   3.882  49.971  1.00  0.00     0.145 C 
HETATM    9  C5  UNL     1      26.394   3.511  50.254  1.00  0.00     0.036 C 
HETATM   10  C6  UNL     1      27.087   4.197  49.092  1.00  0.00     0.029 C 
HETATM   11  C7  UNL     1      26.213   5.449  48.993  1.00  0.00     0.168 C 
HETATM   12  O2  UNL     1      24.926   4.941  49.106  1.00  0.00    -0.384 OA
ENDBRANCH   7   8
ENDBRANCH   6   7
ENDBRANCH   5   6
ENDBRANCH   3   4
ENDBRANCH   2   3
ENDBRANCH   1   2
BRANCH   1  13
HETATM   13  C11 UNL     1      25.041   0.667  53.407  1.00  0.00    -0.063 C 
HETATM   14  C12 UNL     1      25.576   1.787  53.909  1.00  0.00     0.087 C 
HETATM   15  N1  UNL     1      26.817   2.520  53.750  1.00  0.00    -0.381 N 
HETATM   16  C13 UNL     1      28.218   2.331  53.590  1.00  0.00     0.271 C 
HETATM   17  H19 UNL     1      26.517   3.550  53.751  1.00  0.00     0.160 HD
HETATM   18  N2  UNL     1      28.890   1.593  54.604  1.00  0.00    -0.262 NA
HETATM   19  C14 UNL     1      28.787   0.375  54.924  1.00  0.00     0.252 C 
HETATM   20  N3  UNL     1      27.860   0.396  53.886  1.00  0.00    -0.149 NA
HETATM   21  N4  UNL     1      27.849  -0.404  52.950  1.00  0.00    -0.192 NA
HETATM   22  C15 UNL     1      26.831  -0.289  51.919  1.00  0.00     0.178 C 
HETATM   23  C16 UNL     1      25.448  -0.381  52.467  1.00  0.00     0.059 C 
ENDBRANCH   1  13
TORSDOF 7
ENDMDL
MODEL 3
REMARK VINA RESULT:      -6.7      1.719      3.968
REMARK  7 active torsions:
REMARK  status: ('A' for Active; 'I' for Inactive)
REMARK    1  A    between atoms: C1_1  and  C8_10 
REMARK    2  A    between atoms: C2_2  and  O1_3 
REMARK    3  A    between atoms: O1_3  and  C3_4 
REMARK    4  A    between atoms: C3_4  and  C4_5 
REMARK    5  A    between atoms: C8_10  and  C9_11 
REMARK    6  A    between atoms: C9_11  and  C10_12 
REMARK    7  A    between atoms: C10_12  and  C11_13 
ROOT
HETATM    1  C10 UNL     1      23.678   0.952  53.616  1.00  0.00     0.036 C 
ENDROOT
BRANCH   1   2
HETATM    2  C9  UNL     1      23.123  -0.331  53.107  1.00  0.00     0.008 C 
BRANCH   2   3
HETATM    3  C8  UNL     1      21.861  -0.069  52.286  1.00  0.00     0.029 C 
BRANCH   3   4
HETATM    4  C1  UNL     1      20.863   0.555  53.186  1.00  0.00    -0.003 C 
HETATM    5  C2  UNL     1      20.410   1.752  52.860  1.00  0.00     0.130 C 
BRANCH   5   6
HETATM    6  O1  UNL     1      20.954   2.268  51.681  1.00  0.00    -0.361 OA
BRANCH   6   7
HETATM    7  C3  UNL     1      21.539   3.553  51.791  1.00  0.00     0.206 C 
BRANCH   7   8
HETATM    8  C4  UNL     1      22.429   3.758  50.581  1.00  0.00     0.145 C 
HETATM    9  C5  UNL     1      23.204   2.505  50.243  1.00  0.00     0.036 C 
HETATM   10  C6  UNL     1      24.548   3.105  49.879  1.00  0.00     0.029 C 
HETATM   11  C7  UNL     1      24.586   4.249  50.894  1.00  0.00     0.168 C 
HETATM   12  O2  UNL     1      23.306   4.781  50.812  1.00  0.00    -0.384 OA
ENDBRANCH   7   8
ENDBRANCH   6   7
ENDBRANCH   5   6
ENDBRANCH   3   4
ENDBRANCH   2   3
ENDBRANCH   1   2
BRANCH   1  13
HETATM   13  C11 UNL     1      25.134   1.162  53.276  1.00  0.00    -0.063 C 
HETATM   14  C12 UNL     1      25.812   2.157  53.860  1.00  0.00     0.087 C 
HETATM   15  N1  UNL     1      27.165   2.677  53.810  1.00  0.00    -0.381 N 
HETATM   16  C13 UNL     1      28.523   2.260  53.725  1.00  0.00     0.271 C 
HETATM   17  H19 UNL     1      27.040   3.742  53.840  1.00  0.00     0.160 HD
HETATM   18  N2  UNL     1      28.995   1.385  54.742  1.00  0.00    -0.262 NA
HETATM   19  C14 UNL     1      28.671   0.191  54.999  1.00  0.00     0.252 C 
HETATM   20  N3  UNL     1      27.831   0.404  53.909  1.00  0.00    -0.149 NA
HETATM   21  N4  UNL     1      27.750  -0.349  52.938  1.00  0.00    -0.192 NA
HETATM   22  C15 UNL     1      26.836  -0.027  51.855  1.00  0.00     0.178 C 
HETATM   23  C16 UNL     1      25.424   0.094  52.314  1.00  0.00     0.059 C 
ENDBRANCH   1  13
TORSDOF 7
ENDMDL
MODEL 4
REMARK VINA RESULT:      -6.6      1.840      3.902
REMARK  7 active torsions:
REMARK  status: ('A' for Active; 'I' for Inactive)
REMARK    1  A    between atoms: C1_1  and  C8_10 
REMARK    2  A    between atoms: C2_2  and  O1_3 
REMARK    3  A    between atoms: O1_3  and  C3_4 
REMARK    4  A    between atoms: C3_4  and  C4_5 
REMARK    5  A    between atoms: C8_10  and  C9_11 
REMARK    6  A    between atoms: C9_11  and  C10_12 
REMARK    7  A    between atoms: C10_12  and  C11_13 
ROOT
HETATM    1  C10 UNL     1      23.773   0.868  53.517  1.00  0.00     0.036 C 
ENDROOT
BRANCH   1   2
HETATM    2  C9  UNL     1      23.484  -0.524  53.956  1.00  0.00     0.008 C 
BRANCH   2   3
HETATM    3  C8  UNL     1      22.210  -1.034  53.285  1.00  0.00     0.029 C 
BRANCH   3   4
HETATM    4  C1  UNL     1      21.092  -0.840  54.239  1.00  0.00    -0.003 C 
HETATM    5  C2  UNL     1      20.261   0.161  54.013  1.00  0.00     0.130 C 
BRANCH   5   6
HETATM    6  O1  UNL     1      20.567   0.912  52.874  1.00  0.00    -0.361 OA
BRANCH   6   7
HETATM    7  C3  UNL     1      19.480   1.173  52.006  1.00  0.00     0.206 C 
BRANCH   7   8
HETATM    8  C4  UNL     1      19.841   0.627  50.639  1.00  0.00     0.145 C 
HETATM    9  C5  UNL     1      21.330   0.697  50.389  1.00  0.00     0.036 C 
HETATM   10  C6  UNL     1      21.343   1.125  48.934  1.00  0.00     0.029 C 
HETATM   11  C7  UNL     1      20.127   2.054  48.944  1.00  0.00     0.168 C 
HETATM   12  O2  UNL     1      19.187   1.330  49.665  1.00  0.00    -0.384 OA
ENDBRANCH   7   8
ENDBRANCH   6   7
ENDBRANCH   5   6
ENDBRANCH   3   4
ENDBRANCH   2   3
ENDBRANCH   1   2
BRANCH   1  13
HETATM   13  C11 UNL     1      25.229   1.118  53.210  1.00  0.00    -0.063 C 
HETATM   14  C12 UNL     1      25.865   2.135  53.806  1.00  0.00     0.087 C 
HETATM   15  N1  UNL     1      27.203   2.693  53.785  1.00  0.00    -0.381 N 
HETATM   16  C13 UNL     1      28.574   2.316  53.735  1.00  0.00     0.271 C 
HETATM   17  H19 UNL     1      27.047   3.754  53.808  1.00  0.00     0.160 HD
HETATM   18  N2  UNL     1      29.047   1.458  54.767  1.00  0.00    -0.262 NA
HETATM   19  C14 UNL     1      28.751   0.256  55.021  1.00  0.00     0.252 C 
HETATM   20  N3  UNL     1      27.931   0.441  53.911  1.00  0.00    -0.149 NA
HETATM   21  N4  UNL     1      27.895  -0.318  52.941  1.00  0.00    -0.192 NA
HETATM   22  C15 UNL     1      26.999  -0.026  51.835  1.00  0.00     0.178 C 
HETATM   23  C16 UNL     1      25.573   0.056  52.260  1.00  0.00     0.059 C 
ENDBRANCH   1  13
TORSDOF 7
ENDMDL
MODEL 5
REMARK VINA RESULT:      -6.5      3.971      6.370
REMARK  7 active torsions:
REMARK  status: ('A' for Active; 'I' for Inactive)
REMARK    1  A    between atoms: C1_1  and  C8_10 
REMARK    2  A    between atoms: C2_2  and  O1_3 
REMARK    3  A    between atoms: O1_3  and  C3_4 
REMARK    4  A    between atoms: C3_4  and  C4_5 
REMARK    5  A    between atoms: C8_10  and  C9_11 
REMARK    6  A    between atoms: C9_11  and  C10_12 
REMARK    7  A    between atoms: C10_12  and  C11_13 
ROOT
HETATM    1  C10 UNL     1      24.485   1.232  51.986  1.00  0.00     0.036 C 
ENDROOT
BRANCH   1   2
HETATM    2  C9  UNL     1      23.341   0.892  52.875  1.00  0.00     0.008 C 
BRANCH   2   3
HETATM    3  C8  UNL     1      23.280  -0.617  53.102  1.00  0.00     0.029 C 
BRANCH   3   4
HETATM    4  C1  UNL     1      22.763  -0.844  54.472  1.00  0.00    -0.003 C 
HETATM    5  C2  UNL     1      23.635  -1.169  55.409  1.00  0.00     0.130 C 
BRANCH   5   6
HETATM    6  O1  UNL     1      24.955  -1.253  54.957  1.00  0.00    -0.361 OA
BRANCH   6   7
HETATM    7  C3  UNL     1      25.865  -0.350  55.558  1.00  0.00     0.206 C 
BRANCH   7   8
HETATM    8  C4  UNL     1      26.748   0.211  54.461  1.00  0.00     0.145 C 
HETATM    9  C5  UNL     1      27.102  -0.844  53.438  1.00  0.00     0.036 C 
HETATM   10  C6  UNL     1      28.556  -0.499  53.181  1.00  0.00     0.029 C 
HETATM   11  C7  UNL     1      28.959  -0.078  54.596  1.00  0.00     0.168 C 
HETATM   12  O2  UNL     1      27.897   0.721  54.998  1.00  0.00    -0.384 OA
ENDBRANCH   7   8
ENDBRANCH   6   7
ENDBRANCH   5   6
ENDBRANCH   3   4
ENDBRANCH   2   3
ENDBRANCH   1   2
BRANCH   1  13
HETATM   13  C11 UNL     1      24.626   2.709  51.715  1.00  0.00    -0.063 C 
HETATM   14  C12 UNL     1      25.579   3.140  50.879  1.00  0.00     0.087 C 
HETATM   15  N1  UNL     1      26.032   4.421  50.373  1.00  0.00    -0.381 N 
HETATM   16  C13 UNL     1      25.550   5.683  49.925  1.00  0.00     0.271 C 
HETATM   17  H19 UNL     1      27.101   4.338  50.362  1.00  0.00     0.160 HD
HETATM   18  N2  UNL     1      24.640   5.675  48.831  1.00  0.00    -0.262 NA
HETATM   19  C14 UNL     1      23.460   5.227  48.760  1.00  0.00     0.252 C 
HETATM   20  N3  UNL     1      23.728   4.899  50.087  1.00  0.00    -0.149 NA
HETATM   21  N4  UNL     1      22.991   5.180  51.033  1.00  0.00    -0.192 NA
HETATM   22  C15 UNL     1      23.371   4.786  52.379  1.00  0.00     0.178 C 
HETATM   23  C16 UNL     1      23.557   3.314  52.515  1.00  0.00     0.059 C 
ENDBRANCH   1  13
TORSDOF 7
ENDMDL
MODEL 6
REMARK VINA RESULT:      -6.4      1.327      1.916
REMARK  7 active torsions:
REMARK  status: ('A' for Active; 'I' for Inactive)
REMARK    1  A    between atoms: C1_1  and  C8_10 
REMARK    2  A    between atoms: C2_2  and  O1_3 
REMARK    3  A    between atoms: O1_3  and  C3_4 
REMARK    4  A    between atoms: C3_4  and  C4_5 
REMARK    5  A    between atoms: C8_10  and  C9_11 
REMARK    6  A    between atoms: C9_11  and  C10_12 
REMARK    7  A    between atoms: C10_12  and  C11_13 
ROOT
HETATM    1  C10 UNL     1      25.945   2.293  52.096  1.00  0.00     0.036 C 
ENDROOT
BRANCH   1   2
HETATM    2  C9  UNL     1      26.771   2.566  50.888  1.00  0.00     0.008 C 
BRANCH   2   3
HETATM    3  C8  UNL     1      25.893   3.116  49.765  1.00  0.00     0.029 C 
BRANCH   3   4
HETATM    4  C1  UNL     1      25.092   4.229  50.326  1.00  0.00    -0.003 C 
HETATM    5  C2  UNL     1      23.780   4.170  50.187  1.00  0.00     0.130 C 
BRANCH   5   6
HETATM    6  O1  UNL     1      23.328   3.034  49.510  1.00  0.00    -0.361 OA
BRANCH   6   7
HETATM    7  C3  UNL     1      22.154   2.440  50.033  1.00  0.00     0.206 C 
BRANCH   7   8
HETATM    8  C4  UNL     1      22.334   2.309  51.532  1.00  0.00     0.145 C 
HETATM    9  C5  UNL     1      22.555   0.871  51.942  1.00  0.00     0.036 C 
HETATM   10  C6  UNL     1      21.726   0.818  53.211  1.00  0.00     0.029 C 
HETATM   11  C7  UNL     1      20.577   1.737  52.788  1.00  0.00     0.168 C 
HETATM   12  O2  UNL     1      21.235   2.798  52.182  1.00  0.00    -0.384 OA
ENDBRANCH   7   8
ENDBRANCH   6   7
ENDBRANCH   5   6
ENDBRANCH   3   4
ENDBRANCH   2   3
ENDBRANCH   1   2
BRANCH   1  13
HETATM   13  C11 UNL     1      26.233   0.958  52.739  1.00  0.00    -0.063 C 
HETATM   14  C12 UNL     1      26.521  -0.098  51.969  1.00  0.00     0.087 C 
HETATM   15  N1  UNL     1      26.842  -1.496  52.181  1.00  0.00    -0.381 N 
HETATM   16  C13 UNL     1      27.574  -2.360  53.044  1.00  0.00     0.271 C 
HETATM   17  H19 UNL     1      26.316  -2.010  51.400  1.00  0.00     0.160 HD
HETATM   18  N2  UNL     1      28.969  -2.114  53.172  1.00  0.00    -0.262 NA
HETATM   19  C14 UNL     1      29.576  -1.130  53.683  1.00  0.00     0.252 C 
HETATM   20  N3  UNL     1      28.269  -0.703  53.900  1.00  0.00    -0.149 NA
HETATM   21  N4  UNL     1      27.838  -0.314  54.986  1.00  0.00    -0.192 NA
HETATM   22  C15 UNL     1      26.452   0.110  55.098  1.00  0.00     0.178 C 
HETATM   23  C16 UNL     1      26.120   1.231  54.175  1.00  0.00     0.059 C 
ENDBRANCH   1  13
TORSDOF 7
ENDMDL
MODEL 7
REMARK VINA RESULT:      -6.3      5.905      7.921
REMARK  7 active torsions:
REMARK  status: ('A' for Active; 'I' for Inactive)
REMARK    1  A    between atoms: C1_1  and  C8_10 
REMARK    2  A    between atoms: C2_2  and  O1_3 
REMARK    3  A    between atoms: O1_3  and  C3_4 
REMARK    4  A    between atoms: C3_4  and  C4_5 
REMARK    5  A    between atoms: C8_10  and  C9_11 
REMARK    6  A    between atoms: C9_11  and  C10_12 
REMARK    7  A    between atoms: C10_12  and  C11_13 
ROOT
HETATM    1  C10 UNL     1      25.618   4.527  49.745  1.00  0.00     0.036 C 
ENDROOT
BRANCH   1   2
HETATM    2  C9  UNL     1      26.644   3.462  49.575  1.00  0.00     0.008 C 
BRANCH   2   3
HETATM    3  C8  UNL     1      26.580   2.480  50.743  1.00  0.00     0.029 C 
BRANCH   3   4
HETATM    4  C1  UNL     1      25.265   2.654  51.403  1.00  0.00    -0.003 C 
HETATM    5  C2  UNL     1      25.194   2.414  52.699  1.00  0.00     0.130 C 
BRANCH   5   6
HETATM    6  O1  UNL     1      26.406   2.019  53.275  1.00  0.00    -0.361 OA
BRANCH   6   7
HETATM    7  C3  UNL     1      26.369   0.804  53.998  1.00  0.00     0.206 C 
BRANCH   7   8
HETATM    8  C4  UNL     1      27.780   0.504  54.465  1.00  0.00     0.145 C 
HETATM    9  C5  UNL     1      28.811   1.170  53.583  1.00  0.00     0.036 C 
HETATM   10  C6  UNL     1      29.852   0.070  53.501  1.00  0.00     0.029 C 
HETATM   11  C7  UNL     1      28.921  -1.144  53.479  1.00  0.00     0.168 C 
HETATM   12  O2  UNL     1      27.997  -0.846  54.471  1.00  0.00    -0.384 OA
ENDBRANCH   7   8
ENDBRANCH   6   7
ENDBRANCH   5   6
ENDBRANCH   3   4
ENDBRANCH   2   3
ENDBRANCH   1   2
BRANCH   1  13
HETATM   13  C11 UNL     1      25.981   5.832  49.077  1.00  0.00    -0.063 C 
HETATM   14  C12 UNL     1      25.115   6.852  49.108  1.00  0.00     0.087 C 
HETATM   15  N1  UNL     1      25.079   8.213  48.609  1.00  0.00    -0.381 N 
HETATM   16  C13 UNL     1      25.898   9.362  48.425  1.00  0.00     0.271 C 
HETATM   17  H19 UNL     1      24.071   8.341  48.265  1.00  0.00     0.160 HD
HETATM   18  N2  UNL     1      26.525   9.901  49.583  1.00  0.00    -0.262 NA
HETATM   19  C14 UNL     1      27.424   9.408  50.323  1.00  0.00     0.252 C 
HETATM   20  N3  UNL     1      27.303   8.359  49.415  1.00  0.00    -0.149 NA
HETATM   21  N4  UNL     1      28.252   7.837  48.829  1.00  0.00    -0.192 NA
HETATM   22  C15 UNL     1      28.009   6.745  47.901  1.00  0.00     0.178 C 
HETATM   23  C16 UNL     1      27.325   5.588  48.544  1.00  0.00     0.059 C 
ENDBRANCH   1  13
TORSDOF 7
ENDMDL
MODEL 8
REMARK VINA RESULT:      -6.1      1.371      2.398
REMARK  7 active torsions:
REMARK  status: ('A' for Active; 'I' for Inactive)
REMARK    1  A    between atoms: C1_1  and  C8_10 
REMARK    2  A    between atoms: C2_2  and  O1_3 
REMARK    3  A    between atoms: O1_3  and  C3_4 
REMARK    4  A    between atoms: C3_4  and  C4_5 
REMARK    5  A    between atoms: C8_10  and  C9_11 
REMARK    6  A    between atoms: C9_11  and  C10_12 
REMARK    7  A    between atoms: C10_12  and  C11_13 
ROOT
HETATM    1  C10 UNL     1      23.783   3.237  53.078  1.00  0.00     0.036 C 
ENDROOT
BRANCH   1   2
HETATM    2  C9  UNL     1      23.502   4.136  51.926  1.00  0.00     0.008 C 
BRANCH   2   3
HETATM    3  C8  UNL     1      22.032   4.030  51.523  1.00  0.00     0.029 C 
BRANCH   3   4
HETATM    4  C1  UNL     1      21.961   3.183  50.308  1.00  0.00    -0.003 C 
HETATM    5  C2  UNL     1      21.166   2.130  50.342  1.00  0.00     0.130 C 
BRANCH   5   6
HETATM    6  O1  UNL     1      20.490   1.963  51.554  1.00  0.00    -0.361 OA
BRANCH   6   7
HETATM    7  C3  UNL     1      20.522   0.655  52.095  1.00  0.00     0.206 C 
BRANCH   7   8
HETATM    8  C4  UNL     1      21.516   0.657  53.240  1.00  0.00     0.145 C 
HETATM    9  C5  UNL     1      22.711  -0.218  52.940  1.00  0.00     0.036 C 
HETATM   10  C6  UNL     1      22.923  -0.867  54.294  1.00  0.00     0.029 C 
HETATM   11  C7  UNL     1      21.462  -1.013  54.724  1.00  0.00     0.168 C 
HETATM   12  O2  UNL     1      20.913   0.217  54.386  1.00  0.00    -0.384 OA
ENDBRANCH   7   8
ENDBRANCH   6   7
ENDBRANCH   5   6
ENDBRANCH   3   4
ENDBRANCH   2   3
ENDBRANCH   1   2
BRANCH   1  13
HETATM   13  C11 UNL     1      25.130   2.559  53.006  1.00  0.00    -0.063 C 
HETATM   14  C12 UNL     1      25.708   2.117  54.129  1.00  0.00     0.087 C 
HETATM   15  N1  UNL     1      26.943   1.443  54.479  1.00  0.00    -0.381 N 
HETATM   16  C13 UNL     1      27.833   0.427  54.029  1.00  0.00     0.271 C 
HETATM   17  H19 UNL     1      27.254   1.916  55.390  1.00  0.00     0.160 HD
HETATM   18  N2  UNL     1      27.286  -0.872  53.836  1.00  0.00    -0.262 NA
HETATM   19  C14 UNL     1      26.436  -1.277  52.993  1.00  0.00     0.252 C 
HETATM   20  N3  UNL     1      26.488   0.060  52.609  1.00  0.00    -0.149 NA
HETATM   21  N4  UNL     1      26.659   0.442  51.450  1.00  0.00    -0.192 NA
HETATM   22  C15 UNL     1      26.696   1.866  51.163  1.00  0.00     0.178 C 
HETATM   23  C16 UNL     1      25.447   2.566  51.575  1.00  0.00     0.059 C 
ENDBRANCH   1  13
TORSDOF 7
ENDMDL
MODEL 9
REMARK VINA RESULT:      -6.1      2.955      4.162
REMARK  7 active torsions:
REMARK  status: ('A' for Active; 'I' for Inactive)
REMARK    1  A    between atoms: C1_1  and  C8_10 
REMARK    2  A    between atoms: C2_2  and  O1_3 
REMARK    3  A    between atoms: O1_3  and  C3_4 
REMARK    4  A    between atoms: C3_4  and  C4_5 
REMARK    5  A    between atoms: C8_10  and  C9_11 
REMARK    6  A    between atoms: C9_11  and  C10_12 
REMARK    7  A    between atoms: C10_12  and  C11_13 
ROOT
HETATM    1  C10 UNL     1      23.702   0.915  53.436  1.00  0.00     0.036 C 
ENDROOT
BRANCH   1   2
HETATM    2  C9  UNL     1      23.324  -0.523  53.519  1.00  0.00     0.008 C 
BRANCH   2   3
HETATM    3  C8  UNL     1      21.806  -0.672  53.437  1.00  0.00     0.029 C 
BRANCH   3   4
HETATM    4  C1  UNL     1      21.217   0.685  53.522  1.00  0.00    -0.003 C 
HETATM    5  C2  UNL     1      20.063   0.890  52.915  1.00  0.00     0.130 C 
BRANCH   5   6
HETATM    6  O1  UNL     1      19.551  -0.235  52.262  1.00  0.00    -0.361 OA
BRANCH   6   7
HETATM    7  C3  UNL     1      18.582   0.026  51.265  1.00  0.00     0.206 C 
BRANCH   7   8
HETATM    8  C4  UNL     1      17.216  -0.086  51.912  1.00  0.00     0.145 C 
HETATM    9  C5  UNL     1      17.054  -1.397  52.647  1.00  0.00     0.036 C 
HETATM   10  C6  UNL     1      15.622  -1.740  52.284  1.00  0.00     0.029 C 
HETATM   11  C7  UNL     1      15.601  -1.207  50.849  1.00  0.00     0.168 C 
HETATM   12  O2  UNL     1      16.236   0.022  50.964  1.00  0.00    -0.384 OA
ENDBRANCH   7   8
ENDBRANCH   6   7
ENDBRANCH   5   6
ENDBRANCH   3   4
ENDBRANCH   2   3
ENDBRANCH   1   2
BRANCH   1  13
HETATM   13  C11 UNL     1      25.168   1.142  53.158  1.00  0.00    -0.063 C 
HETATM   14  C12 UNL     1      25.815   2.129  53.789  1.00  0.00     0.087 C 
HETATM   15  N1  UNL     1      27.164   2.660  53.804  1.00  0.00    -0.381 N 
HETATM   16  C13 UNL     1      28.528   2.255  53.765  1.00  0.00     0.271 C 
HETATM   17  H19 UNL     1      27.030   3.723  53.852  1.00  0.00     0.160 HD
HETATM   18  N2  UNL     1      28.967   1.361  54.781  1.00  0.00    -0.262 NA
HETATM   19  C14 UNL     1      28.642   0.160  55.000  1.00  0.00     0.252 C 
HETATM   20  N3  UNL     1      27.844   0.390  53.882  1.00  0.00    -0.149 NA
HETATM   21  N4  UNL     1      27.808  -0.342  52.893  1.00  0.00    -0.192 NA
HETATM   22  C15 UNL     1      26.935  -0.004  51.781  1.00  0.00     0.178 C 
HETATM   23  C16 UNL     1      25.505   0.097  52.186  1.00  0.00     0.059 C 
ENDBRANCH   1  13
TORSDOF 7
ENDMDL
