MODEL 1
REMARK VINA RESULT:      -8.8      0.000      0.000
REMARK  5 active torsions:
REMARK  status: ('A' for Active; 'I' for Inactive)
REMARK    1  A    between atoms: C2_4  and  C3_5 
REMARK       I    between atoms: C3_5  and  N2_7 
REMARK    2  A    between atoms: N2_7  and  C4_8 
REMARK    3  A    between atoms: C9_13  and  C10_14 
REMARK    4  A    between atoms: C10_14  and  N3_16 
REMARK    5  A    between atoms: N3_16  and  C11_17 
ROOT
HETATM    1  C4  UNL     1      24.045   0.734  52.949  1.00  0.00     0.017 A 
HETATM    2  C5  UNL     1      23.318   1.134  51.825  1.00  0.00     0.058 A 
HETATM    3  C6  UNL     1      22.705   0.194  52.756  1.00  0.00     0.037 A 
HETATM    4  C7  UNL     1      21.487  -0.148  52.362  1.00  0.00     0.012 A 
HETATM    5  C8  UNL     1      21.112   0.528  51.092  1.00  0.00     0.045 A 
HETATM    6  C9  UNL     1      22.326   1.334  50.802  1.00  0.00    -0.024 A 
ENDROOT
BRANCH   1   7
HETATM    7  N2  UNL     1      25.267   0.856  53.668  1.00  0.00    -0.331 N 
HETATM    8  C3  UNL     1      26.247  -0.151  53.493  1.00  0.00     0.246 C 
HETATM    9  O2  UNL     1      25.996  -1.108  52.710  1.00  0.00    -0.271 OA
HETATM   10  H3  UNL     1      25.413   1.672  54.302  1.00  0.00     0.168 HD
BRANCH   8  11
HETATM   11  C2  UNL     1      27.505   0.001  54.254  1.00  0.00     0.203 C 
HETATM   12  N1  UNL     1      27.778   1.395  54.485  1.00  0.00    -0.321 N 
HETATM   13  C1  UNL     1      29.201   1.470  54.622  1.00  0.00     0.361 C 
HETATM   14  H1  UNL     1      27.132   2.227  54.550  1.00  0.00     0.165 HD
HETATM   15  O1  UNL     1      29.898   2.411  55.038  1.00  0.00    -0.238 OA
HETATM   16  O3  UNL     1      29.744   0.254  54.195  1.00  0.00    -0.301 OA
HETATM   17  C17 UNL     1      28.732  -0.434  53.483  1.00  0.00     0.215 C 
ENDBRANCH   8  11
ENDBRANCH   1   7
BRANCH   6  18
HETATM   18  C10 UNL     1      22.492   2.131  49.752  1.00  0.00     0.107 C 
HETATM   19 CL1  UNL     1      22.055   1.561  48.154  1.00  0.00    -0.064 Cl
BRANCH  18  20
HETATM   20  N3  UNL     1      23.014   3.423  49.911  1.00  0.00    -0.347 N 
HETATM   21  H7  UNL     1      22.406   4.185  50.277  1.00  0.00     0.167 HD
BRANCH  20  22
HETATM   22  C11 UNL     1      24.355   3.846  49.618  1.00  0.00     0.033 A 
HETATM   23  C12 UNL     1      24.381   5.131  49.117  1.00  0.00     0.032 A 
HETATM   24  C13 UNL     1      25.574   5.747  48.764  1.00  0.00     0.044 A 
HETATM   25  C14 UNL     1      26.743   5.007  48.937  1.00  0.00     0.116 A 
HETATM   26  F1  UNL     1      27.966   5.531  48.615  1.00  0.00    -0.206 F 
HETATM   27  C15 UNL     1      26.713   3.726  49.436  1.00  0.00     0.044 A 
HETATM   28  C16 UNL     1      25.517   3.139  49.779  1.00  0.00     0.032 A 
ENDBRANCH  20  22
ENDBRANCH  18  20
ENDBRANCH   6  18
TORSDOF 5
ENDMDL
MODEL 2
REMARK VINA RESULT:      -8.5      2.661      3.455
REMARK  5 active torsions:
REMARK  status: ('A' for Active; 'I' for Inactive)
REMARK    1  A    between atoms: C2_4  and  C3_5 
REMARK       I    between atoms: C3_5  and  N2_7 
REMARK    2  A    between atoms: N2_7  and  C4_8 
REMARK    3  A    between atoms: C9_13  and  C10_14 
REMARK    4  A    between atoms: C10_14  and  N3_16 
REMARK    5  A    between atoms: N3_16  and  C11_17 
ROOT
HETATM    1  C4  UNL     1      23.818   0.033  53.628  1.00  0.00     0.017 A 
HETATM    2  C5  UNL     1      22.451   0.047  53.344  1.00  0.00     0.058 A 
HETATM    3  C6  UNL     1      22.961  -0.954  54.273  1.00  0.00     0.037 A 
HETATM    4  C7  UNL     1      21.990  -1.733  54.725  1.00  0.00     0.012 A 
HETATM    5  C8  UNL     1      20.673  -1.354  54.149  1.00  0.00     0.045 A 
HETATM    6  C9  UNL     1      21.036  -0.209  53.275  1.00  0.00    -0.024 A 
ENDROOT
BRANCH   1   7
HETATM    7  N2  UNL     1      25.081   0.639  53.376  1.00  0.00    -0.331 N 
HETATM    8  C3  UNL     1      26.249  -0.106  53.668  1.00  0.00     0.246 C 
HETATM    9  O2  UNL     1      26.120  -1.271  54.135  1.00  0.00    -0.271 OA
HETATM   10  H3  UNL     1      25.120   1.608  52.989  1.00  0.00     0.168 HD
BRANCH   8  11
HETATM   11  C2  UNL     1      27.546   0.549  53.398  1.00  0.00     0.203 C 
HETATM   12  N1  UNL     1      28.200   0.880  54.636  1.00  0.00    -0.321 N 
HETATM   13  C1  UNL     1      29.040   1.995  54.317  1.00  0.00     0.361 C 
HETATM   14  H1  UNL     1      28.128   0.449  55.596  1.00  0.00     0.165 HD
HETATM   15  O1  UNL     1      29.954   2.503  54.989  1.00  0.00    -0.238 OA
HETATM   16  O3  UNL     1      28.670   2.473  53.056  1.00  0.00    -0.301 OA
HETATM   17  C17 UNL     1      27.410   1.905  52.743  1.00  0.00     0.215 C 
ENDBRANCH   8  11
ENDBRANCH   1   7
BRANCH   6  18
HETATM   18  C10 UNL     1      20.191   0.492  52.526  1.00  0.00     0.107 C 
HETATM   19 CL1  UNL     1      18.589  -0.141  52.204  1.00  0.00    -0.064 Cl
BRANCH  18  20
HETATM   20  N3  UNL     1      20.568   1.732  51.992  1.00  0.00    -0.347 N 
HETATM   21  H7  UNL     1      20.348   2.608  52.511  1.00  0.00     0.167 HD
BRANCH  20  22
HETATM   22  C11 UNL     1      21.260   1.956  50.753  1.00  0.00     0.033 A 
HETATM   23  C12 UNL     1      20.889   1.037  49.794  1.00  0.00     0.032 A 
HETATM   24  C13 UNL     1      21.432   1.063  48.517  1.00  0.00     0.044 A 
HETATM   25  C14 UNL     1      22.369   2.060  48.248  1.00  0.00     0.116 A 
HETATM   26  F1  UNL     1      22.958   2.163  47.018  1.00  0.00    -0.206 F 
HETATM   27  C15 UNL     1      22.737   2.974  49.207  1.00  0.00     0.044 A 
HETATM   28  C16 UNL     1      22.182   2.926  50.466  1.00  0.00     0.032 A 
ENDBRANCH  20  22
ENDBRANCH  18  20
ENDBRANCH   6  18
TORSDOF 5
ENDMDL
MODEL 3
REMARK VINA RESULT:      -8.5      4.129      6.624
REMARK  5 active torsions:
REMARK  status: ('A' for Active; 'I' for Inactive)
REMARK    1  A    between atoms: C2_4  and  C3_5 
REMARK       I    between atoms: C3_5  and  N2_7 
REMARK    2  A    between atoms: N2_7  and  C4_8 
REMARK    3  A    between atoms: C9_13  and  C10_14 
REMARK    4  A    between atoms: C10_14  and  N3_16 
REMARK    5  A    between atoms: N3_16  and  C11_17 
ROOT
HETATM    1  C4  UNL     1      23.901   4.035  51.706  1.00  0.00     0.017 A 
HETATM    2  C5  UNL     1      23.978   2.728  52.192  1.00  0.00     0.058 A 
HETATM    3  C6  UNL     1      22.662   3.326  52.003  1.00  0.00     0.037 A 
HETATM    4  C7  UNL     1      21.697   2.485  52.341  1.00  0.00     0.012 A 
HETATM    5  C8  UNL     1      22.244   1.186  52.813  1.00  0.00     0.045 A 
HETATM    6  C9  UNL     1      23.709   1.406  52.692  1.00  0.00    -0.024 A 
ENDROOT
BRANCH   1   7
HETATM    7  N2  UNL     1      24.631   5.174  51.262  1.00  0.00    -0.331 N 
HETATM    8  C3  UNL     1      25.292   5.097  50.013  1.00  0.00     0.246 C 
HETATM    9  O2  UNL     1      25.205   4.028  49.349  1.00  0.00    -0.271 OA
HETATM   10  H3  UNL     1      24.665   6.029  51.859  1.00  0.00     0.168 HD
BRANCH   8  11
HETATM   11  C2  UNL     1      26.043   6.294  49.579  1.00  0.00     0.203 C 
HETATM   12  N1  UNL     1      26.086   7.263  50.642  1.00  0.00    -0.321 N 
HETATM   13  C1  UNL     1      26.233   8.523  49.979  1.00  0.00     0.361 C 
HETATM   14  H1  UNL     1      26.029   7.147  51.689  1.00  0.00     0.165 HD
HETATM   15  O1  UNL     1      26.527   9.631  50.462  1.00  0.00    -0.238 OA
HETATM   16  O3  UNL     1      25.983   8.332  48.617  1.00  0.00    -0.301 OA
HETATM   17  C17 UNL     1      25.356   7.069  48.477  1.00  0.00     0.215 C 
ENDBRANCH   8  11
ENDBRANCH   1   7
BRANCH   6  18
HETATM   18  C10 UNL     1      24.652   0.521  52.999  1.00  0.00     0.107 C 
HETATM   19 CL1  UNL     1      24.371  -0.635  54.286  1.00  0.00    -0.064 Cl
BRANCH  18  20
HETATM   20  N3  UNL     1      25.869   0.504  52.303  1.00  0.00    -0.347 N 
HETATM   21  H7  UNL     1      25.941   0.970  51.374  1.00  0.00     0.167 HD
BRANCH  20  22
HETATM   22  C11 UNL     1      27.094  -0.108  52.736  1.00  0.00     0.033 A 
HETATM   23  C12 UNL     1      27.988   0.830  53.210  1.00  0.00     0.032 A 
HETATM   24  C13 UNL     1      29.240   0.463  53.683  1.00  0.00     0.044 A 
HETATM   25  C14 UNL     1      29.553  -0.895  53.656  1.00  0.00     0.116 A 
HETATM   26  F1  UNL     1      30.765  -1.351  54.100  1.00  0.00    -0.206 F 
HETATM   27  C15 UNL     1      28.660  -1.828  53.182  1.00  0.00     0.044 A 
HETATM   28  C16 UNL     1      27.424  -1.437  52.720  1.00  0.00     0.032 A 
ENDBRANCH  20  22
ENDBRANCH  18  20
ENDBRANCH   6  18
TORSDOF 5
ENDMDL
MODEL 4
REMARK VINA RESULT:      -8.4      4.374      6.916
REMARK  5 active torsions:
REMARK  status: ('A' for Active; 'I' for Inactive)
REMARK    1  A    between atoms: C2_4  and  C3_5 
REMARK       I    between atoms: C3_5  and  N2_7 
REMARK    2  A    between atoms: N2_7  and  C4_8 
REMARK    3  A    between atoms: C9_13  and  C10_14 
REMARK    4  A    between atoms: C10_14  and  N3_16 
REMARK    5  A    between atoms: N3_16  and  C11_17 
ROOT
HETATM    1  C4  UNL     1      26.453   4.341  49.489  1.00  0.00     0.017 A 
HETATM    2  C5  UNL     1      25.769   3.560  50.424  1.00  0.00     0.058 A 
HETATM    3  C6  UNL     1      25.091   3.918  49.184  1.00  0.00     0.037 A 
HETATM    4  C7  UNL     1      23.867   3.415  49.141  1.00  0.00     0.012 A 
HETATM    5  C8  UNL     1      23.551   2.639  50.369  1.00  0.00     0.045 A 
HETATM    6  C9  UNL     1      24.809   2.769  51.149  1.00  0.00    -0.024 A 
ENDROOT
BRANCH   1   7
HETATM    7  N2  UNL     1      27.664   5.022  49.181  1.00  0.00    -0.331 N 
HETATM    8  C3  UNL     1      27.579   6.255  48.490  1.00  0.00     0.246 C 
HETATM    9  O2  UNL     1      26.439   6.695  48.180  1.00  0.00    -0.271 OA
HETATM   10  H3  UNL     1      28.577   4.603  49.465  1.00  0.00     0.168 HD
BRANCH   8  11
HETATM   11  C2  UNL     1      28.853   6.938  48.183  1.00  0.00     0.203 C 
HETATM   12  N1  UNL     1      29.922   6.361  48.954  1.00  0.00    -0.321 N 
HETATM   13  C1  UNL     1      30.886   7.411  49.083  1.00  0.00     0.361 C 
HETATM   14  H1  UNL     1      30.040   5.395  49.364  1.00  0.00     0.165 HD
HETATM   15  O1  UNL     1      32.064   7.348  49.475  1.00  0.00    -0.238 OA
HETATM   16  O3  UNL     1      30.284   8.607  48.680  1.00  0.00    -0.301 OA
HETATM   17  C17 UNL     1      28.887   8.381  48.634  1.00  0.00     0.215 C 
ENDBRANCH   8  11
ENDBRANCH   1   7
BRANCH   6  18
HETATM   18  C10 UNL     1      25.035   2.241  52.346  1.00  0.00     0.107 C 
HETATM   19 CL1  UNL     1      23.758   1.358  53.159  1.00  0.00    -0.064 Cl
BRANCH  18  20
HETATM   20  N3  UNL     1      26.285   2.382  52.965  1.00  0.00    -0.347 N 
HETATM   21  H7  UNL     1      26.583   3.314  53.324  1.00  0.00     0.167 HD
BRANCH  20  22
HETATM   22  C11 UNL     1      27.257   1.346  53.179  1.00  0.00     0.033 A 
HETATM   23  C12 UNL     1      28.418   1.847  53.731  1.00  0.00     0.032 A 
HETATM   24  C13 UNL     1      29.496   1.023  54.023  1.00  0.00     0.044 A 
HETATM   25  C14 UNL     1      29.352  -0.333  53.733  1.00  0.00     0.116 A 
HETATM   26  F1  UNL     1      30.361  -1.222  53.986  1.00  0.00    -0.206 F 
HETATM   27  C15 UNL     1      28.193  -0.829  53.182  1.00  0.00     0.044 A 
HETATM   28  C16 UNL     1      27.139   0.010  52.903  1.00  0.00     0.032 A 
ENDBRANCH  20  22
ENDBRANCH  18  20
ENDBRANCH   6  18
TORSDOF 5
ENDMDL
MODEL 5
REMARK VINA RESULT:      -8.3      2.060      2.794
REMARK  5 active torsions:
REMARK  status: ('A' for Active; 'I' for Inactive)
REMARK    1  A    between atoms: C2_4  and  C3_5 
REMARK       I    between atoms: C3_5  and  N2_7 
REMARK    2  A    between atoms: N2_7  and  C4_8 
REMARK    3  A    between atoms: C9_13  and  C10_14 
REMARK    4  A    between atoms: C10_14  and  N3_16 
REMARK    5  A    between atoms: N3_16  and  C11_17 
ROOT
HETATM    1  C4  UNL     1      23.831   0.131  53.776  1.00  0.00     0.017 A 
HETATM    2  C5  UNL     1      22.503   0.158  53.341  1.00  0.00     0.058 A 
HETATM    3  C6  UNL     1      22.899  -0.854  54.314  1.00  0.00     0.037 A 
HETATM    4  C7  UNL     1      21.878  -1.628  54.647  1.00  0.00     0.012 A 
HETATM    5  C8  UNL     1      20.636  -1.234  53.931  1.00  0.00     0.045 A 
HETATM    6  C9  UNL     1      21.103  -0.086  53.112  1.00  0.00    -0.024 A 
ENDROOT
BRANCH   1   7
HETATM    7  N2  UNL     1      25.118   0.729  53.672  1.00  0.00    -0.331 N 
HETATM    8  C3  UNL     1      26.185  -0.066  53.188  1.00  0.00     0.246 C 
HETATM    9  O2  UNL     1      25.950  -1.264  52.869  1.00  0.00    -0.271 OA
HETATM   10  H3  UNL     1      25.248   1.725  53.953  1.00  0.00     0.168 HD
BRANCH   8  11
HETATM   11  C2  UNL     1      27.511   0.581  53.092  1.00  0.00     0.203 C 
HETATM   12  N1  UNL     1      28.031   0.839  54.408  1.00  0.00    -0.321 N 
HETATM   13  C1  UNL     1      28.913   1.954  54.238  1.00  0.00     0.361 C 
HETATM   14  H1  UNL     1      27.852   0.361  55.332  1.00  0.00     0.165 HD
HETATM   15  O1  UNL     1      29.755   2.413  55.029  1.00  0.00    -0.238 OA
HETATM   16  O3  UNL     1      28.686   2.501  52.972  1.00  0.00    -0.301 OA
HETATM   17  C17 UNL     1      27.461   1.970  52.497  1.00  0.00     0.215 C 
ENDBRANCH   8  11
ENDBRANCH   1   7
BRANCH   6  18
HETATM   18  C10 UNL     1      20.352   0.627  52.280  1.00  0.00     0.107 C 
HETATM   19 CL1  UNL     1      18.953  -0.111  51.527  1.00  0.00    -0.064 Cl
BRANCH  18  20
HETATM   20  N3  UNL     1      20.668   1.964  51.999  1.00  0.00    -0.347 N 
HETATM   21  H7  UNL     1      20.146   2.731  52.473  1.00  0.00     0.167 HD
BRANCH  20  22
HETATM   22  C11 UNL     1      21.679   2.432  51.091  1.00  0.00     0.033 A 
HETATM   23  C12 UNL     1      22.475   3.396  51.674  1.00  0.00     0.032 A 
HETATM   24  C13 UNL     1      23.519   3.991  50.979  1.00  0.00     0.044 A 
HETATM   25  C14 UNL     1      23.725   3.570  49.666  1.00  0.00     0.116 A 
HETATM   26  F1  UNL     1      24.729   4.100  48.902  1.00  0.00    -0.206 F 
HETATM   27  C15 UNL     1      22.928   2.609  49.088  1.00  0.00     0.044 A 
HETATM   28  C16 UNL     1      21.900   2.035  49.800  1.00  0.00     0.032 A 
ENDBRANCH  20  22
ENDBRANCH  18  20
ENDBRANCH   6  18
TORSDOF 5
ENDMDL
MODEL 6
REMARK VINA RESULT:      -8.3      2.807      4.990
REMARK  5 active torsions:
REMARK  status: ('A' for Active; 'I' for Inactive)
REMARK    1  A    between atoms: C2_4  and  C3_5 
REMARK       I    between atoms: C3_5  and  N2_7 
REMARK    2  A    between atoms: N2_7  and  C4_8 
REMARK    3  A    between atoms: C9_13  and  C10_14 
REMARK    4  A    between atoms: C10_14  and  N3_16 
REMARK    5  A    between atoms: N3_16  and  C11_17 
ROOT
HETATM    1  C4  UNL     1      25.983   2.892  50.912  1.00  0.00     0.017 A 
HETATM    2  C5  UNL     1      24.686   2.856  50.395  1.00  0.00     0.058 A 
HETATM    3  C6  UNL     1      25.569   3.944  49.992  1.00  0.00     0.037 A 
HETATM    4  C7  UNL     1      24.965   4.769  49.151  1.00  0.00     0.012 A 
HETATM    5  C8  UNL     1      23.569   4.340  48.871  1.00  0.00     0.045 A 
HETATM    6  C9  UNL     1      23.453   3.110  49.696  1.00  0.00    -0.024 A 
ENDROOT
BRANCH   1   7
HETATM    7  N2  UNL     1      26.932   2.256  51.762  1.00  0.00    -0.331 N 
HETATM    8  C3  UNL     1      26.596   2.087  53.127  1.00  0.00     0.246 C 
HETATM    9  O2  UNL     1      25.475   2.503  53.529  1.00  0.00    -0.271 OA
HETATM   10  H3  UNL     1      27.843   1.935  51.368  1.00  0.00     0.168 HD
BRANCH   8  11
HETATM   11  C2  UNL     1      27.600   1.425  53.986  1.00  0.00     0.203 C 
HETATM   12  N1  UNL     1      28.599   0.783  53.173  1.00  0.00    -0.321 N 
HETATM   13  C1  UNL     1      29.099  -0.284  53.987  1.00  0.00     0.361 C 
HETATM   14  H1  UNL     1      28.939   0.992  52.196  1.00  0.00     0.165 HD
HETATM   15  O1  UNL     1      30.110  -0.988  53.818  1.00  0.00    -0.238 OA
HETATM   16  O3  UNL     1      28.237  -0.442  55.076  1.00  0.00    -0.301 OA
HETATM   17  C17 UNL     1      27.045   0.261  54.776  1.00  0.00     0.215 C 
ENDBRANCH   8  11
ENDBRANCH   1   7
BRANCH   6  18
HETATM   18  C10 UNL     1      22.374   2.341  49.791  1.00  0.00     0.107 C 
HETATM   19 CL1  UNL     1      21.864   1.390  48.411  1.00  0.00    -0.064 Cl
BRANCH  18  20
HETATM   20  N3  UNL     1      21.640   2.283  50.985  1.00  0.00    -0.347 N 
HETATM   21  H7  UNL     1      20.956   3.036  51.209  1.00  0.00     0.167 HD
BRANCH  20  22
HETATM   22  C11 UNL     1      21.720   1.259  51.990  1.00  0.00     0.033 A 
HETATM   23  C12 UNL     1      20.508   1.078  52.623  1.00  0.00     0.032 A 
HETATM   24  C13 UNL     1      20.351   0.137  53.632  1.00  0.00     0.044 A 
HETATM   25  C14 UNL     1      21.474  -0.614  53.975  1.00  0.00     0.116 A 
HETATM   26  F1  UNL     1      21.416  -1.565  54.958  1.00  0.00    -0.206 F 
HETATM   27  C15 UNL     1      22.681  -0.430  53.342  1.00  0.00     0.044 A 
HETATM   28  C16 UNL     1      22.809   0.509  52.344  1.00  0.00     0.032 A 
ENDBRANCH  20  22
ENDBRANCH  18  20
ENDBRANCH   6  18
TORSDOF 5
ENDMDL
MODEL 7
REMARK VINA RESULT:      -8.2      4.123      7.219
REMARK  5 active torsions:
REMARK  status: ('A' for Active; 'I' for Inactive)
REMARK    1  A    between atoms: C2_4  and  C3_5 
REMARK       I    between atoms: C3_5  and  N2_7 
REMARK    2  A    between atoms: N2_7  and  C4_8 
REMARK    3  A    between atoms: C9_13  and  C10_14 
REMARK    4  A    between atoms: C10_14  and  N3_16 
REMARK    5  A    between atoms: N3_16  and  C11_17 
ROOT
HETATM    1  C4  UNL     1      27.242   2.458  52.031  1.00  0.00     0.017 A 
HETATM    2  C5  UNL     1      27.119   1.253  52.726  1.00  0.00     0.058 A 
HETATM    3  C6  UNL     1      28.176   2.179  53.114  1.00  0.00     0.037 A 
HETATM    4  C7  UNL     1      28.890   1.701  54.122  1.00  0.00     0.012 A 
HETATM    5  C8  UNL     1      28.401   0.365  54.554  1.00  0.00     0.045 A 
HETATM    6  C9  UNL     1      27.267   0.136  53.622  1.00  0.00    -0.024 A 
ENDROOT
BRANCH   1   7
HETATM    7  N2  UNL     1      26.726   3.274  50.985  1.00  0.00    -0.331 N 
HETATM    8  C3  UNL     1      25.350   3.604  51.014  1.00  0.00     0.246 C 
HETATM    9  O2  UNL     1      24.644   3.165  51.962  1.00  0.00    -0.271 OA
HETATM   10  H3  UNL     1      27.363   3.605  50.228  1.00  0.00     0.168 HD
BRANCH   8  11
HETATM   11  C2  UNL     1      24.842   4.452  49.915  1.00  0.00     0.203 C 
HETATM   12  N1  UNL     1      25.938   5.091  49.237  1.00  0.00    -0.321 N 
HETATM   13  C1  UNL     1      25.376   6.286  48.683  1.00  0.00     0.361 C 
HETATM   14  H1  UNL     1      26.949   4.807  49.129  1.00  0.00     0.165 HD
HETATM   15  O1  UNL     1      25.861   7.060  47.840  1.00  0.00    -0.238 OA
HETATM   16  O3  UNL     1      24.117   6.482  49.258  1.00  0.00    -0.301 OA
HETATM   17  C17 UNL     1      24.035   5.638  50.392  1.00  0.00     0.215 C 
ENDBRANCH   8  11
ENDBRANCH   1   7
BRANCH   6  18
HETATM   18  C10 UNL     1      26.488  -0.940  53.602  1.00  0.00     0.107 C 
HETATM   19 CL1  UNL     1      26.725  -2.158  52.364  1.00  0.00    -0.064 Cl
BRANCH  18  20
HETATM   20  N3  UNL     1      25.479  -1.111  54.560  1.00  0.00    -0.347 N 
HETATM   21  H7  UNL     1      25.722  -1.460  55.511  1.00  0.00     0.167 HD
BRANCH  20  22
HETATM   22  C11 UNL     1      24.077  -0.848  54.384  1.00  0.00     0.033 A 
HETATM   23  C12 UNL     1      23.840  -0.121  53.236  1.00  0.00     0.032 A 
HETATM   24  C13 UNL     1      22.554   0.248  52.865  1.00  0.00     0.044 A 
HETATM   25  C14 UNL     1      21.515  -0.150  53.706  1.00  0.00     0.116 A 
HETATM   26  F1  UNL     1      20.215   0.168  53.422  1.00  0.00    -0.206 F 
HETATM   27  C15 UNL     1      21.756  -0.874  54.850  1.00  0.00     0.044 A 
HETATM   28  C16 UNL     1      23.041  -1.227  55.194  1.00  0.00     0.032 A 
ENDBRANCH  20  22
ENDBRANCH  18  20
ENDBRANCH   6  18
TORSDOF 5
ENDMDL
MODEL 8
REMARK VINA RESULT:      -8.2      2.160      2.926
REMARK  5 active torsions:
REMARK  status: ('A' for Active; 'I' for Inactive)
REMARK    1  A    between atoms: C2_4  and  C3_5 
REMARK       I    between atoms: C3_5  and  N2_7 
REMARK    2  A    between atoms: N2_7  and  C4_8 
REMARK    3  A    between atoms: C9_13  and  C10_14 
REMARK    4  A    between atoms: C10_14  and  N3_16 
REMARK    5  A    between atoms: N3_16  and  C11_17 
ROOT
HETATM    1  C4  UNL     1      23.942  -0.654  53.481  1.00  0.00     0.017 A 
HETATM    2  C5  UNL     1      22.703  -0.315  52.933  1.00  0.00     0.058 A 
HETATM    3  C6  UNL     1      22.746  -0.833  54.295  1.00  0.00     0.037 A 
HETATM    4  C7  UNL     1      21.533  -0.903  54.822  1.00  0.00     0.012 A 
HETATM    5  C8  UNL     1      20.494  -0.432  53.869  1.00  0.00     0.045 A 
HETATM    6  C9  UNL     1      21.308  -0.069  52.680  1.00  0.00    -0.024 A 
ENDROOT
BRANCH   1   7
HETATM    7  N2  UNL     1      25.348  -0.725  53.267  1.00  0.00    -0.331 N 
HETATM    8  C3  UNL     1      26.073   0.489  53.199  1.00  0.00     0.246 C 
HETATM    9  O2  UNL     1      25.446   1.576  53.332  1.00  0.00    -0.271 OA
HETATM   10  H3  UNL     1      25.808  -1.655  53.165  1.00  0.00     0.168 HD
BRANCH   8  11
HETATM   11  C2  UNL     1      27.531   0.385  52.975  1.00  0.00     0.203 C 
HETATM   12  N1  UNL     1      28.015  -0.883  53.452  1.00  0.00    -0.321 N 
HETATM   13  C1  UNL     1      29.390  -0.648  53.776  1.00  0.00     0.361 C 
HETATM   14  H1  UNL     1      27.530  -1.813  53.566  1.00  0.00     0.165 HD
HETATM   15  O1  UNL     1      30.287  -1.473  54.023  1.00  0.00    -0.238 OA
HETATM   16  O3  UNL     1      29.608   0.732  53.778  1.00  0.00    -0.301 OA
HETATM   17  C17 UNL     1      28.338   1.360  53.803  1.00  0.00     0.215 C 
ENDBRANCH   8  11
ENDBRANCH   1   7
BRANCH   6  18
HETATM   18  C10 UNL     1      20.834   0.413  51.536  1.00  0.00     0.107 C 
HETATM   19 CL1  UNL     1      19.191   1.018  51.465  1.00  0.00    -0.064 Cl
BRANCH  18  20
HETATM   20  N3  UNL     1      21.636   0.441  50.386  1.00  0.00    -0.347 N 
HETATM   21  H7  UNL     1      21.909  -0.451  49.923  1.00  0.00     0.167 HD
BRANCH  20  22
HETATM   22  C11 UNL     1      22.153   1.612  49.732  1.00  0.00     0.033 A 
HETATM   23  C12 UNL     1      23.162   2.198  50.469  1.00  0.00     0.032 A 
HETATM   24  C13 UNL     1      23.809   3.344  50.028  1.00  0.00     0.044 A 
HETATM   25  C14 UNL     1      23.392   3.875  48.807  1.00  0.00     0.116 A 
HETATM   26  F1  UNL     1      23.971   5.003  48.293  1.00  0.00    -0.206 F 
HETATM   27  C15 UNL     1      22.386   3.288  48.076  1.00  0.00     0.044 A 
HETATM   28  C16 UNL     1      21.762   2.152  48.537  1.00  0.00     0.032 A 
ENDBRANCH  20  22
ENDBRANCH  18  20
ENDBRANCH   6  18
TORSDOF 5
ENDMDL
MODEL 9
REMARK VINA RESULT:      -8.2      5.110      7.588
REMARK  5 active torsions:
REMARK  status: ('A' for Active; 'I' for Inactive)
REMARK    1  A    between atoms: C2_4  and  C3_5 
REMARK       I    between atoms: C3_5  and  N2_7 
REMARK    2  A    between atoms: N2_7  and  C4_8 
REMARK    3  A    between atoms: C9_13  and  C10_14 
REMARK    4  A    between atoms: C10_14  and  N3_16 
REMARK    5  A    between atoms: N3_16  and  C11_17 
ROOT
HETATM    1  C4  UNL     1      28.930   5.652  48.081  1.00  0.00     0.017 A 
HETATM    2  C5  UNL     1      27.768   5.189  48.703  1.00  0.00     0.058 A 
HETATM    3  C6  UNL     1      27.809   6.571  48.239  1.00  0.00     0.037 A 
HETATM    4  C7  UNL     1      26.673   7.200  48.496  1.00  0.00     0.012 A 
HETATM    5  C8  UNL     1      25.698   6.310  49.181  1.00  0.00     0.045 A 
HETATM    6  C9  UNL     1      26.459   5.039  49.283  1.00  0.00    -0.024 A 
ENDROOT
BRANCH   1   7
HETATM    7  N2  UNL     1      30.248   5.327  47.651  1.00  0.00    -0.331 N 
HETATM    8  C3  UNL     1      31.334   5.980  48.282  1.00  0.00     0.246 C 
HETATM    9  O2  UNL     1      31.089   6.816  49.193  1.00  0.00    -0.271 OA
HETATM   10  H3  UNL     1      30.384   4.626  46.891  1.00  0.00     0.168 HD
BRANCH   8  11
HETATM   11  C2  UNL     1      32.690   5.623  47.814  1.00  0.00     0.203 C 
HETATM   12  N1  UNL     1      32.950   4.231  48.067  1.00  0.00    -0.321 N 
HETATM   13  C1  UNL     1      34.374   4.143  48.187  1.00  0.00     0.361 C 
HETATM   14  H1  UNL     1      32.296   3.408  48.157  1.00  0.00     0.165 HD
HETATM   15  O1  UNL     1      35.097   3.131  48.195  1.00  0.00    -0.238 OA
HETATM   16  O3  UNL     1      34.883   5.439  48.302  1.00  0.00    -0.301 OA
HETATM   17  C17 UNL     1      33.794   6.295  48.600  1.00  0.00     0.215 C 
ENDBRANCH   8  11
ENDBRANCH   1   7
BRANCH   6  18
HETATM   18  C10 UNL     1      26.015   3.912  49.829  1.00  0.00     0.107 C 
HETATM   19 CL1  UNL     1      24.616   3.110  49.144  1.00  0.00    -0.064 Cl
BRANCH  18  20
HETATM   20  N3  UNL     1      26.654   3.360  50.948  1.00  0.00    -0.347 N 
HETATM   21  H7  UNL     1      27.520   3.802  51.321  1.00  0.00     0.167 HD
BRANCH  20  22
HETATM   22  C11 UNL     1      26.238   2.197  51.684  1.00  0.00     0.033 A 
HETATM   23  C12 UNL     1      25.147   2.469  52.483  1.00  0.00     0.032 A 
HETATM   24  C13 UNL     1      24.575   1.490  53.284  1.00  0.00     0.044 A 
HETATM   25  C14 UNL     1      25.154   0.222  53.245  1.00  0.00     0.116 A 
HETATM   26  F1  UNL     1      24.659  -0.805  54.001  1.00  0.00    -0.206 F 
HETATM   27  C15 UNL     1      26.243  -0.044  52.448  1.00  0.00     0.044 A 
HETATM   28  C16 UNL     1      26.790   0.945  51.663  1.00  0.00     0.032 A 
ENDBRANCH  20  22
ENDBRANCH  18  20
ENDBRANCH   6  18
TORSDOF 5
ENDMDL
