MODEL 1
REMARK VINA RESULT:      -6.8      0.000      0.000
REMARK  5 active torsions:
REMARK  status: ('A' for Active; 'I' for Inactive)
REMARK    1  A    between atoms: O1_2  and  C2_3 
REMARK    2  A    between atoms: C6_9  and  N3_10 
REMARK    3  A    between atoms: N3_10  and  C7_11 
REMARK    4  A    between atoms: C7_11  and  C8_12 
REMARK    5  A    between atoms: C11_16  and  O2_17 
ROOT
HETATM    1  C2  UNL     1      26.959   0.575  54.150  1.00  0.00     0.070 C 
HETATM    2  C3  UNL     1      26.233  -0.117  54.977  1.00  0.00     0.048 C 
HETATM    3  C4  UNL     1      24.943  -0.741  54.833  1.00  0.00     0.092 C 
HETATM    4  N1  UNL     1      24.507  -0.508  53.650  1.00  0.00    -0.162 NA
HETATM    5  C5  UNL     1      23.269  -0.956  53.133  1.00  0.00     0.196 A 
HETATM    6  N2  UNL     1      23.389   0.293  53.009  1.00  0.00    -0.271 N 
HETATM    7  C6  UNL     1      22.520   1.267  52.462  1.00  0.00     0.257 C 
HETATM    8  C11 UNL     1      23.039   2.115  51.389  1.00  0.00     0.111 C 
HETATM    9  C13 UNL     1      24.099   2.550  50.675  1.00  0.00     0.036 C 
HETATM   10  C14 UNL     1      24.121   3.552  49.537  1.00  0.00     0.070 C 
HETATM   11  N4  UNL     1      25.505   2.236  50.695  1.00  0.00    -0.370 N 
HETATM   12  C15 UNL     1      26.745   2.685  51.274  1.00  0.00     0.290 C 
HETATM   13  O3  UNL     1      26.863   2.428  52.618  1.00  0.00    -0.366 OA
HETATM   14  C16 UNL     1      26.843   1.022  52.767  1.00  0.00     0.234 C 
HETATM   15  H21 UNL     1      25.537   1.387  50.051  1.00  0.00     0.161 HD
ENDROOT
BRANCH   7  16
HETATM   16  N3  UNL     1      21.223   0.743  52.279  1.00  0.00    -0.392 N 
HETATM   17  H8  UNL     1      20.880   0.583  51.335  1.00  0.00     0.155 HD
BRANCH  16  18
HETATM   18  C7  UNL     1      20.292   0.897  53.333  1.00  0.00     0.145 C 
BRANCH  18  19
HETATM   19  C8  UNL     1      19.567  -0.403  53.616  1.00  0.00     0.011 C 
HETATM   20  C9  UNL     1      18.549  -1.082  53.126  1.00  0.00     0.005 C 
HETATM   21  C10 UNL     1      17.991  -2.383  53.577  1.00  0.00     0.061 C 
HETATM   22 CL1  UNL     1      17.821  -0.240  51.749  1.00  0.00    -0.090 Cl
ENDBRANCH  18  19
ENDBRANCH  16  18
ENDBRANCH   7  16
BRANCH   8  23
HETATM   23  O2  UNL     1      21.983   2.835  50.778  1.00  0.00    -0.354 OA
HETATM   24  C12 UNL     1      21.468   3.943  51.515  1.00  0.00     0.209 C 
ENDBRANCH   8  23
BRANCH   1  25
HETATM   25  O1  UNL     1      28.148   0.994  54.712  1.00  0.00    -0.358 OA
HETATM   26  C1  UNL     1      29.398   0.617  54.184  1.00  0.00     0.209 C 
ENDBRANCH   1  25
TORSDOF 5
ENDMDL
MODEL 2
REMARK VINA RESULT:      -6.8      2.617      5.048
REMARK  5 active torsions:
REMARK  status: ('A' for Active; 'I' for Inactive)
REMARK    1  A    between atoms: O1_2  and  C2_3 
REMARK    2  A    between atoms: C6_9  and  N3_10 
REMARK    3  A    between atoms: N3_10  and  C7_11 
REMARK    4  A    between atoms: C7_11  and  C8_12 
REMARK    5  A    between atoms: C11_16  and  O2_17 
ROOT
HETATM    1  C2  UNL     1      27.307   0.371  54.291  1.00  0.00     0.070 C 
HETATM    2  C3  UNL     1      27.668   1.237  53.391  1.00  0.00     0.048 C 
HETATM    3  C4  UNL     1      26.926   2.235  52.664  1.00  0.00     0.092 C 
HETATM    4  N1  UNL     1      25.698   2.174  53.028  1.00  0.00    -0.162 NA
HETATM    5  C5  UNL     1      24.658   2.997  52.533  1.00  0.00     0.196 A 
HETATM    6  N2  UNL     1      24.369   1.776  52.413  1.00  0.00    -0.271 N 
HETATM    7  C6  UNL     1      23.224   1.133  51.885  1.00  0.00     0.257 C 
HETATM    8  C11 UNL     1      22.516   0.189  52.749  1.00  0.00     0.111 C 
HETATM    9  C13 UNL     1      22.493  -0.540  53.886  1.00  0.00     0.036 C 
HETATM   10  C14 UNL     1      21.409  -1.474  54.386  1.00  0.00     0.070 C 
HETATM   11  N4  UNL     1      23.407  -0.680  54.993  1.00  0.00    -0.370 N 
HETATM   12  C15 UNL     1      24.494  -1.504  55.450  1.00  0.00     0.290 C 
HETATM   13  O3  UNL     1      25.666  -1.326  54.754  1.00  0.00    -0.366 OA
HETATM   14  C16 UNL     1      26.067   0.012  54.969  1.00  0.00     0.234 C 
HETATM   15  H21 UNL     1      23.103   0.131  55.616  1.00  0.00     0.161 HD
ENDROOT
BRANCH   7  16
HETATM   16  N3  UNL     1      22.426   2.038  51.155  1.00  0.00    -0.392 N 
HETATM   17  H8  UNL     1      21.559   2.378  51.564  1.00  0.00     0.155 HD
BRANCH  16  18
HETATM   18  C7  UNL     1      22.589   2.080  49.751  1.00  0.00     0.145 C 
BRANCH  18  19
HETATM   19  C8  UNL     1      22.862   3.492  49.274  1.00  0.00     0.011 C 
HETATM   20  C9  UNL     1      23.907   4.257  49.031  1.00  0.00     0.005 C 
HETATM   21  C10 UNL     1      23.943   5.664  48.552  1.00  0.00     0.061 C 
HETATM   22 CL1  UNL     1      25.421   3.396  49.350  1.00  0.00    -0.090 Cl
ENDBRANCH  18  19
ENDBRANCH  16  18
ENDBRANCH   7  16
BRANCH   8  23
HETATM   23  O2  UNL     1      21.264  -0.153  52.181  1.00  0.00    -0.354 OA
HETATM   24  C12 UNL     1      20.162   0.680  52.539  1.00  0.00     0.209 C 
ENDBRANCH   8  23
BRANCH   1  25
HETATM   25  O1  UNL     1      28.359  -0.409  54.728  1.00  0.00    -0.358 OA
HETATM   26  C1  UNL     1      29.415  -0.782  53.875  1.00  0.00     0.209 C 
ENDBRANCH   1  25
TORSDOF 5
ENDMDL
MODEL 3
REMARK VINA RESULT:      -6.7      3.750      6.821
REMARK  5 active torsions:
REMARK  status: ('A' for Active; 'I' for Inactive)
REMARK    1  A    between atoms: O1_2  and  C2_3 
REMARK    2  A    between atoms: C6_9  and  N3_10 
REMARK    3  A    between atoms: N3_10  and  C7_11 
REMARK    4  A    between atoms: C7_11  and  C8_12 
REMARK    5  A    between atoms: C11_16  and  O2_17 
ROOT
HETATM    1  C2  UNL     1      22.956  -0.347  53.312  1.00  0.00     0.070 C 
HETATM    2  C3  UNL     1      24.223  -0.624  53.219  1.00  0.00     0.048 C 
HETATM    3  C4  UNL     1      25.383   0.219  53.079  1.00  0.00     0.092 C 
HETATM    4  N1  UNL     1      24.996   1.441  53.035  1.00  0.00    -0.162 NA
HETATM    5  C5  UNL     1      25.848   2.562  52.899  1.00  0.00     0.196 A 
HETATM    6  N2  UNL     1      24.951   2.561  52.013  1.00  0.00    -0.271 N 
HETATM    7  C6  UNL     1      24.680   3.462  50.956  1.00  0.00     0.257 C 
HETATM    8  C11 UNL     1      23.343   4.052  50.892  1.00  0.00     0.111 C 
HETATM    9  C13 UNL     1      22.065   4.061  51.328  1.00  0.00     0.036 C 
HETATM   10  C14 UNL     1      20.929   4.971  50.903  1.00  0.00     0.070 C 
HETATM   11  N4  UNL     1      21.347   3.288  52.311  1.00  0.00    -0.370 N 
HETATM   12  C15 UNL     1      20.521   2.114  52.427  1.00  0.00     0.290 C 
HETATM   13  O3  UNL     1      21.202   0.931  52.274  1.00  0.00    -0.366 OA
HETATM   14  C16 UNL     1      22.141   0.861  53.329  1.00  0.00     0.234 C 
HETATM   15  H21 UNL     1      21.556   3.837  53.200  1.00  0.00     0.161 HD
ENDROOT
BRANCH   7  16
HETATM   16  N3  UNL     1      25.765   4.338  50.745  1.00  0.00    -0.392 N 
HETATM   17  H8  UNL     1      25.785   5.231  51.232  1.00  0.00     0.155 HD
BRANCH  16  18
HETATM   18  C7  UNL     1      26.520   4.183  49.559  1.00  0.00     0.145 C 
BRANCH  18  19
HETATM   19  C8  UNL     1      26.697   5.508  48.847  1.00  0.00     0.011 C 
HETATM   20  C9  UNL     1      27.659   6.167  48.232  1.00  0.00     0.005 C 
HETATM   21  C10 UNL     1      27.608   7.503  47.583  1.00  0.00     0.061 C 
HETATM   22 CL1  UNL     1      29.172   5.247  48.238  1.00  0.00    -0.090 Cl
ENDBRANCH  18  19
ENDBRANCH  16  18
ENDBRANCH   7  16
BRANCH   8  23
HETATM   23  O2  UNL     1      23.319   5.117  49.958  1.00  0.00    -0.354 OA
HETATM   24  C12 UNL     1      23.117   4.751  48.593  1.00  0.00     0.209 C 
ENDBRANCH   8  23
BRANCH   1  25
HETATM   25  O1  UNL     1      22.175  -1.479  53.431  1.00  0.00    -0.358 OA
HETATM   26  C1  UNL     1      21.196  -1.609  54.435  1.00  0.00     0.209 C 
ENDBRANCH   1  25
TORSDOF 5
ENDMDL
MODEL 4
REMARK VINA RESULT:      -6.5      1.976      4.182
REMARK  5 active torsions:
REMARK  status: ('A' for Active; 'I' for Inactive)
REMARK    1  A    between atoms: O1_2  and  C2_3 
REMARK    2  A    between atoms: C6_9  and  N3_10 
REMARK    3  A    between atoms: N3_10  and  C7_11 
REMARK    4  A    between atoms: C7_11  and  C8_12 
REMARK    5  A    between atoms: C11_16  and  O2_17 
ROOT
HETATM    1  C2  UNL     1      26.007   3.494  50.014  1.00  0.00     0.070 C 
HETATM    2  C3  UNL     1      24.969   3.952  49.377  1.00  0.00     0.048 C 
HETATM    3  C4  UNL     1      23.578   4.033  49.741  1.00  0.00     0.092 C 
HETATM    4  N1  UNL     1      23.432   3.526  50.910  1.00  0.00    -0.162 NA
HETATM    5  C5  UNL     1      22.205   3.423  51.606  1.00  0.00     0.196 A 
HETATM    6  N2  UNL     1      22.777   2.302  51.522  1.00  0.00    -0.271 N 
HETATM    7  C6  UNL     1      22.400   1.022  51.992  1.00  0.00     0.257 C 
HETATM    8  C11 UNL     1      23.337   0.315  52.865  1.00  0.00     0.111 C 
HETATM    9  C13 UNL     1      24.575   0.229  53.398  1.00  0.00     0.036 C 
HETATM   10  C14 UNL     1      25.118  -0.810  54.359  1.00  0.00     0.070 C 
HETATM   11  N4  UNL     1      25.759   1.044  53.292  1.00  0.00    -0.370 N 
HETATM   12  C15 UNL     1      26.978   1.154  52.534  1.00  0.00     0.290 C 
HETATM   13  O3  UNL     1      26.800   1.582  51.241  1.00  0.00    -0.366 OA
HETATM   14  C16 UNL     1      26.261   2.887  51.315  1.00  0.00     0.234 C 
HETATM   15  H21 UNL     1      25.582   1.768  54.054  1.00  0.00     0.161 HD
ENDROOT
BRANCH   7  16
HETATM   16  N3  UNL     1      21.044   1.003  52.378  1.00  0.00    -0.392 N 
HETATM   17  H8  UNL     1      20.808   0.993  53.368  1.00  0.00     0.155 HD
BRANCH  16  18
HETATM   18  C7  UNL     1      20.095   0.534  51.440  1.00  0.00     0.145 C 
BRANCH  18  19
HETATM   19  C8  UNL     1      18.926  -0.136  52.133  1.00  0.00     0.011 C 
HETATM   20  C9  UNL     1      17.705  -0.530  51.832  1.00  0.00     0.005 C 
HETATM   21  C10 UNL     1      16.695  -1.189  52.701  1.00  0.00     0.061 C 
HETATM   22 CL1  UNL     1      17.317  -0.177  50.141  1.00  0.00    -0.090 Cl
ENDBRANCH  18  19
ENDBRANCH  16  18
ENDBRANCH   7  16
BRANCH   8  23
HETATM   23  O2  UNL     1      22.707  -0.808  53.456  1.00  0.00    -0.354 OA
HETATM   24  C12 UNL     1      21.968  -0.558  54.651  1.00  0.00     0.209 C 
ENDBRANCH   8  23
BRANCH   1  25
HETATM   25  O1  UNL     1      27.171   3.611  49.281  1.00  0.00    -0.358 OA
HETATM   26  C1  UNL     1      27.554   4.824  48.678  1.00  0.00     0.209 C 
ENDBRANCH   1  25
TORSDOF 5
ENDMDL
MODEL 5
REMARK VINA RESULT:      -6.4      2.855      6.846
REMARK  5 active torsions:
REMARK  status: ('A' for Active; 'I' for Inactive)
REMARK    1  A    between atoms: O1_2  and  C2_3 
REMARK    2  A    between atoms: C6_9  and  N3_10 
REMARK    3  A    between atoms: N3_10  and  C7_11 
REMARK    4  A    between atoms: C7_11  and  C8_12 
REMARK    5  A    between atoms: C11_16  and  O2_17 
ROOT
HETATM    1  C2  UNL     1      18.192   0.941  51.687  1.00  0.00     0.070 C 
HETATM    2  C3  UNL     1      18.412  -0.255  52.147  1.00  0.00     0.048 C 
HETATM    3  C4  UNL     1      19.391  -0.763  53.073  1.00  0.00     0.092 C 
HETATM    4  N1  UNL     1      20.142   0.206  53.446  1.00  0.00    -0.162 NA
HETATM    5  C5  UNL     1      21.222   0.099  54.353  1.00  0.00     0.196 A 
HETATM    6  N2  UNL     1      21.588   0.631  53.270  1.00  0.00    -0.271 N 
HETATM    7  C6  UNL     1      22.848   1.112  52.842  1.00  0.00     0.257 C 
HETATM    8  C11 UNL     1      22.929   2.501  52.393  1.00  0.00     0.111 C 
HETATM    9  C13 UNL     1      22.290   3.635  52.032  1.00  0.00     0.036 C 
HETATM   10  C14 UNL     1      22.889   4.957  51.596  1.00  0.00     0.070 C 
HETATM   11  N4  UNL     1      20.900   4.009  51.956  1.00  0.00    -0.370 N 
HETATM   12  C15 UNL     1      19.804   4.061  51.023  1.00  0.00     0.290 C 
HETATM   13  O3  UNL     1      19.294   2.831  50.685  1.00  0.00    -0.366 OA
HETATM   14  C16 UNL     1      18.777   2.264  51.872  1.00  0.00     0.234 C 
HETATM   15  H21 UNL     1      20.717   4.333  52.955  1.00  0.00     0.161 HD
ENDROOT
BRANCH   7  16
HETATM   16  N3  UNL     1      23.877   0.666  53.697  1.00  0.00    -0.392 N 
HETATM   17  H8  UNL     1      24.268   1.308  54.382  1.00  0.00     0.155 HD
BRANCH  16  18
HETATM   18  C7  UNL     1      24.641  -0.452  53.286  1.00  0.00     0.145 C 
BRANCH  18  19
HETATM   19  C8  UNL     1      26.123  -0.201  53.476  1.00  0.00     0.011 C 
HETATM   20  C9  UNL     1      27.261  -0.802  53.194  1.00  0.00     0.005 C 
HETATM   21  C10 UNL     1      28.649  -0.358  53.485  1.00  0.00     0.061 C 
HETATM   22 CL1  UNL     1      26.984  -2.338  52.356  1.00  0.00    -0.090 Cl
ENDBRANCH  18  19
ENDBRANCH  16  18
ENDBRANCH   7  16
BRANCH   8  23
HETATM   23  O2  UNL     1      24.282   2.897  52.261  1.00  0.00    -0.354 OA
HETATM   24  C12 UNL     1      24.949   2.472  51.073  1.00  0.00     0.209 C 
ENDBRANCH   8  23
BRANCH   1  25
HETATM   25  O1  UNL     1      17.136   0.982  50.800  1.00  0.00    -0.358 OA
HETATM   26  C1  UNL     1      16.917  -0.036  49.853  1.00  0.00     0.209 C 
ENDBRANCH   1  25
TORSDOF 5
ENDMDL
MODEL 6
REMARK VINA RESULT:      -6.3      3.068      5.705
REMARK  5 active torsions:
REMARK  status: ('A' for Active; 'I' for Inactive)
REMARK    1  A    between atoms: O1_2  and  C2_3 
REMARK    2  A    between atoms: C6_9  and  N3_10 
REMARK    3  A    between atoms: N3_10  and  C7_11 
REMARK    4  A    between atoms: C7_11  and  C8_12 
REMARK    5  A    between atoms: C11_16  and  O2_17 
ROOT
HETATM    1  C2  UNL     1      25.917  -0.376  53.150  1.00  0.00     0.070 C 
HETATM    2  C3  UNL     1      26.748   0.334  52.444  1.00  0.00     0.048 C 
HETATM    3  C4  UNL     1      26.636   1.647  51.863  1.00  0.00     0.092 C 
HETATM    4  N1  UNL     1      25.472   2.113  52.129  1.00  0.00    -0.162 NA
HETATM    5  C5  UNL     1      24.988   3.379  51.723  1.00  0.00     0.196 A 
HETATM    6  N2  UNL     1      24.206   2.457  51.367  1.00  0.00    -0.271 N 
HETATM    7  C6  UNL     1      22.981   2.490  50.659  1.00  0.00     0.257 C 
HETATM    8  C11 UNL     1      21.814   1.876  51.292  1.00  0.00     0.111 C 
HETATM    9  C13 UNL     1      21.310   1.100  52.275  1.00  0.00     0.036 C 
HETATM   10  C14 UNL     1      19.866   0.715  52.528  1.00  0.00     0.070 C 
HETATM   11  N4  UNL     1      21.901   0.411  53.396  1.00  0.00    -0.370 N 
HETATM   12  C15 UNL     1      22.433  -0.874  53.767  1.00  0.00     0.290 C 
HETATM   13  O3  UNL     1      23.645  -1.168  53.192  1.00  0.00    -0.366 OA
HETATM   14  C16 UNL     1      24.566  -0.206  53.670  1.00  0.00     0.234 C 
HETATM   15  H21 UNL     1      21.906   1.182  54.133  1.00  0.00     0.161 HD
ENDROOT
BRANCH   7  16
HETATM   16  N3  UNL     1      22.780   3.748  50.053  1.00  0.00    -0.392 N 
HETATM   17  H8  UNL     1      22.011   4.334  50.368  1.00  0.00     0.155 HD
BRANCH  16  18
HETATM   18  C7  UNL     1      23.319   3.954  48.762  1.00  0.00     0.145 C 
BRANCH  18  19
HETATM   19  C8  UNL     1      23.885   5.352  48.623  1.00  0.00     0.011 C 
HETATM   20  C9  UNL     1      25.065   5.938  48.660  1.00  0.00     0.005 C 
HETATM   21  C10 UNL     1      25.399   7.377  48.493  1.00  0.00     0.061 C 
HETATM   22 CL1  UNL     1      26.356   4.763  48.955  1.00  0.00    -0.090 Cl
ENDBRANCH  18  19
ENDBRANCH  16  18
ENDBRANCH   7  16
BRANCH   8  23
HETATM   23  O2  UNL     1      20.634   2.227  50.591  1.00  0.00    -0.354 OA
HETATM   24  C12 UNL     1      20.400   1.535  49.365  1.00  0.00     0.209 C 
ENDBRANCH   8  23
BRANCH   1  25
HETATM   25  O1  UNL     1      26.440  -1.603  53.506  1.00  0.00    -0.358 OA
HETATM   26  C1  UNL     1      27.347  -2.295  52.683  1.00  0.00     0.209 C 
ENDBRANCH   1  25
TORSDOF 5
ENDMDL
MODEL 7
REMARK VINA RESULT:      -6.1      2.723      4.842
REMARK  5 active torsions:
REMARK  status: ('A' for Active; 'I' for Inactive)
REMARK    1  A    between atoms: O1_2  and  C2_3 
REMARK    2  A    between atoms: C6_9  and  N3_10 
REMARK    3  A    between atoms: N3_10  and  C7_11 
REMARK    4  A    between atoms: C7_11  and  C8_12 
REMARK    5  A    between atoms: C11_16  and  O2_17 
ROOT
HETATM    1  C2  UNL     1      25.804   0.493  52.548  1.00  0.00     0.070 C 
HETATM    2  C3  UNL     1      26.201   1.529  51.870  1.00  0.00     0.048 C 
HETATM    3  C4  UNL     1      25.643   2.848  51.717  1.00  0.00     0.092 C 
HETATM    4  N1  UNL     1      24.557   2.913  52.396  1.00  0.00    -0.162 NA
HETATM    5  C5  UNL     1      23.721   4.051  52.491  1.00  0.00     0.196 A 
HETATM    6  N2  UNL     1      23.071   3.037  52.116  1.00  0.00    -0.271 N 
HETATM    7  C6  UNL     1      21.704   2.871  51.792  1.00  0.00     0.257 C 
HETATM    8  C11 UNL     1      20.953   1.846  52.517  1.00  0.00     0.111 C 
HETATM    9  C13 UNL     1      20.963   0.782  53.349  1.00  0.00     0.036 C 
HETATM   10  C14 UNL     1      19.786  -0.028  53.857  1.00  0.00     0.070 C 
HETATM   11  N4  UNL     1      22.010   0.076  54.044  1.00  0.00    -0.370 N 
HETATM   12  C15 UNL     1      22.882  -1.059  53.899  1.00  0.00     0.290 C 
HETATM   13  O3  UNL     1      23.879  -0.887  52.969  1.00  0.00    -0.366 OA
HETATM   14  C16 UNL     1      24.687   0.176  53.430  1.00  0.00     0.234 C 
HETATM   15  H21 UNL     1      22.095   0.657  54.935  1.00  0.00     0.161 HD
ENDROOT
BRANCH   7  16
HETATM   16  N3  UNL     1      21.067   4.118  51.625  1.00  0.00    -0.392 N 
HETATM   17  H8  UNL     1      20.408   4.438  52.331  1.00  0.00     0.155 HD
BRANCH  16  18
HETATM   18  C7  UNL     1      20.990   4.652  50.317  1.00  0.00     0.145 C 
BRANCH  18  19
HETATM   19  C8  UNL     1      21.338   3.606  49.278  1.00  0.00     0.011 C 
HETATM   20  C9  UNL     1      22.374   3.271  48.536  1.00  0.00     0.005 C 
HETATM   21  C10 UNL     1      22.498   2.169  47.548  1.00  0.00     0.061 C 
HETATM   22 CL1  UNL     1      23.751   4.345  48.836  1.00  0.00    -0.090 Cl
ENDBRANCH  18  19
ENDBRANCH  16  18
ENDBRANCH   7  16
BRANCH   8  23
HETATM   23  O2  UNL     1      19.565   1.989  52.273  1.00  0.00    -0.354 OA
HETATM   24  C12 UNL     1      19.077   1.419  51.060  1.00  0.00     0.209 C 
ENDBRANCH   8  23
BRANCH   1  25
HETATM   25  O1  UNL     1      26.652  -0.587  52.408  1.00  0.00    -0.358 OA
HETATM   26  C1  UNL     1      27.896  -0.649  53.062  1.00  0.00     0.209 C 
ENDBRANCH   1  25
TORSDOF 5
ENDMDL
MODEL 8
REMARK VINA RESULT:      -6.1      2.962      5.567
REMARK  5 active torsions:
REMARK  status: ('A' for Active; 'I' for Inactive)
REMARK    1  A    between atoms: O1_2  and  C2_3 
REMARK    2  A    between atoms: C6_9  and  N3_10 
REMARK    3  A    between atoms: N3_10  and  C7_11 
REMARK    4  A    between atoms: C7_11  and  C8_12 
REMARK    5  A    between atoms: C11_16  and  O2_17 
ROOT
HETATM    1  C2  UNL     1      24.039   0.077  53.283  1.00  0.00     0.070 C 
HETATM    2  C3  UNL     1      24.471   0.951  52.423  1.00  0.00     0.048 C 
HETATM    3  C4  UNL     1      23.811   2.036  51.742  1.00  0.00     0.092 C 
HETATM    4  N1  UNL     1      22.581   2.055  52.102  1.00  0.00    -0.162 NA
HETATM    5  C5  UNL     1      21.611   2.978  51.643  1.00  0.00     0.196 A 
HETATM    6  N2  UNL     1      21.228   1.789  51.468  1.00  0.00    -0.271 N 
HETATM    7  C6  UNL     1      20.038   1.263  50.910  1.00  0.00     0.257 C 
HETATM    8  C11 UNL     1      19.255   0.339  51.730  1.00  0.00     0.111 C 
HETATM    9  C13 UNL     1      19.171  -0.436  52.833  1.00  0.00     0.036 C 
HETATM   10  C14 UNL     1      18.015  -1.305  53.289  1.00  0.00     0.070 C 
HETATM   11  N4  UNL     1      20.065  -0.697  53.932  1.00  0.00    -0.370 N 
HETATM   12  C15 UNL     1      21.083  -1.624  54.352  1.00  0.00     0.290 C 
HETATM   13  O3  UNL     1      22.268  -1.507  53.667  1.00  0.00    -0.366 OA
HETATM   14  C16 UNL     1      22.771  -0.215  53.942  1.00  0.00     0.234 C 
HETATM   15  H21 UNL     1      19.823   0.106  54.591  1.00  0.00     0.161 HD
ENDROOT
BRANCH   7  16
HETATM   16  N3  UNL     1      19.317   2.260  50.222  1.00  0.00    -0.392 N 
HETATM   17  H8  UNL     1      18.570   2.755  50.703  1.00  0.00     0.155 HD
BRANCH  16  18
HETATM   18  C7  UNL     1      19.317   2.219  48.808  1.00  0.00     0.145 C 
BRANCH  18  19
HETATM   19  C8  UNL     1      20.248   3.266  48.231  1.00  0.00     0.011 C 
HETATM   20  C9  UNL     1      21.503   3.350  47.838  1.00  0.00     0.005 C 
HETATM   21  C10 UNL     1      22.233   4.520  47.285  1.00  0.00     0.061 C 
HETATM   22 CL1  UNL     1      22.342   1.803  48.040  1.00  0.00    -0.090 Cl
ENDBRANCH  18  19
ENDBRANCH  16  18
ENDBRANCH   7  16
BRANCH   8  23
HETATM   23  O2  UNL     1      17.983   0.121  51.146  1.00  0.00    -0.354 OA
HETATM   24  C12 UNL     1      16.952   1.031  51.528  1.00  0.00     0.209 C 
ENDBRANCH   8  23
BRANCH   1  25
HETATM   25  O1  UNL     1      25.024  -0.802  53.684  1.00  0.00    -0.358 OA
HETATM   26  C1  UNL     1      26.158  -1.065  52.892  1.00  0.00     0.209 C 
ENDBRANCH   1  25
TORSDOF 5
ENDMDL
MODEL 9
REMARK VINA RESULT:      -5.7      4.303      7.689
REMARK  5 active torsions:
REMARK  status: ('A' for Active; 'I' for Inactive)
REMARK    1  A    between atoms: O1_2  and  C2_3 
REMARK    2  A    between atoms: C6_9  and  N3_10 
REMARK    3  A    between atoms: N3_10  and  C7_11 
REMARK    4  A    between atoms: C7_11  and  C8_12 
REMARK    5  A    between atoms: C11_16  and  O2_17 
ROOT
HETATM    1  C2  UNL     1      25.732   8.572  48.111  1.00  0.00     0.070 C 
HETATM    2  C3  UNL     1      26.919   8.439  48.624  1.00  0.00     0.048 C 
HETATM    3  C4  UNL     1      27.735   7.278  48.869  1.00  0.00     0.092 C 
HETATM    4  N1  UNL     1      27.086   6.237  48.495  1.00  0.00    -0.162 NA
HETATM    5  C5  UNL     1      27.559   4.906  48.579  1.00  0.00     0.196 A 
HETATM    6  N2  UNL     1      26.440   5.029  49.147  1.00  0.00    -0.271 N 
HETATM    7  C6  UNL     1      25.626   4.089  49.823  1.00  0.00     0.257 C 
HETATM    8  C11 UNL     1      24.250   3.923  49.356  1.00  0.00     0.111 C 
HETATM    9  C13 UNL     1      23.230   4.368  48.590  1.00  0.00     0.036 C 
HETATM   10  C14 UNL     1      21.841   3.781  48.435  1.00  0.00     0.070 C 
HETATM   11  N4  UNL     1      23.088   5.470  47.672  1.00  0.00    -0.370 N 
HETATM   12  C15 UNL     1      22.645   6.839  47.626  1.00  0.00     0.290 C 
HETATM   13  O3  UNL     1      23.485   7.723  48.257  1.00  0.00    -0.366 OA
HETATM   14  C16 UNL     1      24.716   7.682  47.563  1.00  0.00     0.234 C 
HETATM   15  H21 UNL     1      23.455   5.037  46.769  1.00  0.00     0.161 HD
ENDROOT
BRANCH   7  16
HETATM   16  N3  UNL     1      26.342   2.908  50.104  1.00  0.00    -0.392 N 
HETATM   17  H8  UNL     1      26.313   2.138  49.439  1.00  0.00     0.155 HD
BRANCH  16  18
HETATM   18  C7  UNL     1      26.675   2.641  51.453  1.00  0.00     0.145 C 
BRANCH  18  19
HETATM   19  C8  UNL     1      26.858   1.155  51.686  1.00  0.00     0.011 C 
HETATM   20  C9  UNL     1      26.330   0.211  52.439  1.00  0.00     0.005 C 
HETATM   21  C10 UNL     1      26.678  -1.233  52.507  1.00  0.00     0.061 C 
HETATM   22 CL1  UNL     1      25.042   0.857  53.468  1.00  0.00    -0.090 Cl
ENDBRANCH  18  19
ENDBRANCH  16  18
ENDBRANCH   7  16
BRANCH   8  23
HETATM   23  O2  UNL     1      23.666   2.776  49.947  1.00  0.00    -0.354 OA
HETATM   24  C12 UNL     1      23.116   2.952  51.253  1.00  0.00     0.209 C 
ENDBRANCH   8  23
BRANCH   1  25
HETATM   25  O1  UNL     1      25.320   9.889  48.065  1.00  0.00    -0.358 OA
HETATM   26  C1  UNL     1      26.039  10.871  47.358  1.00  0.00     0.209 C 
ENDBRANCH   1  25
TORSDOF 5
ENDMDL
