MODEL 1
REMARK VINA RESULT:      -7.7      0.000      0.000
REMARK  5 active torsions:
REMARK  status: ('A' for Active; 'I' for Inactive)
REMARK    1  A    between atoms: C2_2  and  C3_3 
REMARK    2  A    between atoms: C6_7  and  N1_8 
REMARK    3  A    between atoms: C7_9  and  N2_10 
REMARK    4  A    between atoms: C8_11  and  N3_12 
REMARK    5  A    between atoms: N3_12  and  C9_13 
ROOT
HETATM    1  N2  UNL     1      22.328  -0.880  55.392  1.00  0.00    -0.237 NA
HETATM    2  C8  UNL     1      21.412  -1.334  54.586  1.00  0.00     0.208 C 
ENDROOT
BRANCH   1   3
HETATM    3  C7  UNL     1      23.469  -1.646  55.744  1.00  0.00     0.238 C 
HETATM    4  N1  UNL     1      24.698  -1.517  55.453  1.00  0.00    -0.200 NA
BRANCH   4   5
HETATM    5  C6  UNL     1      25.278  -0.504  54.650  1.00  0.00     0.269 C 
HETATM    6  O1  UNL     1      24.726   0.166  53.539  1.00  0.00    -0.289 OA
HETATM    7  C5  UNL     1      25.407   0.515  52.354  1.00  0.00     0.142 C 
HETATM    8  C4  UNL     1      26.734   0.582  52.165  1.00  0.00     0.004 C 
HETATM    9  C3  UNL     1      27.874   0.321  53.103  1.00  0.00     0.029 C 
HETATM   10  C15 UNL     1      27.408   0.793  54.480  1.00  0.00     0.161 C 
HETATM   11  N4  UNL     1      26.491  -0.182  55.031  1.00  0.00    -0.248 NA
BRANCH   9  12
HETATM   12  C2  UNL     1      28.098  -1.182  53.109  1.00  0.00     0.006 C 
HETATM   13  C1  UNL     1      29.509  -1.550  53.441  1.00  0.00     0.006 C 
ENDBRANCH   9  12
ENDBRANCH   4   5
ENDBRANCH   1   3
BRANCH   2  14
HETATM   14  N3  UNL     1      20.304  -0.451  54.313  1.00  0.00    -0.351 N 
HETATM   15  H11 UNL     1      19.702  -0.222  55.137  1.00  0.00     0.166 HD
BRANCH  14  16
HETATM   16  C9  UNL     1      20.230  -0.049  52.929  1.00  0.00     0.034 A 
HETATM   17  C10 UNL     1      21.430   0.398  52.400  1.00  0.00     0.032 A 
HETATM   18  C11 UNL     1      21.386   0.806  51.073  1.00  0.00     0.046 A 
HETATM   19  C12 UNL     1      20.211   0.761  50.349  1.00  0.00     0.138 A 
HETATM   20  F1  UNL     1      20.191   1.173  49.036  1.00  0.00    -0.204 F 
HETATM   21  C13 UNL     1      19.044   0.308  50.920  1.00  0.00     0.074 A 
HETATM   22 CL1  UNL     1      17.528   0.232  50.041  1.00  0.00    -0.081 Cl
HETATM   23  C14 UNL     1      19.021  -0.116  52.249  1.00  0.00     0.056 A 
ENDBRANCH  14  16
ENDBRANCH   2  14
TORSDOF 5
ENDMDL
MODEL 2
REMARK VINA RESULT:      -7.6      2.922      4.057
REMARK  5 active torsions:
REMARK  status: ('A' for Active; 'I' for Inactive)
REMARK    1  A    between atoms: C2_2  and  C3_3 
REMARK    2  A    between atoms: C6_7  and  N1_8 
REMARK    3  A    between atoms: C7_9  and  N2_10 
REMARK    4  A    between atoms: C8_11  and  N3_12 
REMARK    5  A    between atoms: N3_12  and  C9_13 
ROOT
HETATM    1  N2  UNL     1      24.684   2.965  51.379  1.00  0.00    -0.237 NA
HETATM    2  C8  UNL     1      23.716   2.130  51.138  1.00  0.00     0.208 C 
ENDROOT
BRANCH   1   3
HETATM    3  C7  UNL     1      25.944   2.864  50.735  1.00  0.00     0.238 C 
HETATM    4  N1  UNL     1      27.098   2.569  51.175  1.00  0.00    -0.200 NA
BRANCH   4   5
HETATM    5  C6  UNL     1      27.441   2.243  52.510  1.00  0.00     0.269 C 
HETATM    6  O1  UNL     1      28.514   2.723  53.288  1.00  0.00    -0.289 OA
HETATM    7  C5  UNL     1      29.308   1.963  54.172  1.00  0.00     0.142 C 
HETATM    8  C4  UNL     1      29.024   0.758  54.692  1.00  0.00     0.004 C 
HETATM    9  C3  UNL     1      27.831  -0.132  54.515  1.00  0.00     0.029 C 
HETATM   10  C15 UNL     1      26.625   0.796  54.378  1.00  0.00     0.161 C 
HETATM   11  N4  UNL     1      26.619   1.376  53.051  1.00  0.00    -0.248 NA
BRANCH   9  12
HETATM   12  C2  UNL     1      28.052  -0.903  53.224  1.00  0.00     0.006 C 
HETATM   13  C1  UNL     1      29.330  -1.679  53.232  1.00  0.00     0.006 C 
ENDBRANCH   9  12
ENDBRANCH   4   5
ENDBRANCH   1   3
BRANCH   2  14
HETATM   14  N3  UNL     1      22.487   2.347  51.861  1.00  0.00    -0.351 N 
HETATM   15  H11 UNL     1      22.079   3.305  51.771  1.00  0.00     0.166 HD
BRANCH  14  16
HETATM   16  C9  UNL     1      22.047   1.182  52.592  1.00  0.00     0.034 A 
HETATM   17  C10 UNL     1      23.058   0.519  53.268  1.00  0.00     0.032 A 
HETATM   18  C11 UNL     1      22.667  -0.615  53.969  1.00  0.00     0.046 A 
HETATM   19  C12 UNL     1      21.352  -1.035  53.976  1.00  0.00     0.138 A 
HETATM   20  F1  UNL     1      20.988  -2.163  54.674  1.00  0.00    -0.204 F 
HETATM   21  C13 UNL     1      20.383  -0.340  53.287  1.00  0.00     0.074 A 
HETATM   22 CL1  UNL     1      18.700  -0.833  53.266  1.00  0.00    -0.081 Cl
HETATM   23  C14 UNL     1      20.711   0.808  52.563  1.00  0.00     0.056 A 
ENDBRANCH  14  16
ENDBRANCH   2  14
TORSDOF 5
ENDMDL
MODEL 3
REMARK VINA RESULT:      -7.6      4.420      7.535
REMARK  5 active torsions:
REMARK  status: ('A' for Active; 'I' for Inactive)
REMARK    1  A    between atoms: C2_2  and  C3_3 
REMARK    2  A    between atoms: C6_7  and  N1_8 
REMARK    3  A    between atoms: C7_9  and  N2_10 
REMARK    4  A    between atoms: C8_11  and  N3_12 
REMARK    5  A    between atoms: N3_12  and  C9_13 
ROOT
HETATM    1  N2  UNL     1      25.044   3.438  50.809  1.00  0.00    -0.237 NA
HETATM    2  C8  UNL     1      26.031   2.635  51.081  1.00  0.00     0.208 C 
ENDROOT
BRANCH   1   3
HETATM    3  C7  UNL     1      24.409   3.448  49.540  1.00  0.00     0.238 C 
HETATM    4  N1  UNL     1      23.239   3.114  49.176  1.00  0.00    -0.200 NA
BRANCH   4   5
HETATM    5  C6  UNL     1      22.203   2.614  50.003  1.00  0.00     0.269 C 
HETATM    6  O1  UNL     1      21.267   3.332  50.776  1.00  0.00    -0.289 OA
HETATM    7  C5  UNL     1      20.823   2.994  52.071  1.00  0.00     0.142 C 
HETATM    8  C4  UNL     1      20.931   1.806  52.687  1.00  0.00     0.004 C 
HETATM    9  C3  UNL     1      21.530   0.511  52.225  1.00  0.00     0.029 C 
HETATM   10  C15 UNL     1      21.244   0.422  50.726  1.00  0.00     0.161 C 
HETATM   11  N4  UNL     1      22.147   1.304  50.017  1.00  0.00    -0.248 NA
BRANCH   9  12
HETATM   12  C2  UNL     1      23.026   0.611  52.471  1.00  0.00     0.006 C 
HETATM   13  C1  UNL     1      23.492  -0.317  53.547  1.00  0.00     0.006 C 
ENDBRANCH   9  12
ENDBRANCH   4   5
ENDBRANCH   1   3
BRANCH   2  14
HETATM   14  N3  UNL     1      26.586   2.729  52.410  1.00  0.00    -0.351 N 
HETATM   15  H11 UNL     1      26.372   3.616  52.922  1.00  0.00     0.166 HD
BRANCH  14  16
HETATM   16  C9  UNL     1      27.349   1.564  52.788  1.00  0.00     0.034 A 
HETATM   17  C10 UNL     1      28.539   1.848  53.437  1.00  0.00     0.032 A 
HETATM   18  C11 UNL     1      29.303   0.746  53.800  1.00  0.00     0.046 A 
HETATM   19  C12 UNL     1      28.883  -0.539  53.521  1.00  0.00     0.138 A 
HETATM   20  F1  UNL     1      29.658  -1.615  53.887  1.00  0.00    -0.204 F 
HETATM   21  C13 UNL     1      27.691  -0.770  52.872  1.00  0.00     0.074 A 
HETATM   22 CL1  UNL     1      27.116  -2.384  52.496  1.00  0.00    -0.081 Cl
HETATM   23  C14 UNL     1      26.877   0.295  52.481  1.00  0.00     0.056 A 
ENDBRANCH  14  16
ENDBRANCH   2  14
TORSDOF 5
ENDMDL
MODEL 4
REMARK VINA RESULT:      -7.5      2.026      2.338
REMARK  5 active torsions:
REMARK  status: ('A' for Active; 'I' for Inactive)
REMARK    1  A    between atoms: C2_2  and  C3_3 
REMARK    2  A    between atoms: C6_7  and  N1_8 
REMARK    3  A    between atoms: C7_9  and  N2_10 
REMARK    4  A    between atoms: C8_11  and  N3_12 
REMARK    5  A    between atoms: N3_12  and  C9_13 
ROOT
HETATM    1  N2  UNL     1      21.995  -0.888  54.195  1.00  0.00    -0.237 NA
HETATM    2  C8  UNL     1      21.274   0.174  54.406  1.00  0.00     0.208 C 
ENDROOT
BRANCH   1   3
HETATM    3  C7  UNL     1      22.895  -1.392  55.169  1.00  0.00     0.238 C 
HETATM    4  N1  UNL     1      24.140  -1.213  55.343  1.00  0.00    -0.200 NA
BRANCH   4   5
HETATM    5  C6  UNL     1      25.001  -0.409  54.556  1.00  0.00     0.269 C 
HETATM    6  O1  UNL     1      24.669   0.481  53.515  1.00  0.00    -0.289 OA
HETATM    7  C5  UNL     1      25.380   0.655  52.309  1.00  0.00     0.142 C 
HETATM    8  C4  UNL     1      26.640   0.277  52.042  1.00  0.00     0.004 C 
HETATM    9  C3  UNL     1      27.657  -0.419  52.896  1.00  0.00     0.029 C 
HETATM   10  C15 UNL     1      27.439   0.091  54.320  1.00  0.00     0.161 C 
HETATM   11  N4  UNL     1      26.265  -0.546  54.878  1.00  0.00    -0.248 NA
BRANCH   9  12
HETATM   12  C2  UNL     1      27.350  -1.905  52.816  1.00  0.00     0.006 C 
HETATM   13  C1  UNL     1      28.567  -2.753  53.001  1.00  0.00     0.006 C 
ENDBRANCH   9  12
ENDBRANCH   4   5
ENDBRANCH   1   3
BRANCH   2  14
HETATM   14  N3  UNL     1      20.398   0.579  53.333  1.00  0.00    -0.351 N 
HETATM   15  H11 UNL     1      19.378   0.430  53.508  1.00  0.00     0.166 HD
BRANCH  14  16
HETATM   16  C9  UNL     1      21.107   1.116  52.197  1.00  0.00     0.034 A 
HETATM   17  C10 UNL     1      20.933   0.399  51.024  1.00  0.00     0.032 A 
HETATM   18  C11 UNL     1      21.616   0.885  49.916  1.00  0.00     0.046 A 
HETATM   19  C12 UNL     1      22.410   2.011  50.002  1.00  0.00     0.138 A 
HETATM   20  F1  UNL     1      23.080   2.472  48.892  1.00  0.00    -0.204 F 
HETATM   21  C13 UNL     1      22.551   2.690  51.191  1.00  0.00     0.074 A 
HETATM   22 CL1  UNL     1      23.548   4.124  51.350  1.00  0.00    -0.081 Cl
HETATM   23  C14 UNL     1      21.892   2.253  52.341  1.00  0.00     0.056 A 
ENDBRANCH  14  16
ENDBRANCH   2  14
TORSDOF 5
ENDMDL
MODEL 5
REMARK VINA RESULT:      -7.4      3.840      7.471
REMARK  5 active torsions:
REMARK  status: ('A' for Active; 'I' for Inactive)
REMARK    1  A    between atoms: C2_2  and  C3_3 
REMARK    2  A    between atoms: C6_7  and  N1_8 
REMARK    3  A    between atoms: C7_9  and  N2_10 
REMARK    4  A    between atoms: C8_11  and  N3_12 
REMARK    5  A    between atoms: N3_12  and  C9_13 
ROOT
HETATM    1  N2  UNL     1      24.399   3.307  51.941  1.00  0.00    -0.237 NA
HETATM    2  C8  UNL     1      25.420   2.591  51.571  1.00  0.00     0.208 C 
ENDROOT
BRANCH   1   3
HETATM    3  C7  UNL     1      23.113   3.140  51.366  1.00  0.00     0.238 C 
HETATM    4  N1  UNL     1      22.167   2.334  51.628  1.00  0.00    -0.200 NA
BRANCH   4   5
HETATM    5  C6  UNL     1      22.157   1.332  52.629  1.00  0.00     0.269 C 
HETATM    6  O1  UNL     1      23.090   0.299  52.853  1.00  0.00    -0.289 OA
HETATM    7  C5  UNL     1      22.789  -1.030  53.219  1.00  0.00     0.142 C 
HETATM    8  C4  UNL     1      21.639  -1.495  53.731  1.00  0.00     0.004 C 
HETATM    9  C3  UNL     1      20.359  -0.791  54.067  1.00  0.00     0.029 C 
HETATM   10  C15 UNL     1      20.755   0.598  54.564  1.00  0.00     0.161 C 
HETATM   11  N4  UNL     1      21.123   1.421  53.432  1.00  0.00    -0.248 NA
BRANCH   9  12
HETATM   12  C2  UNL     1      19.569  -0.683  52.773  1.00  0.00     0.006 C 
HETATM   13  C1  UNL     1      18.134  -1.069  52.944  1.00  0.00     0.006 C 
ENDBRANCH   9  12
ENDBRANCH   4   5
ENDBRANCH   1   3
BRANCH   2  14
HETATM   14  N3  UNL     1      26.670   2.863  52.237  1.00  0.00    -0.351 N 
HETATM   15  H11 UNL     1      26.919   3.876  52.323  1.00  0.00     0.166 HD
BRANCH  14  16
HETATM   16  C9  UNL     1      27.357   1.668  52.662  1.00  0.00     0.034 A 
HETATM   17  C10 UNL     1      28.534   1.902  53.355  1.00  0.00     0.032 A 
HETATM   18  C11 UNL     1      29.226   0.769  53.764  1.00  0.00     0.046 A 
HETATM   19  C12 UNL     1      28.751  -0.498  53.487  1.00  0.00     0.138 A 
HETATM   20  F1  UNL     1      29.455  -1.606  53.900  1.00  0.00    -0.204 F 
HETATM   21  C13 UNL     1      27.575  -0.679  52.795  1.00  0.00     0.074 A 
HETATM   22 CL1  UNL     1      26.932  -2.267  52.420  1.00  0.00    -0.081 Cl
HETATM   23  C14 UNL     1      26.833   0.419  52.356  1.00  0.00     0.056 A 
ENDBRANCH  14  16
ENDBRANCH   2  14
TORSDOF 5
ENDMDL
MODEL 6
REMARK VINA RESULT:      -7.4      5.668      7.266
REMARK  5 active torsions:
REMARK  status: ('A' for Active; 'I' for Inactive)
REMARK    1  A    between atoms: C2_2  and  C3_3 
REMARK    2  A    between atoms: C6_7  and  N1_8 
REMARK    3  A    between atoms: C7_9  and  N2_10 
REMARK    4  A    between atoms: C8_11  and  N3_12 
REMARK    5  A    between atoms: N3_12  and  C9_13 
ROOT
HETATM    1  N2  UNL     1      25.309   2.991  51.259  1.00  0.00    -0.237 NA
HETATM    2  C8  UNL     1      25.244   4.026  50.473  1.00  0.00     0.208 C 
ENDROOT
BRANCH   1   3
HETATM    3  C7  UNL     1      24.612   2.937  52.493  1.00  0.00     0.238 C 
HETATM    4  N1  UNL     1      24.973   2.574  53.655  1.00  0.00    -0.200 NA
BRANCH   4   5
HETATM    5  C6  UNL     1      26.252   2.098  54.036  1.00  0.00     0.269 C 
HETATM    6  O1  UNL     1      27.498   2.754  53.954  1.00  0.00    -0.289 OA
HETATM    7  C5  UNL     1      28.723   2.168  53.573  1.00  0.00     0.142 C 
HETATM    8  C4  UNL     1      29.025   0.861  53.529  1.00  0.00     0.004 C 
HETATM    9  C3  UNL     1      28.200  -0.348  53.855  1.00  0.00     0.029 C 
HETATM   10  C15 UNL     1      27.299   0.053  55.022  1.00  0.00     0.161 C 
HETATM   11  N4  UNL     1      26.220   0.882  54.527  1.00  0.00    -0.248 NA
BRANCH   9  12
HETATM   12  C2  UNL     1      27.363  -0.649  52.622  1.00  0.00     0.006 C 
HETATM   13  C1  UNL     1      27.014  -2.098  52.507  1.00  0.00     0.006 C 
ENDBRANCH   9  12
ENDBRANCH   4   5
ENDBRANCH   1   3
BRANCH   2  14
HETATM   14  N3  UNL     1      26.002   3.949  49.248  1.00  0.00    -0.351 N 
HETATM   15  H11 UNL     1      25.931   3.040  48.735  1.00  0.00     0.166 HD
BRANCH  14  16
HETATM   16  C9  UNL     1      26.734   5.158  48.959  1.00  0.00     0.034 A 
HETATM   17  C10 UNL     1      28.019   4.948  48.486  1.00  0.00     0.032 A 
HETATM   18  C11 UNL     1      28.753   6.095  48.213  1.00  0.00     0.046 A 
HETATM   19  C12 UNL     1      28.216   7.352  48.407  1.00  0.00     0.138 A 
HETATM   20  F1  UNL     1      28.963   8.474  48.132  1.00  0.00    -0.204 F 
HETATM   21  C13 UNL     1      26.933   7.509  48.879  1.00  0.00     0.074 A 
HETATM   22 CL1  UNL     1      26.206   9.084  49.141  1.00  0.00    -0.081 Cl
HETATM   23  C14 UNL     1      26.143   6.396  49.172  1.00  0.00     0.056 A 
ENDBRANCH  14  16
ENDBRANCH   2  14
TORSDOF 5
ENDMDL
MODEL 7
REMARK VINA RESULT:      -7.2      4.087      6.938
REMARK  5 active torsions:
REMARK  status: ('A' for Active; 'I' for Inactive)
REMARK    1  A    between atoms: C2_2  and  C3_3 
REMARK    2  A    between atoms: C6_7  and  N1_8 
REMARK    3  A    between atoms: C7_9  and  N2_10 
REMARK    4  A    between atoms: C8_11  and  N3_12 
REMARK    5  A    between atoms: N3_12  and  C9_13 
ROOT
HETATM    1  N2  UNL     1      22.782  -0.985  53.961  1.00  0.00    -0.237 NA
HETATM    2  C8  UNL     1      23.927  -0.457  54.282  1.00  0.00     0.208 C 
ENDROOT
BRANCH   1   3
HETATM    3  C7  UNL     1      21.576  -0.623  54.616  1.00  0.00     0.238 C 
HETATM    4  N1  UNL     1      20.596   0.095  54.248  1.00  0.00    -0.200 NA
BRANCH   4   5
HETATM    5  C6  UNL     1      20.449   0.760  53.007  1.00  0.00     0.269 C 
HETATM    6  O1  UNL     1      20.376   0.207  51.712  1.00  0.00    -0.289 OA
HETATM    7  C5  UNL     1      20.984   0.726  50.549  1.00  0.00     0.142 C 
HETATM    8  C4  UNL     1      21.458   1.967  50.361  1.00  0.00     0.004 C 
HETATM    9  C3  UNL     1      21.498   3.152  51.278  1.00  0.00     0.029 C 
HETATM   10  C15 UNL     1      20.222   3.085  52.116  1.00  0.00     0.161 C 
HETATM   11  N4  UNL     1      20.373   2.064  53.131  1.00  0.00    -0.248 NA
BRANCH   9  12
HETATM   12  C2  UNL     1      22.721   2.976  52.164  1.00  0.00     0.006 C 
HETATM   13  C1  UNL     1      23.346   4.280  52.544  1.00  0.00     0.006 C 
ENDBRANCH   9  12
ENDBRANCH   4   5
ENDBRANCH   1   3
BRANCH   2  14
HETATM   14  N3  UNL     1      25.075  -0.913  53.537  1.00  0.00    -0.351 N 
HETATM   15  H11 UNL     1      24.971  -1.851  53.087  1.00  0.00     0.166 HD
BRANCH  14  16
HETATM   16  C9  UNL     1      26.172   0.024  53.558  1.00  0.00     0.034 A 
HETATM   17  C10 UNL     1      25.786   1.353  53.620  1.00  0.00     0.032 A 
HETATM   18  C11 UNL     1      26.821   2.279  53.627  1.00  0.00     0.046 A 
HETATM   19  C12 UNL     1      28.141   1.878  53.575  1.00  0.00     0.138 A 
HETATM   20  F1  UNL     1      29.150   2.813  53.580  1.00  0.00    -0.204 F 
HETATM   21  C13 UNL     1      28.474   0.544  53.514  1.00  0.00     0.074 A 
HETATM   22 CL1  UNL     1      30.136  -0.015  53.446  1.00  0.00    -0.081 Cl
HETATM   23  C14 UNL     1      27.481  -0.437  53.504  1.00  0.00     0.056 A 
ENDBRANCH  14  16
ENDBRANCH   2  14
TORSDOF 5
ENDMDL
MODEL 8
REMARK VINA RESULT:      -7.0      3.968      7.080
REMARK  5 active torsions:
REMARK  status: ('A' for Active; 'I' for Inactive)
REMARK    1  A    between atoms: C2_2  and  C3_3 
REMARK    2  A    between atoms: C6_7  and  N1_8 
REMARK    3  A    between atoms: C7_9  and  N2_10 
REMARK    4  A    between atoms: C8_11  and  N3_12 
REMARK    5  A    between atoms: N3_12  and  C9_13 
ROOT
HETATM    1  N2  UNL     1      23.125   4.590  50.865  1.00  0.00    -0.237 NA
HETATM    2  C8  UNL     1      23.975   4.106  51.724  1.00  0.00     0.208 C 
ENDROOT
BRANCH   1   3
HETATM    3  C7  UNL     1      21.973   5.311  51.270  1.00  0.00     0.238 C 
HETATM    4  N1  UNL     1      20.809   4.929  51.606  1.00  0.00    -0.200 NA
BRANCH   4   5
HETATM    5  C6  UNL     1      20.338   3.595  51.666  1.00  0.00     0.269 C 
HETATM    6  O1  UNL     1      20.251   2.739  52.783  1.00  0.00    -0.289 OA
HETATM    7  C5  UNL     1      20.549   1.361  52.803  1.00  0.00     0.142 C 
HETATM    8  C4  UNL     1      20.656   0.534  51.751  1.00  0.00     0.004 C 
HETATM    9  C3  UNL     1      20.500   0.789  50.282  1.00  0.00     0.029 C 
HETATM   10  C15 UNL     1      19.402   1.844  50.147  1.00  0.00     0.161 C 
HETATM   11  N4  UNL     1      19.941   3.140  50.502  1.00  0.00    -0.248 NA
BRANCH   9  12
HETATM   12  C2  UNL     1      21.827   1.346  49.793  1.00  0.00     0.006 C 
HETATM   13  C1  UNL     1      21.911   1.401  48.301  1.00  0.00     0.006 C 
ENDBRANCH   9  12
ENDBRANCH   4   5
ENDBRANCH   1   3
BRANCH   2  14
HETATM   14  N3  UNL     1      25.104   3.393  51.177  1.00  0.00    -0.351 N 
HETATM   15  H11 UNL     1      25.612   3.886  50.407  1.00  0.00     0.166 HD
BRANCH  14  16
HETATM   16  C9  UNL     1      25.319   2.111  51.802  1.00  0.00     0.034 A 
HETATM   17  C10 UNL     1      26.578   1.575  51.585  1.00  0.00     0.032 A 
HETATM   18  C11 UNL     1      26.809   0.333  52.162  1.00  0.00     0.046 A 
HETATM   19  C12 UNL     1      25.833  -0.307  52.900  1.00  0.00     0.138 A 
HETATM   20  F1  UNL     1      26.084  -1.538  53.460  1.00  0.00    -0.204 F 
HETATM   21  C13 UNL     1      24.596   0.268  53.088  1.00  0.00     0.074 A 
HETATM   22 CL1  UNL     1      23.325  -0.505  54.017  1.00  0.00    -0.081 Cl
HETATM   23  C14 UNL     1      24.301   1.514  52.534  1.00  0.00     0.056 A 
ENDBRANCH  14  16
ENDBRANCH   2  14
TORSDOF 5
ENDMDL
MODEL 9
REMARK VINA RESULT:      -7.0      5.919      7.848
REMARK  5 active torsions:
REMARK  status: ('A' for Active; 'I' for Inactive)
REMARK    1  A    between atoms: C2_2  and  C3_3 
REMARK    2  A    between atoms: C6_7  and  N1_8 
REMARK    3  A    between atoms: C7_9  and  N2_10 
REMARK    4  A    between atoms: C8_11  and  N3_12 
REMARK    5  A    between atoms: N3_12  and  C9_13 
ROOT
HETATM    1  N2  UNL     1      23.439   3.179  51.536  1.00  0.00    -0.237 NA
HETATM    2  C8  UNL     1      24.340   2.556  52.238  1.00  0.00     0.208 C 
ENDROOT
BRANCH   1   3
HETATM    3  C7  UNL     1      22.595   4.170  52.102  1.00  0.00     0.238 C 
HETATM    4  N1  UNL     1      22.439   5.401  51.835  1.00  0.00    -0.200 NA
BRANCH   4   5
HETATM    5  C6  UNL     1      23.112   6.146  50.836  1.00  0.00     0.269 C 
HETATM    6  O1  UNL     1      22.630   6.583  49.585  1.00  0.00    -0.289 OA
HETATM    7  C5  UNL     1      23.349   6.587  48.372  1.00  0.00     0.142 C 
HETATM    8  C4  UNL     1      24.678   6.498  48.210  1.00  0.00     0.004 C 
HETATM    9  C3  UNL     1      25.783   6.369  49.215  1.00  0.00     0.029 C 
HETATM   10  C15 UNL     1      25.349   7.187  50.431  1.00  0.00     0.161 C 
HETATM   11  N4  UNL     1      24.345   6.447  51.167  1.00  0.00    -0.248 NA
BRANCH   9  12
HETATM   12  C2  UNL     1      25.874   4.895  49.576  1.00  0.00     0.006 C 
HETATM   13  C1  UNL     1      27.140   4.264  49.090  1.00  0.00     0.006 C 
ENDBRANCH   9  12
ENDBRANCH   4   5
ENDBRANCH   1   3
BRANCH   2  14
HETATM   14  N3  UNL     1      25.131   1.572  51.538  1.00  0.00    -0.351 N 
HETATM   15  H11 UNL     1      24.709   1.207  50.654  1.00  0.00     0.166 HD
BRANCH  14  16
HETATM   16  C9  UNL     1      26.373   1.267  52.206  1.00  0.00     0.034 A 
HETATM   17  C10 UNL     1      27.062   2.378  52.665  1.00  0.00     0.032 A 
HETATM   18  C11 UNL     1      28.269   2.116  53.299  1.00  0.00     0.046 A 
HETATM   19  C12 UNL     1      28.733   0.824  53.450  1.00  0.00     0.138 A 
HETATM   20  F1  UNL     1      29.934   0.589  54.079  1.00  0.00    -0.204 F 
HETATM   21  C13 UNL     1      28.011  -0.248  52.976  1.00  0.00     0.074 A 
HETATM   22 CL1  UNL     1      28.559  -1.906  53.144  1.00  0.00    -0.081 Cl
HETATM   23  C14 UNL     1      26.790  -0.052  52.329  1.00  0.00     0.056 A 
ENDBRANCH  14  16
ENDBRANCH   2  14
TORSDOF 5
ENDMDL
