MODEL 1
REMARK VINA RESULT:      -8.3      0.000      0.000
REMARK  8 active torsions:
REMARK  status: ('A' for Active; 'I' for Inactive)
REMARK    1  A    between atoms: C2_2  and  C3_3 
REMARK    2  A    between atoms: C3_3  and  C4_4 
REMARK    3  A    between atoms: C3_3  and  C22_29 
REMARK    4  A    between atoms: C4_4  and  C5_5 
REMARK    5  A    between atoms: C6_6  and  C7_7 
REMARK    6  A    between atoms: N3_17  and  C13_18 
REMARK    7  A    between atoms: C13_18  and  C14_19 
REMARK    8  A    between atoms: C14_19  and  N4_20 
ROOT
HETATM    1  C7  UNL     1      20.533   0.396  50.833  1.00  0.00     0.070 A 
HETATM    2  N1  UNL     1      19.211   0.462  50.747  1.00  0.00    -0.241 NA
HETATM    3  C8  UNL     1      18.354   0.160  51.715  1.00  0.00     0.234 A 
HETATM    4  N2  UNL     1      18.840  -0.254  52.899  1.00  0.00    -0.241 NA
HETATM    5  C9  UNL     1      20.171  -0.349  53.069  1.00  0.00     0.073 A 
HETATM    6  C10 UNL     1      20.653  -0.777  54.284  1.00  0.00     0.072 A 
HETATM    7  C11 UNL     1      21.997  -0.912  54.565  1.00  0.00     0.110 A 
HETATM    8  O1  UNL     1      22.733  -1.281  55.588  1.00  0.00    -0.259 OA
HETATM    9  C12 UNL     1      24.017  -1.205  55.245  1.00  0.00     0.373 A 
HETATM   10  O2  UNL     1      25.002  -1.488  55.992  1.00  0.00    -0.237 OA
HETATM   11  N3  UNL     1      24.099  -0.773  53.963  1.00  0.00    -0.289 N 
HETATM   12  C19 UNL     1      22.844  -0.584  53.520  1.00  0.00     0.074 A 
HETATM   13  C20 UNL     1      22.342  -0.160  52.316  1.00  0.00     0.049 A 
HETATM   14  C21 UNL     1      21.004  -0.029  52.049  1.00  0.00     0.024 A 
ENDROOT
BRANCH   1  15
HETATM   15  C6  UNL     1      21.430   0.733  49.744  1.00  0.00     0.029 C 
HETATM   16  C5  UNL     1      22.184   1.747  49.375  1.00  0.00    -0.018 C 
BRANCH  16  17
HETATM   17  C4  UNL     1      22.167   2.915  50.270  1.00  0.00     0.026 C 
BRANCH  17  18
HETATM   18  C3  UNL     1      21.823   3.741  51.301  1.00  0.00    -0.025 C 
BRANCH  18  19
HETATM   19  C2  UNL     1      20.606   3.915  52.147  1.00  0.00     0.006 C 
HETATM   20  C1  UNL     1      19.304   3.874  51.450  1.00  0.00     0.006 C 
ENDBRANCH  18  19
BRANCH  18  21
HETATM   21  C22 UNL     1      22.934   4.599  51.750  1.00  0.00     0.006 C 
HETATM   22  C23 UNL     1      23.765   4.120  52.878  1.00  0.00     0.006 C 
ENDBRANCH  18  21
ENDBRANCH  17  18
ENDBRANCH  16  17
ENDBRANCH   1  15
BRANCH  11  23
HETATM   23  C13 UNL     1      25.336  -0.573  53.262  1.00  0.00     0.154 C 
BRANCH  23  24
HETATM   24  C14 UNL     1      25.654   0.913  53.119  1.00  0.00     0.137 C 
BRANCH  24  25
HETATM   25  N4  UNL     1      26.875   1.224  53.784  1.00  0.00    -0.407 N 
HETATM   26  C15 UNL     1      27.649   2.285  53.219  1.00  0.00     0.143 C 
HETATM   27  C16 UNL     1      29.031   2.398  53.803  1.00  0.00     0.187 C 
HETATM   28  O3  UNL     1      29.134   1.668  54.993  1.00  0.00    -0.388 OA
HETATM   29  C17 UNL     1      29.000   0.329  54.637  1.00  0.00     0.187 C 
HETATM   30  C18 UNL     1      27.582   0.088  54.218  1.00  0.00     0.143 C 
ENDBRANCH  24  25
ENDBRANCH  23  24
ENDBRANCH  11  23
TORSDOF 8
ENDMDL
MODEL 2
REMARK VINA RESULT:      -8.3      2.370      6.311
REMARK  8 active torsions:
REMARK  status: ('A' for Active; 'I' for Inactive)
REMARK    1  A    between atoms: C2_2  and  C3_3 
REMARK    2  A    between atoms: C3_3  and  C4_4 
REMARK    3  A    between atoms: C3_3  and  C22_29 
REMARK    4  A    between atoms: C4_4  and  C5_5 
REMARK    5  A    between atoms: C6_6  and  C7_7 
REMARK    6  A    between atoms: N3_17  and  C13_18 
REMARK    7  A    between atoms: C13_18  and  C14_19 
REMARK    8  A    between atoms: C14_19  and  N4_20 
ROOT
HETATM    1  C7  UNL     1      24.402  -0.124  53.579  1.00  0.00     0.070 A 
HETATM    2  N1  UNL     1      25.037  -0.631  54.627  1.00  0.00    -0.241 NA
HETATM    3  C8  UNL     1      24.472  -1.294  55.631  1.00  0.00     0.234 A 
HETATM    4  N2  UNL     1      23.141  -1.482  55.609  1.00  0.00    -0.241 NA
HETATM    5  C9  UNL     1      22.422  -0.998  54.580  1.00  0.00     0.073 A 
HETATM    6  C10 UNL     1      21.061  -1.195  54.573  1.00  0.00     0.072 A 
HETATM    7  C11 UNL     1      20.230  -0.740  53.571  1.00  0.00     0.110 A 
HETATM    8  O1  UNL     1      18.946  -0.773  53.297  1.00  0.00    -0.259 OA
HETATM    9  C12 UNL     1      18.736  -0.138  52.145  1.00  0.00     0.373 A 
HETATM   10  O2  UNL     1      17.611   0.019  51.582  1.00  0.00    -0.237 OA
HETATM   11  N3  UNL     1      19.923   0.310  51.673  1.00  0.00    -0.289 N 
HETATM   12  C19 UNL     1      20.872  -0.056  52.552  1.00  0.00     0.074 A 
HETATM   13  C20 UNL     1      22.231   0.130  52.578  1.00  0.00     0.049 A 
HETATM   14  C21 UNL     1      23.046  -0.328  53.581  1.00  0.00     0.024 A 
ENDROOT
BRANCH   1  15
HETATM   15  C6  UNL     1      25.063   0.598  52.508  1.00  0.00     0.029 C 
HETATM   16  C5  UNL     1      26.288   0.797  52.073  1.00  0.00    -0.018 C 
BRANCH  16  17
HETATM   17  C4  UNL     1      27.355   0.134  52.839  1.00  0.00     0.026 C 
BRANCH  17  18
HETATM   18  C3  UNL     1      28.526  -0.056  53.514  1.00  0.00    -0.025 C 
BRANCH  18  19
HETATM   19  C2  UNL     1      29.571  -1.122  53.528  1.00  0.00     0.006 C 
HETATM   20  C1  UNL     1      29.119  -2.496  53.226  1.00  0.00     0.006 C 
ENDBRANCH  18  19
BRANCH  18  21
HETATM   21  C22 UNL     1      28.900   1.093  54.358  1.00  0.00     0.006 C 
HETATM   22  C23 UNL     1      28.862   2.442  53.746  1.00  0.00     0.006 C 
ENDBRANCH  18  21
ENDBRANCH  17  18
ENDBRANCH  16  17
ENDBRANCH   1  15
BRANCH  11  23
HETATM   23  C13 UNL     1      20.073   1.042  50.446  1.00  0.00     0.154 C 
BRANCH  23  24
HETATM   24  C14 UNL     1      19.968   2.546  50.686  1.00  0.00     0.137 C 
BRANCH  24  25
HETATM   25  N4  UNL     1      21.258   3.147  50.625  1.00  0.00    -0.407 N 
HETATM   26  C15 UNL     1      22.225   2.482  49.809  1.00  0.00     0.143 C 
HETATM   27  C16 UNL     1      23.623   3.012  49.982  1.00  0.00     0.187 C 
HETATM   28  O3  UNL     1      23.614   4.246  50.640  1.00  0.00    -0.388 OA
HETATM   29  C17 UNL     1      23.161   3.992  51.932  1.00  0.00     0.187 C 
HETATM   30  C18 UNL     1      21.707   3.638  51.864  1.00  0.00     0.143 C 
ENDBRANCH  24  25
ENDBRANCH  23  24
ENDBRANCH  11  23
TORSDOF 8
ENDMDL
MODEL 3
REMARK VINA RESULT:      -8.0      3.011      4.185
REMARK  8 active torsions:
REMARK  status: ('A' for Active; 'I' for Inactive)
REMARK    1  A    between atoms: C2_2  and  C3_3 
REMARK    2  A    between atoms: C3_3  and  C4_4 
REMARK    3  A    between atoms: C3_3  and  C22_29 
REMARK    4  A    between atoms: C4_4  and  C5_5 
REMARK    5  A    between atoms: C6_6  and  C7_7 
REMARK    6  A    between atoms: N3_17  and  C13_18 
REMARK    7  A    between atoms: C13_18  and  C14_19 
REMARK    8  A    between atoms: C14_19  and  N4_20 
ROOT
HETATM    1  C7  UNL     1      24.068   2.978  50.330  1.00  0.00     0.070 A 
HETATM    2  N1  UNL     1      23.337   3.867  49.671  1.00  0.00    -0.241 NA
HETATM    3  C8  UNL     1      22.046   4.109  49.866  1.00  0.00     0.234 A 
HETATM    4  N2  UNL     1      21.395   3.405  50.809  1.00  0.00    -0.241 NA
HETATM    5  C9  UNL     1      22.064   2.482  51.523  1.00  0.00     0.073 A 
HETATM    6  C10 UNL     1      21.385   1.767  52.483  1.00  0.00     0.072 A 
HETATM    7  C11 UNL     1      21.972   0.798  53.269  1.00  0.00     0.110 A 
HETATM    8  O1  UNL     1      21.599  -0.018  54.227  1.00  0.00    -0.259 OA
HETATM    9  C12 UNL     1      22.649  -0.745  54.607  1.00  0.00     0.373 A 
HETATM   10  O2  UNL     1      22.647  -1.633  55.511  1.00  0.00    -0.237 OA
HETATM   11  N3  UNL     1      23.722  -0.377  53.866  1.00  0.00    -0.289 N 
HETATM   12  C19 UNL     1      23.318   0.588  53.021  1.00  0.00     0.074 A 
HETATM   13  C20 UNL     1      23.977   1.312  52.060  1.00  0.00     0.049 A 
HETATM   14  C21 UNL     1      23.382   2.273  51.285  1.00  0.00     0.024 A 
ENDROOT
BRANCH   1  15
HETATM   15  C6  UNL     1      25.478   2.746  50.077  1.00  0.00     0.029 C 
HETATM   16  C5  UNL     1      26.513   3.415  49.616  1.00  0.00    -0.018 C 
BRANCH  16  17
HETATM   17  C4  UNL     1      26.248   4.807  49.216  1.00  0.00     0.026 C 
BRANCH  17  18
HETATM   18  C3  UNL     1      26.460   6.123  48.925  1.00  0.00    -0.025 C 
BRANCH  18  19
HETATM   19  C2  UNL     1      27.634   6.923  48.466  1.00  0.00     0.006 C 
HETATM   20  C1  UNL     1      28.808   6.163  47.992  1.00  0.00     0.006 C 
ENDBRANCH  18  19
BRANCH  18  21
HETATM   21  C22 UNL     1      25.231   6.934  48.985  1.00  0.00     0.006 C 
HETATM   22  C23 UNL     1      24.297   6.859  47.837  1.00  0.00     0.006 C 
ENDBRANCH  18  21
ENDBRANCH  17  18
ENDBRANCH  16  17
ENDBRANCH   1  15
BRANCH  11  23
HETATM   23  C13 UNL     1      25.029  -0.956  54.006  1.00  0.00     0.154 C 
BRANCH  23  24
HETATM   24  C14 UNL     1      25.908  -0.112  54.926  1.00  0.00     0.137 C 
BRANCH  24  25
HETATM   25  N4  UNL     1      27.025   0.402  54.207  1.00  0.00    -0.407 N 
HETATM   26  C15 UNL     1      28.309  -0.081  54.610  1.00  0.00     0.143 C 
HETATM   27  C16 UNL     1      29.455   0.677  53.995  1.00  0.00     0.187 C 
HETATM   28  O3  UNL     1      29.021   1.455  52.916  1.00  0.00    -0.388 OA
HETATM   29  C17 UNL     1      28.189   2.433  53.455  1.00  0.00     0.187 C 
HETATM   30  C18 UNL     1      26.926   1.776  53.924  1.00  0.00     0.143 C 
ENDBRANCH  24  25
ENDBRANCH  23  24
ENDBRANCH  11  23
TORSDOF 8
ENDMDL
MODEL 4
REMARK VINA RESULT:      -7.7      1.960      3.013
REMARK  8 active torsions:
REMARK  status: ('A' for Active; 'I' for Inactive)
REMARK    1  A    between atoms: C2_2  and  C3_3 
REMARK    2  A    between atoms: C3_3  and  C4_4 
REMARK    3  A    between atoms: C3_3  and  C22_29 
REMARK    4  A    between atoms: C4_4  and  C5_5 
REMARK    5  A    between atoms: C6_6  and  C7_7 
REMARK    6  A    between atoms: N3_17  and  C13_18 
REMARK    7  A    between atoms: C13_18  and  C14_19 
REMARK    8  A    between atoms: C14_19  and  N4_20 
ROOT
HETATM    1  C7  UNL     1      23.079   2.535  49.669  1.00  0.00     0.070 A 
HETATM    2  N1  UNL     1      22.162   2.904  48.785  1.00  0.00    -0.241 NA
HETATM    3  C8  UNL     1      20.886   2.537  48.792  1.00  0.00     0.234 A 
HETATM    4  N2  UNL     1      20.457   1.718  49.769  1.00  0.00    -0.241 NA
HETATM    5  C9  UNL     1      21.325   1.297  50.706  1.00  0.00     0.073 A 
HETATM    6  C10 UNL     1      20.873   0.458  51.697  1.00  0.00     0.072 A 
HETATM    7  C11 UNL     1      21.677  -0.034  52.704  1.00  0.00     0.110 A 
HETATM    8  O1  UNL     1      21.539  -0.820  53.747  1.00  0.00    -0.259 OA
HETATM    9  C12 UNL     1      22.715  -0.928  54.363  1.00  0.00     0.373 A 
HETATM   10  O2  UNL     1      22.944  -1.610  55.407  1.00  0.00    -0.237 OA
HETATM   11  N3  UNL     1      23.627  -0.187  53.690  1.00  0.00    -0.289 N 
HETATM   12  C19 UNL     1      22.997   0.381  52.647  1.00  0.00     0.074 A 
HETATM   13  C20 UNL     1      23.427   1.218  51.650  1.00  0.00     0.049 A 
HETATM   14  C21 UNL     1      22.618   1.701  50.655  1.00  0.00     0.024 A 
ENDROOT
BRANCH   1  15
HETATM   15  C6  UNL     1      24.466   2.960  49.618  1.00  0.00     0.029 C 
HETATM   16  C5  UNL     1      25.155   4.073  49.758  1.00  0.00    -0.018 C 
BRANCH  16  17
HETATM   17  C4  UNL     1      24.366   5.281  50.051  1.00  0.00     0.026 C 
BRANCH  17  18
HETATM   18  C3  UNL     1      23.622   6.196  50.738  1.00  0.00    -0.025 C 
BRANCH  18  19
HETATM   19  C2  UNL     1      23.548   7.686  50.761  1.00  0.00     0.006 C 
HETATM   20  C1  UNL     1      23.576   8.371  49.452  1.00  0.00     0.006 C 
ENDBRANCH  18  19
BRANCH  18  21
HETATM   21  C22 UNL     1      22.588   5.579  51.588  1.00  0.00     0.006 C 
HETATM   22  C23 UNL     1      23.036   4.758  52.737  1.00  0.00     0.006 C 
ENDBRANCH  18  21
ENDBRANCH  17  18
ENDBRANCH  16  17
ENDBRANCH   1  15
BRANCH  11  23
HETATM   23  C13 UNL     1      25.006  -0.071  54.075  1.00  0.00     0.154 C 
BRANCH  23  24
HETATM   24  C14 UNL     1      25.905  -0.893  53.154  1.00  0.00     0.137 C 
BRANCH  24  25
HETATM   25  N4  UNL     1      27.259  -0.469  53.277  1.00  0.00    -0.407 N 
HETATM   26  C15 UNL     1      28.253  -1.487  53.145  1.00  0.00     0.143 C 
HETATM   27  C16 UNL     1      29.635  -1.032  53.532  1.00  0.00     0.187 C 
HETATM   28  O3  UNL     1      29.700   0.363  53.611  1.00  0.00    -0.388 OA
HETATM   29  C17 UNL     1      28.886   0.729  54.679  1.00  0.00     0.187 C 
HETATM   30  C18 UNL     1      27.458   0.481  54.295  1.00  0.00     0.143 C 
ENDBRANCH  24  25
ENDBRANCH  23  24
ENDBRANCH  11  23
TORSDOF 8
ENDMDL
MODEL 5
REMARK VINA RESULT:      -7.5      2.915      7.536
REMARK  8 active torsions:
REMARK  status: ('A' for Active; 'I' for Inactive)
REMARK    1  A    between atoms: C2_2  and  C3_3 
REMARK    2  A    between atoms: C3_3  and  C4_4 
REMARK    3  A    between atoms: C3_3  and  C22_29 
REMARK    4  A    between atoms: C4_4  and  C5_5 
REMARK    5  A    between atoms: C6_6  and  C7_7 
REMARK    6  A    between atoms: N3_17  and  C13_18 
REMARK    7  A    between atoms: C13_18  and  C14_19 
REMARK    8  A    between atoms: C14_19  and  N4_20 
ROOT
HETATM    1  C7  UNL     1      24.360  -0.137  53.555  1.00  0.00     0.070 A 
HETATM    2  N1  UNL     1      25.003  -0.632  54.604  1.00  0.00    -0.241 NA
HETATM    3  C8  UNL     1      24.447  -1.287  55.617  1.00  0.00     0.234 A 
HETATM    4  N2  UNL     1      23.116  -1.480  55.606  1.00  0.00    -0.241 NA
HETATM    5  C9  UNL     1      22.390  -1.008  54.577  1.00  0.00     0.073 A 
HETATM    6  C10 UNL     1      21.029  -1.210  54.580  1.00  0.00     0.072 A 
HETATM    7  C11 UNL     1      20.190  -0.767  53.579  1.00  0.00     0.110 A 
HETATM    8  O1  UNL     1      18.905  -0.806  53.313  1.00  0.00    -0.259 OA
HETATM    9  C12 UNL     1      18.685  -0.183  52.157  1.00  0.00     0.373 A 
HETATM   10  O2  UNL     1      17.556  -0.034  51.600  1.00  0.00    -0.237 OA
HETATM   11  N3  UNL     1      19.868   0.266  51.673  1.00  0.00    -0.289 N 
HETATM   12  C19 UNL     1      20.824  -0.090  52.550  1.00  0.00     0.074 A 
HETATM   13  C20 UNL     1      22.182   0.101  52.566  1.00  0.00     0.049 A 
HETATM   14  C21 UNL     1      23.004  -0.345  53.567  1.00  0.00     0.024 A 
ENDROOT
BRANCH   1  15
HETATM   15  C6  UNL     1      25.012   0.578  52.473  1.00  0.00     0.029 C 
HETATM   16  C5  UNL     1      26.233   0.768  52.022  1.00  0.00    -0.018 C 
BRANCH  16  17
HETATM   17  C4  UNL     1      27.305   0.100  52.777  1.00  0.00     0.026 C 
BRANCH  17  18
HETATM   18  C3  UNL     1      28.476  -0.090  53.454  1.00  0.00    -0.025 C 
BRANCH  18  19
HETATM   19  C2  UNL     1      29.520  -1.157  53.469  1.00  0.00     0.006 C 
HETATM   20  C1  UNL     1      29.060  -2.536  53.208  1.00  0.00     0.006 C 
ENDBRANCH  18  19
BRANCH  18  21
HETATM   21  C22 UNL     1      28.850   1.060  54.296  1.00  0.00     0.006 C 
HETATM   22  C23 UNL     1      28.769   2.412  53.696  1.00  0.00     0.006 C 
ENDBRANCH  18  21
ENDBRANCH  17  18
ENDBRANCH  16  17
ENDBRANCH   1  15
BRANCH  11  23
HETATM   23  C13 UNL     1      20.008   0.986  50.439  1.00  0.00     0.154 C 
BRANCH  23  24
HETATM   24  C14 UNL     1      20.054   2.493  50.683  1.00  0.00     0.137 C 
BRANCH  24  25
HETATM   25  N4  UNL     1      19.069   3.151  49.892  1.00  0.00    -0.407 N 
HETATM   26  C15 UNL     1      19.526   4.253  49.105  1.00  0.00     0.143 C 
HETATM   27  C16 UNL     1      18.411   5.060  48.495  1.00  0.00     0.187 C 
HETATM   28  O3  UNL     1      17.199   4.364  48.553  1.00  0.00    -0.388 OA
HETATM   29  C17 UNL     1      16.875   4.262  49.903  1.00  0.00     0.187 C 
HETATM   30  C18 UNL     1      17.837   3.313  50.552  1.00  0.00     0.143 C 
ENDBRANCH  24  25
ENDBRANCH  23  24
ENDBRANCH  11  23
TORSDOF 8
ENDMDL
MODEL 6
REMARK VINA RESULT:      -7.5      1.458      2.090
REMARK  8 active torsions:
REMARK  status: ('A' for Active; 'I' for Inactive)
REMARK    1  A    between atoms: C2_2  and  C3_3 
REMARK    2  A    between atoms: C3_3  and  C4_4 
REMARK    3  A    between atoms: C3_3  and  C22_29 
REMARK    4  A    between atoms: C4_4  and  C5_5 
REMARK    5  A    between atoms: C6_6  and  C7_7 
REMARK    6  A    between atoms: N3_17  and  C13_18 
REMARK    7  A    between atoms: C13_18  and  C14_19 
REMARK    8  A    between atoms: C14_19  and  N4_20 
ROOT
HETATM    1  C7  UNL     1      20.510   1.092  49.887  1.00  0.00     0.070 A 
HETATM    2  N1  UNL     1      19.288   1.436  49.504  1.00  0.00    -0.241 NA
HETATM    3  C8  UNL     1      18.183   1.312  50.231  1.00  0.00     0.234 A 
HETATM    4  N2  UNL     1      18.283   0.795  51.469  1.00  0.00    -0.241 NA
HETATM    5  C9  UNL     1      19.488   0.420  51.933  1.00  0.00     0.073 A 
HETATM    6  C10 UNL     1      19.574  -0.110  53.199  1.00  0.00     0.072 A 
HETATM    7  C11 UNL     1      20.757  -0.528  53.772  1.00  0.00     0.110 A 
HETATM    8  O1  UNL     1      21.140  -1.053  54.913  1.00  0.00    -0.259 OA
HETATM    9  C12 UNL     1      22.457  -1.246  54.877  1.00  0.00     0.373 A 
HETATM   10  O2  UNL     1      23.159  -1.736  55.812  1.00  0.00    -0.237 OA
HETATM   11  N3  UNL     1      22.925  -0.829  53.676  1.00  0.00    -0.289 N 
HETATM   12  C19 UNL     1      21.875  -0.376  52.969  1.00  0.00     0.074 A 
HETATM   13  C20 UNL     1      21.767   0.155  51.708  1.00  0.00     0.049 A 
HETATM   14  C21 UNL     1      20.585   0.567  51.151  1.00  0.00     0.024 A 
ENDROOT
BRANCH   1  15
HETATM   15  C6  UNL     1      21.689   1.242  49.053  1.00  0.00     0.029 C 
HETATM   16  C5  UNL     1      22.628   2.139  48.838  1.00  0.00    -0.018 C 
BRANCH  16  17
HETATM   17  C4  UNL     1      22.525   3.375  49.630  1.00  0.00     0.026 C 
BRANCH  17  18
HETATM   18  C3  UNL     1      22.878   4.541  50.247  1.00  0.00    -0.025 C 
BRANCH  18  19
HETATM   19  C2  UNL     1      23.559   4.888  51.529  1.00  0.00     0.006 C 
HETATM   20  C1  UNL     1      23.563   3.847  52.578  1.00  0.00     0.006 C 
ENDBRANCH  18  19
BRANCH  18  21
HETATM   21  C22 UNL     1      22.614   5.734  49.423  1.00  0.00     0.006 C 
HETATM   22  C23 UNL     1      23.541   6.020  48.303  1.00  0.00     0.006 C 
ENDBRANCH  18  21
ENDBRANCH  17  18
ENDBRANCH  16  17
ENDBRANCH   1  15
BRANCH  11  23
HETATM   23  C13 UNL     1      24.307  -0.888  53.290  1.00  0.00     0.154 C 
BRANCH  23  24
HETATM   24  C14 UNL     1      24.996   0.458  53.502  1.00  0.00     0.137 C 
BRANCH  24  25
HETATM   25  N4  UNL     1      26.410   0.290  53.524  1.00  0.00    -0.407 N 
HETATM   26  C15 UNL     1      26.920  -0.856  52.838  1.00  0.00     0.143 C 
HETATM   27  C16 UNL     1      28.377  -1.118  53.107  1.00  0.00     0.187 C 
HETATM   28  O3  UNL     1      28.989  -0.002  53.690  1.00  0.00    -0.388 OA
HETATM   29  C17 UNL     1      28.410   0.142  54.948  1.00  0.00     0.187 C 
HETATM   30  C18 UNL     1      26.991   0.592  54.769  1.00  0.00     0.143 C 
ENDBRANCH  24  25
ENDBRANCH  23  24
ENDBRANCH  11  23
TORSDOF 8
ENDMDL
MODEL 7
REMARK VINA RESULT:      -7.4      1.706      2.678
REMARK  8 active torsions:
REMARK  status: ('A' for Active; 'I' for Inactive)
REMARK    1  A    between atoms: C2_2  and  C3_3 
REMARK    2  A    between atoms: C3_3  and  C4_4 
REMARK    3  A    between atoms: C3_3  and  C22_29 
REMARK    4  A    between atoms: C4_4  and  C5_5 
REMARK    5  A    between atoms: C6_6  and  C7_7 
REMARK    6  A    between atoms: N3_17  and  C13_18 
REMARK    7  A    between atoms: C13_18  and  C14_19 
REMARK    8  A    between atoms: C14_19  and  N4_20 
ROOT
HETATM    1  C7  UNL     1      20.702   0.298  51.158  1.00  0.00     0.070 A 
HETATM    2  N1  UNL     1      19.380   0.242  51.081  1.00  0.00    -0.241 NA
HETATM    3  C8  UNL     1      18.563  -0.179  52.040  1.00  0.00     0.234 A 
HETATM    4  N2  UNL     1      19.096  -0.592  53.204  1.00  0.00    -0.241 NA
HETATM    5  C9  UNL     1      20.432  -0.567  53.363  1.00  0.00     0.073 A 
HETATM    6  C10 UNL     1      20.963  -0.996  54.558  1.00  0.00     0.072 A 
HETATM    7  C11 UNL     1      22.316  -1.015  54.827  1.00  0.00     0.110 A 
HETATM    8  O1  UNL     1      23.092  -1.353  55.830  1.00  0.00    -0.259 OA
HETATM    9  C12 UNL     1      24.360  -1.142  55.484  1.00  0.00     0.373 A 
HETATM   10  O2  UNL     1      25.373  -1.360  56.214  1.00  0.00    -0.237 OA
HETATM   11  N3  UNL     1      24.390  -0.653  54.221  1.00  0.00    -0.289 N 
HETATM   12  C19 UNL     1      23.119  -0.566  53.791  1.00  0.00     0.074 A 
HETATM   13  C20 UNL     1      22.568  -0.143  52.608  1.00  0.00     0.049 A 
HETATM   14  C21 UNL     1      21.222  -0.129  52.353  1.00  0.00     0.024 A 
ENDROOT
BRANCH   1  15
HETATM   15  C6  UNL     1      21.555   0.762  50.079  1.00  0.00     0.029 C 
HETATM   16  C5  UNL     1      21.863   1.901  49.496  1.00  0.00    -0.018 C 
BRANCH  16  17
HETATM   17  C4  UNL     1      21.191   3.096  50.032  1.00  0.00     0.026 C 
BRANCH  17  18
HETATM   18  C3  UNL     1      20.298   4.120  50.160  1.00  0.00    -0.025 C 
BRANCH  18  19
HETATM   19  C2  UNL     1      20.390   5.609  50.108  1.00  0.00     0.006 C 
HETATM   20  C1  UNL     1      21.474   6.233  50.896  1.00  0.00     0.006 C 
ENDBRANCH  18  19
BRANCH  18  21
HETATM   21  C22 UNL     1      18.904   3.660  50.288  1.00  0.00     0.006 C 
HETATM   22  C23 UNL     1      17.832   4.683  50.262  1.00  0.00     0.006 C 
ENDBRANCH  18  21
ENDBRANCH  17  18
ENDBRANCH  16  17
ENDBRANCH   1  15
BRANCH  11  23
HETATM   23  C13 UNL     1      25.597  -0.309  53.523  1.00  0.00     0.154 C 
BRANCH  23  24
HETATM   24  C14 UNL     1      25.912   1.178  53.668  1.00  0.00     0.137 C 
BRANCH  24  25
HETATM   25  N4  UNL     1      25.636   1.863  52.450  1.00  0.00    -0.407 N 
HETATM   26  C15 UNL     1      26.769   2.212  51.652  1.00  0.00     0.143 C 
HETATM   27  C16 UNL     1      26.441   3.145  50.518  1.00  0.00     0.187 C 
HETATM   28  O3  UNL     1      25.061   3.195  50.292  1.00  0.00    -0.388 OA
HETATM   29  C17 UNL     1      24.506   3.790  51.422  1.00  0.00     0.187 C 
HETATM   30  C18 UNL     1      24.624   2.833  52.569  1.00  0.00     0.143 C 
ENDBRANCH  24  25
ENDBRANCH  23  24
ENDBRANCH  11  23
TORSDOF 8
ENDMDL
MODEL 8
REMARK VINA RESULT:      -7.3      2.381      5.793
REMARK  8 active torsions:
REMARK  status: ('A' for Active; 'I' for Inactive)
REMARK    1  A    between atoms: C2_2  and  C3_3 
REMARK    2  A    between atoms: C3_3  and  C4_4 
REMARK    3  A    between atoms: C3_3  and  C22_29 
REMARK    4  A    between atoms: C4_4  and  C5_5 
REMARK    5  A    between atoms: C6_6  and  C7_7 
REMARK    6  A    between atoms: N3_17  and  C13_18 
REMARK    7  A    between atoms: C13_18  and  C14_19 
REMARK    8  A    between atoms: C14_19  and  N4_20 
ROOT
HETATM    1  C7  UNL     1      24.405   2.848  49.788  1.00  0.00     0.070 A 
HETATM    2  N1  UNL     1      25.260   3.680  49.208  1.00  0.00    -0.241 NA
HETATM    3  C8  UNL     1      26.507   3.913  49.604  1.00  0.00     0.234 A 
HETATM    4  N2  UNL     1      26.970   3.263  50.686  1.00  0.00    -0.241 NA
HETATM    5  C9  UNL     1      26.165   2.401  51.333  1.00  0.00     0.073 A 
HETATM    6  C10 UNL     1      26.651   1.745  52.441  1.00  0.00     0.072 A 
HETATM    7  C11 UNL     1      25.912   0.844  53.178  1.00  0.00     0.110 A 
HETATM    8  O1  UNL     1      26.094   0.092  54.239  1.00  0.00    -0.259 OA
HETATM    9  C12 UNL     1      24.974  -0.586  54.482  1.00  0.00     0.373 A 
HETATM   10  O2  UNL     1      24.798  -1.408  55.432  1.00  0.00    -0.237 OA
HETATM   11  N3  UNL     1      24.053  -0.254  53.547  1.00  0.00    -0.289 N 
HETATM   12  C19 UNL     1      24.621   0.641  52.720  1.00  0.00     0.074 A 
HETATM   13  C20 UNL     1      24.156   1.305  51.614  1.00  0.00     0.049 A 
HETATM   14  C21 UNL     1      24.900   2.198  50.889  1.00  0.00     0.024 A 
ENDROOT
BRANCH   1  15
HETATM   15  C6  UNL     1      23.049   2.630  49.320  1.00  0.00     0.029 C 
HETATM   16  C5  UNL     1      21.906   3.282  49.294  1.00  0.00    -0.018 C 
BRANCH  16  17
HETATM   17  C4  UNL     1      21.922   4.625  49.893  1.00  0.00     0.026 C 
BRANCH  17  18
HETATM   18  C3  UNL     1      21.963   5.614  50.834  1.00  0.00    -0.025 C 
BRANCH  18  19
HETATM   19  C2  UNL     1      21.828   7.100  50.805  1.00  0.00     0.006 C 
HETATM   20  C1  UNL     1      23.058   7.871  50.529  1.00  0.00     0.006 C 
ENDBRANCH  18  19
BRANCH  18  21
HETATM   21  C22 UNL     1      22.075   5.098  52.210  1.00  0.00     0.006 C 
HETATM   22  C23 UNL     1      23.432   4.836  52.742  1.00  0.00     0.006 C 
ENDBRANCH  18  21
ENDBRANCH  17  18
ENDBRANCH  16  17
ENDBRANCH   1  15
BRANCH  11  23
HETATM   23  C13 UNL     1      22.724  -0.798  53.502  1.00  0.00     0.154 C 
BRANCH  23  24
HETATM   24  C14 UNL     1      21.731   0.117  54.216  1.00  0.00     0.137 C 
BRANCH  24  25
HETATM   25  N4  UNL     1      20.529   0.227  53.459  1.00  0.00    -0.407 N 
HETATM   26  C15 UNL     1      19.567  -0.813  53.650  1.00  0.00     0.143 C 
HETATM   27  C16 UNL     1      18.443  -0.782  52.651  1.00  0.00     0.187 C 
HETATM   28  O3  UNL     1      18.405   0.443  51.975  1.00  0.00    -0.388 OA
HETATM   29  C17 UNL     1      19.569   0.499  51.212  1.00  0.00     0.187 C 
HETATM   30  C18 UNL     1      20.736   0.662  52.138  1.00  0.00     0.143 C 
ENDBRANCH  24  25
ENDBRANCH  23  24
ENDBRANCH  11  23
TORSDOF 8
ENDMDL
MODEL 9
REMARK VINA RESULT:      -7.3      2.212      4.021
REMARK  8 active torsions:
REMARK  status: ('A' for Active; 'I' for Inactive)
REMARK    1  A    between atoms: C2_2  and  C3_3 
REMARK    2  A    between atoms: C3_3  and  C4_4 
REMARK    3  A    between atoms: C3_3  and  C22_29 
REMARK    4  A    between atoms: C4_4  and  C5_5 
REMARK    5  A    between atoms: C6_6  and  C7_7 
REMARK    6  A    between atoms: N3_17  and  C13_18 
REMARK    7  A    between atoms: C13_18  and  C14_19 
REMARK    8  A    between atoms: C14_19  and  N4_20 
ROOT
HETATM    1  C7  UNL     1      21.585  -0.245  52.421  1.00  0.00     0.070 A 
HETATM    2  N1  UNL     1      20.424  -0.678  52.893  1.00  0.00    -0.241 NA
HETATM    3  C8  UNL     1      20.229  -1.239  54.081  1.00  0.00     0.234 A 
HETATM    4  N2  UNL     1      21.285  -1.397  54.899  1.00  0.00    -0.241 NA
HETATM    5  C9  UNL     1      22.500  -0.985  54.495  1.00  0.00     0.073 A 
HETATM    6  C10 UNL     1      23.572  -1.155  55.341  1.00  0.00     0.072 A 
HETATM    7  C11 UNL     1      24.859  -0.771  55.027  1.00  0.00     0.110 A 
HETATM    8  O1  UNL     1      26.038  -0.801  55.603  1.00  0.00    -0.259 OA
HETATM    9  C12 UNL     1      26.935  -0.267  54.775  1.00  0.00     0.373 A 
HETATM   10  O2  UNL     1      28.173  -0.135  55.011  1.00  0.00    -0.237 OA
HETATM   11  N3  UNL     1      26.304   0.115  53.639  1.00  0.00    -0.289 N 
HETATM   12  C19 UNL     1      25.002  -0.193  53.776  1.00  0.00     0.074 A 
HETATM   13  C20 UNL     1      23.921  -0.032  52.948  1.00  0.00     0.049 A 
HETATM   14  C21 UNL     1      22.646  -0.418  53.272  1.00  0.00     0.024 A 
ENDROOT
BRANCH   1  15
HETATM   15  C6  UNL     1      21.749   0.358  51.111  1.00  0.00     0.029 C 
HETATM   16  C5  UNL     1      21.001   0.957  50.209  1.00  0.00    -0.018 C 
BRANCH  16  17
HETATM   17  C4  UNL     1      19.575   1.091  50.547  1.00  0.00     0.026 C 
BRANCH  17  18
HETATM   18  C3  UNL     1      18.228   1.257  50.398  1.00  0.00    -0.025 C 
BRANCH  18  19
HETATM   19  C2  UNL     1      17.330   2.432  50.193  1.00  0.00     0.006 C 
HETATM   20  C1  UNL     1      16.878   3.139  51.409  1.00  0.00     0.006 C 
ENDBRANCH  18  19
BRANCH  18  21
HETATM   21  C22 UNL     1      17.492  -0.017  50.332  1.00  0.00     0.006 C 
HETATM   22  C23 UNL     1      17.063  -0.636  51.609  1.00  0.00     0.006 C 
ENDBRANCH  18  21
ENDBRANCH  17  18
ENDBRANCH  16  17
ENDBRANCH   1  15
BRANCH  11  23
HETATM   23  C13 UNL     1      26.965   0.732  52.524  1.00  0.00     0.154 C 
BRANCH  23  24
HETATM   24  C14 UNL     1      26.756   2.245  52.528  1.00  0.00     0.137 C 
BRANCH  24  25
HETATM   25  N4  UNL     1      25.909   2.629  51.448  1.00  0.00    -0.407 N 
HETATM   26  C15 UNL     1      26.547   3.285  50.350  1.00  0.00     0.143 C 
HETATM   27  C16 UNL     1      25.580   3.887  49.366  1.00  0.00     0.187 C 
HETATM   28  O3  UNL     1      24.289   3.386  49.561  1.00  0.00    -0.388 OA
HETATM   29  C17 UNL     1      23.876   3.854  50.806  1.00  0.00     0.187 C 
HETATM   30  C18 UNL     1      24.671   3.152  51.864  1.00  0.00     0.143 C 
ENDBRANCH  24  25
ENDBRANCH  23  24
ENDBRANCH  11  23
TORSDOF 8
ENDMDL
