MODEL 1
REMARK VINA RESULT:      -7.7      0.000      0.000
REMARK  2 active torsions:
REMARK  status: ('A' for Active; 'I' for Inactive)
REMARK    1  A    between atoms: O1_2  and  C2_3 
REMARK    2  A    between atoms: C3_4  and  O2_5 
ROOT
HETATM    1  C2  UNL     1      24.040   3.638  51.774  1.00  0.00     0.080 C 
HETATM    2  C3  UNL     1      25.161   3.630  50.995  1.00  0.00     0.118 A 
HETATM    3  C5  UNL     1      26.394   2.888  50.456  1.00  0.00     0.087 A 
HETATM    4  C6  UNL     1      26.628   1.748  51.487  1.00  0.00     0.129 A 
HETATM    5  C7  UNL     1      25.339   1.873  51.205  1.00  0.00     0.158 A 
HETATM    6  C8  UNL     1      23.930   2.080  50.825  1.00  0.00     0.137 C 
HETATM    7  N1  UNL     1      24.309   1.737  52.015  1.00  0.00    -0.311 NA
HETATM    8  C9  UNL     1      23.215   1.612  52.928  1.00  0.00     0.066 C 
HETATM    9  C10 UNL     1      23.079   2.906  52.690  1.00  0.00     0.105 C 
HETATM   10  C11 UNL     1      23.219   0.087  53.478  1.00  0.00     0.113 C 
HETATM   11  C12 UNL     1      24.700  -0.062  53.420  1.00  0.00    -0.164 C 
HETATM   12  C13 UNL     1      25.781  -0.149  53.361  1.00  0.00     0.102 A 
HETATM   13  C14 UNL     1      27.155  -0.238  53.267  1.00  0.00     0.190 A 
HETATM   14  C15 UNL     1      26.736  -0.561  52.083  1.00  0.00     0.260 A 
HETATM   15  N2  UNL     1      27.306   0.706  52.497  1.00  0.00    -0.020 N 
HETATM   16  C16 UNL     1      27.877   2.032  52.843  1.00  0.00     0.201 C 
HETATM   17  C17 UNL     1      28.172   1.671  54.206  1.00  0.00     0.001 C 
HETATM   18  C18 UNL     1      27.906   0.127  54.532  1.00  0.00     0.072 C 
ENDROOT
BRANCH   1  19
HETATM   19  O1  UNL     1      23.131   4.585  52.048  1.00  0.00    -0.357 OA
HETATM   20  C1  UNL     1      21.776   4.688  51.922  1.00  0.00     0.209 C 
ENDBRANCH   1  19
BRANCH   2  21
HETATM   21  O2  UNL     1      24.857   4.928  50.701  1.00  0.00    -0.378 OA
HETATM   22  C4  UNL     1      25.525   5.632  49.692  1.00  0.00     0.203 C 
ENDBRANCH   2  21
TORSDOF 2
ENDMDL
MODEL 2
REMARK VINA RESULT:      -7.4      2.050      3.936
REMARK  2 active torsions:
REMARK  status: ('A' for Active; 'I' for Inactive)
REMARK    1  A    between atoms: O1_2  and  C2_3 
REMARK    2  A    between atoms: C3_4  and  O2_5 
ROOT
HETATM    1  C2  UNL     1      22.240   1.372  50.783  1.00  0.00     0.080 C 
HETATM    2  C3  UNL     1      22.067   0.859  52.036  1.00  0.00     0.118 A 
HETATM    3  C5  UNL     1      22.592   0.648  53.465  1.00  0.00     0.087 A 
HETATM    4  C6  UNL     1      24.129   0.852  53.335  1.00  0.00     0.129 A 
HETATM    5  C7  UNL     1      23.469   1.770  52.641  1.00  0.00     0.158 A 
HETATM    6  C8  UNL     1      22.654   2.753  51.906  1.00  0.00     0.137 C 
HETATM    7  N1  UNL     1      23.788   2.299  51.479  1.00  0.00    -0.311 NA
HETATM    8  C9  UNL     1      24.149   2.831  50.200  1.00  0.00     0.066 C 
HETATM    9  C10 UNL     1      23.060   2.192  49.807  1.00  0.00     0.105 C 
HETATM   10  C11 UNL     1      25.564   3.602  50.381  1.00  0.00     0.113 C 
HETATM   11  C12 UNL     1      26.072   2.681  51.436  1.00  0.00    -0.164 C 
HETATM   12  C13 UNL     1      26.417   2.001  52.210  1.00  0.00     0.102 A 
HETATM   13  C14 UNL     1      26.829   1.130  53.198  1.00  0.00     0.190 A 
HETATM   14  C15 UNL     1      26.144   2.029  53.834  1.00  0.00     0.260 A 
HETATM   15  N2  UNL     1      25.716   0.692  53.473  1.00  0.00    -0.020 N 
HETATM   16  C16 UNL     1      25.202  -0.660  53.136  1.00  0.00     0.201 C 
HETATM   17  C17 UNL     1      26.438  -1.102  52.544  1.00  0.00     0.001 C 
HETATM   18  C18 UNL     1      27.638  -0.054  52.707  1.00  0.00     0.072 C 
ENDROOT
BRANCH   1  19
HETATM   19  O1  UNL     1      21.495   1.317  49.669  1.00  0.00    -0.357 OA
HETATM   20  C1  UNL     1      21.756   1.344  48.330  1.00  0.00     0.209 C 
ENDBRANCH   1  19
BRANCH   2  21
HETATM   21  O2  UNL     1      20.887   0.353  51.569  1.00  0.00    -0.378 OA
HETATM   22  C4  UNL     1      19.824   0.051  52.428  1.00  0.00     0.203 C 
ENDBRANCH   2  21
TORSDOF 2
ENDMDL
MODEL 3
REMARK VINA RESULT:      -7.2      2.224      4.894
REMARK  2 active torsions:
REMARK  status: ('A' for Active; 'I' for Inactive)
REMARK    1  A    between atoms: O1_2  and  C2_3 
REMARK    2  A    between atoms: C3_4  and  O2_5 
ROOT
HETATM    1  C2  UNL     1      25.589   1.194  52.023  1.00  0.00     0.080 C 
HETATM    2  C3  UNL     1      25.166   2.408  51.563  1.00  0.00     0.118 A 
HETATM    3  C5  UNL     1      24.049   3.452  51.417  1.00  0.00     0.087 A 
HETATM    4  C6  UNL     1      22.741   2.636  51.623  1.00  0.00     0.129 A 
HETATM    5  C7  UNL     1      23.664   2.282  52.506  1.00  0.00     0.158 A 
HETATM    6  C8  UNL     1      24.746   1.958  53.453  1.00  0.00     0.137 C 
HETATM    7  N1  UNL     1      23.916   1.082  52.987  1.00  0.00    -0.311 NA
HETATM    8  C9  UNL     1      24.183  -0.241  53.464  1.00  0.00     0.066 C 
HETATM    9  C10 UNL     1      25.317  -0.076  52.804  1.00  0.00     0.105 C 
HETATM   10  C11 UNL     1      22.857  -0.746  54.249  1.00  0.00     0.113 C 
HETATM   11  C12 UNL     1      21.906  -0.001  53.377  1.00  0.00    -0.164 C 
HETATM   12  C13 UNL     1      21.233   0.558  52.733  1.00  0.00     0.102 A 
HETATM   13  C14 UNL     1      20.400   1.284  51.907  1.00  0.00     0.190 A 
HETATM   14  C15 UNL     1      20.745   2.128  52.829  1.00  0.00     0.260 A 
HETATM   15  N2  UNL     1      21.259   2.048  51.476  1.00  0.00    -0.020 N 
HETATM   16  C16 UNL     1      21.837   2.029  50.108  1.00  0.00     0.201 C 
HETATM   17  C17 UNL     1      20.990   0.959  49.647  1.00  0.00     0.001 C 
HETATM   18  C18 UNL     1      19.871   0.524  50.707  1.00  0.00     0.072 C 
ENDROOT
BRANCH   1  19
HETATM   19  O1  UNL     1      26.755   0.539  51.916  1.00  0.00    -0.357 OA
HETATM   20  C1  UNL     1      27.564  -0.139  52.780  1.00  0.00     0.209 C 
ENDBRANCH   1  19
BRANCH   2  21
HETATM   21  O2  UNL     1      26.417   2.543  51.033  1.00  0.00    -0.378 OA
HETATM   22  C4  UNL     1      26.670   3.391  49.948  1.00  0.00     0.203 C 
ENDBRANCH   2  21
TORSDOF 2
ENDMDL
MODEL 4
REMARK VINA RESULT:      -7.0      2.093      5.410
REMARK  2 active torsions:
REMARK  status: ('A' for Active; 'I' for Inactive)
REMARK    1  A    between atoms: O1_2  and  C2_3 
REMARK    2  A    between atoms: C3_4  and  O2_5 
ROOT
HETATM    1  C2  UNL     1      26.230   1.264  53.452  1.00  0.00     0.080 C 
HETATM    2  C3  UNL     1      25.072   0.548  53.552  1.00  0.00     0.118 A 
HETATM    3  C5  UNL     1      23.710   0.144  52.967  1.00  0.00     0.087 A 
HETATM    4  C6  UNL     1      23.376   1.286  51.966  1.00  0.00     0.129 A 
HETATM    5  C7  UNL     1      24.649   0.928  51.867  1.00  0.00     0.158 A 
HETATM    6  C8  UNL     1      26.045   0.459  51.822  1.00  0.00     0.137 C 
HETATM    7  N1  UNL     1      25.697   1.692  51.642  1.00  0.00    -0.311 NA
HETATM    8  C9  UNL     1      26.817   2.556  51.427  1.00  0.00     0.066 C 
HETATM    9  C10 UNL     1      27.129   2.193  52.660  1.00  0.00     0.105 C 
HETATM   10  C11 UNL     1      26.622   3.244  49.972  1.00  0.00     0.113 C 
HETATM   11  C12 UNL     1      25.135   3.276  50.049  1.00  0.00    -0.164 C 
HETATM   12  C13 UNL     1      24.051   3.281  50.125  1.00  0.00     0.102 A 
HETATM   13  C14 UNL     1      22.676   3.266  50.241  1.00  0.00     0.190 A 
HETATM   14  C15 UNL     1      22.965   2.097  49.760  1.00  0.00     0.260 A 
HETATM   15  N2  UNL     1      22.618   2.421  51.129  1.00  0.00    -0.020 N 
HETATM   16  C16 UNL     1      22.274   2.673  52.552  1.00  0.00     0.201 C 
HETATM   17  C17 UNL     1      22.018   4.076  52.356  1.00  0.00     0.001 C 
HETATM   18  C18 UNL     1      22.072   4.530  50.821  1.00  0.00     0.072 C 
ENDROOT
BRANCH   1  19
HETATM   19  O1  UNL     1      27.286   1.402  54.267  1.00  0.00    -0.357 OA
HETATM   20  C1  UNL     1      28.589   0.998  54.237  1.00  0.00     0.209 C 
ENDBRANCH   1  19
BRANCH   2  21
HETATM   21  O2  UNL     1      25.547   0.120  54.759  1.00  0.00    -0.378 OA
HETATM   22  C4  UNL     1      25.023  -1.010  55.398  1.00  0.00     0.203 C 
ENDBRANCH   2  21
TORSDOF 2
ENDMDL
MODEL 5
REMARK VINA RESULT:      -6.9      7.870     10.049
REMARK  2 active torsions:
REMARK  status: ('A' for Active; 'I' for Inactive)
REMARK    1  A    between atoms: O1_2  and  C2_3 
REMARK    2  A    between atoms: C3_4  and  O2_5 
ROOT
HETATM    1  C2  UNL     1      31.389   7.411  48.053  1.00  0.00     0.080 C 
HETATM    2  C3  UNL     1      30.708   6.249  47.830  1.00  0.00     0.118 A 
HETATM    3  C5  UNL     1      30.714   4.721  47.663  1.00  0.00     0.087 A 
HETATM    4  C6  UNL     1      32.185   4.389  47.286  1.00  0.00     0.129 A 
HETATM    5  C7  UNL     1      32.138   5.285  48.262  1.00  0.00     0.158 A 
HETATM    6  C8  UNL     1      31.989   6.270  49.349  1.00  0.00     0.137 C 
HETATM    7  N1  UNL     1      32.931   6.317  48.462  1.00  0.00    -0.311 NA
HETATM    8  C9  UNL     1      33.793   7.447  48.632  1.00  0.00     0.066 C 
HETATM    9  C10 UNL     1      32.688   8.125  48.372  1.00  0.00     0.105 C 
HETATM   10  C11 UNL     1      35.293   6.877  48.867  1.00  0.00     0.113 C 
HETATM   11  C12 UNL     1      35.109   5.683  47.996  1.00  0.00    -0.164 C 
HETATM   12  C13 UNL     1      34.949   4.816  47.362  1.00  0.00     0.102 A 
HETATM   13  C14 UNL     1      34.717   3.717  46.561  1.00  0.00     0.190 A 
HETATM   14  C15 UNL     1      34.289   3.352  47.729  1.00  0.00     0.260 A 
HETATM   15  N2  UNL     1      33.491   3.773  46.594  1.00  0.00    -0.020 N 
HETATM   16  C16 UNL     1      32.606   4.196  45.479  1.00  0.00     0.201 C 
HETATM   17  C17 UNL     1      33.686   4.370  44.542  1.00  0.00     0.001 C 
HETATM   18  C18 UNL     1      35.107   3.894  45.106  1.00  0.00     0.072 C 
ENDROOT
BRANCH   1  19
HETATM   19  O1  UNL     1      31.004   8.695  48.100  1.00  0.00    -0.357 OA
HETATM   20  C1  UNL     1      30.897   9.635  49.082  1.00  0.00     0.209 C 
ENDBRANCH   1  19
BRANCH   2  21
HETATM   21  O2  UNL     1      29.593   7.030  47.714  1.00  0.00    -0.378 OA
HETATM   22  C4  UNL     1      28.314   6.535  47.995  1.00  0.00     0.203 C 
ENDBRANCH   2  21
TORSDOF 2
ENDMDL
MODEL 6
REMARK VINA RESULT:      -6.6      2.119      4.867
REMARK  2 active torsions:
REMARK  status: ('A' for Active; 'I' for Inactive)
REMARK    1  A    between atoms: O1_2  and  C2_3 
REMARK    2  A    between atoms: C3_4  and  O2_5 
ROOT
HETATM    1  C2  UNL     1      24.679   3.538  51.318  1.00  0.00     0.080 C 
HETATM    2  C3  UNL     1      23.660   4.426  51.512  1.00  0.00     0.118 A 
HETATM    3  C5  UNL     1      22.243   4.724  52.027  1.00  0.00     0.087 A 
HETATM    4  C6  UNL     1      21.559   3.329  52.079  1.00  0.00     0.129 A 
HETATM    5  C7  UNL     1      22.798   3.266  52.548  1.00  0.00     0.158 A 
HETATM    6  C8  UNL     1      24.180   3.294  53.059  1.00  0.00     0.137 C 
HETATM    7  N1  UNL     1      23.676   2.295  52.409  1.00  0.00    -0.311 NA
HETATM    8  C9  UNL     1      24.615   1.234  52.211  1.00  0.00     0.066 C 
HETATM    9  C10 UNL     1      25.256   2.149  51.505  1.00  0.00     0.105 C 
HETATM   10  C11 UNL     1      23.999  -0.092  52.914  1.00  0.00     0.113 C 
HETATM   11  C12 UNL     1      22.581   0.266  52.629  1.00  0.00    -0.164 C 
HETATM   12  C13 UNL     1      21.555   0.552  52.417  1.00  0.00     0.102 A 
HETATM   13  C14 UNL     1      20.260   0.943  52.144  1.00  0.00     0.190 A 
HETATM   14  C15 UNL     1      20.537   1.529  53.267  1.00  0.00     0.260 A 
HETATM   15  N2  UNL     1      20.508   2.128  51.948  1.00  0.00    -0.020 N 
HETATM   16  C16 UNL     1      20.502   2.814  50.630  1.00  0.00     0.201 C 
HETATM   17  C17 UNL     1      20.065   1.651  49.903  1.00  0.00     0.001 C 
HETATM   18  C18 UNL     1      19.693   0.409  50.843  1.00  0.00     0.072 C 
ENDROOT
BRANCH   1  19
HETATM   19  O1  UNL     1      25.884   3.651  50.740  1.00  0.00    -0.357 OA
HETATM   20  C1  UNL     1      26.499   3.071  49.670  1.00  0.00     0.209 C 
ENDBRANCH   1  19
BRANCH   2  21
HETATM   21  O2  UNL     1      24.458   5.341  50.886  1.00  0.00    -0.378 OA
HETATM   22  C4  UNL     1      24.259   6.718  51.039  1.00  0.00     0.203 C 
ENDBRANCH   2  21
TORSDOF 2
ENDMDL
MODEL 7
REMARK VINA RESULT:      -6.4      2.261      3.749
REMARK  2 active torsions:
REMARK  status: ('A' for Active; 'I' for Inactive)
REMARK    1  A    between atoms: O1_2  and  C2_3 
REMARK    2  A    between atoms: C3_4  and  O2_5 
ROOT
HETATM    1  C2  UNL     1      24.399   5.677  50.557  1.00  0.00     0.080 C 
HETATM    2  C3  UNL     1      25.112   4.698  49.927  1.00  0.00     0.118 A 
HETATM    3  C5  UNL     1      25.225   3.242  49.449  1.00  0.00     0.087 A 
HETATM    4  C6  UNL     1      24.207   2.473  50.337  1.00  0.00     0.129 A 
HETATM    5  C7  UNL     1      23.695   3.622  49.919  1.00  0.00     0.158 A 
HETATM    6  C8  UNL     1      23.208   4.913  49.401  1.00  0.00     0.137 C 
HETATM    7  N1  UNL     1      22.904   4.449  50.571  1.00  0.00    -0.311 NA
HETATM    8  C9  UNL     1      22.071   5.340  51.319  1.00  0.00     0.066 C 
HETATM    9  C10 UNL     1      23.126   6.133  51.242  1.00  0.00     0.105 C 
HETATM   10  C11 UNL     1      20.698   4.546  51.655  1.00  0.00     0.113 C 
HETATM   11  C12 UNL     1      21.350   3.211  51.759  1.00  0.00    -0.164 C 
HETATM   12  C13 UNL     1      21.846   2.246  51.821  1.00  0.00     0.102 A 
HETATM   13  C14 UNL     1      22.499   1.032  51.885  1.00  0.00     0.190 A 
HETATM   14  C15 UNL     1      22.223   1.177  50.626  1.00  0.00     0.260 A 
HETATM   15  N2  UNL     1      23.504   1.379  51.273  1.00  0.00    -0.020 N 
HETATM   16  C16 UNL     1      24.848   1.610  51.862  1.00  0.00     0.201 C 
HETATM   17  C17 UNL     1      24.455   1.214  53.189  1.00  0.00     0.001 C 
HETATM   18  C18 UNL     1      22.966   0.631  53.270  1.00  0.00     0.072 C 
ENDROOT
BRANCH   1  19
HETATM   19  O1  UNL     1      24.674   6.959  50.842  1.00  0.00    -0.357 OA
HETATM   20  C1  UNL     1      24.069   8.155  50.588  1.00  0.00     0.209 C 
ENDBRANCH   1  19
BRANCH   2  21
HETATM   21  O2  UNL     1      26.094   5.634  49.776  1.00  0.00    -0.378 OA
HETATM   22  C4  UNL     1      27.051   5.540  48.758  1.00  0.00     0.203 C 
ENDBRANCH   2  21
TORSDOF 2
ENDMDL
MODEL 8
REMARK VINA RESULT:      -6.4      2.473      5.232
REMARK  2 active torsions:
REMARK  status: ('A' for Active; 'I' for Inactive)
REMARK    1  A    between atoms: O1_2  and  C2_3 
REMARK    2  A    between atoms: C3_4  and  O2_5 
ROOT
HETATM    1  C2  UNL     1      24.675   0.947  52.365  1.00  0.00     0.080 C 
HETATM    2  C3  UNL     1      25.194   1.979  51.637  1.00  0.00     0.118 A 
HETATM    3  C5  UNL     1      24.981   3.271  50.832  1.00  0.00     0.087 A 
HETATM    4  C6  UNL     1      23.486   3.210  50.411  1.00  0.00     0.129 A 
HETATM    5  C7  UNL     1      23.637   2.837  51.674  1.00  0.00     0.158 A 
HETATM    6  C8  UNL     1      23.899   2.444  53.070  1.00  0.00     0.137 C 
HETATM    7  N1  UNL     1      22.989   1.896  52.330  1.00  0.00    -0.311 NA
HETATM    8  C9  UNL     1      22.288   0.846  53.004  1.00  0.00     0.066 C 
HETATM    9  C10 UNL     1      23.481   0.275  53.013  1.00  0.00     0.105 C 
HETATM   10  C11 UNL     1      20.720   1.257  53.035  1.00  0.00     0.113 C 
HETATM   11  C12 UNL     1      20.754   1.973  51.729  1.00  0.00    -0.164 C 
HETATM   12  C13 UNL     1      20.806   2.496  50.778  1.00  0.00     0.102 A 
HETATM   13  C14 UNL     1      20.900   3.164  49.574  1.00  0.00     0.190 A 
HETATM   14  C15 UNL     1      21.252   4.049  50.454  1.00  0.00     0.260 A 
HETATM   15  N2  UNL     1      22.121   3.290  49.577  1.00  0.00    -0.020 N 
HETATM   16  C16 UNL     1      23.077   2.549  48.715  1.00  0.00     0.201 C 
HETATM   17  C17 UNL     1      22.050   1.849  47.989  1.00  0.00     0.001 C 
HETATM   18  C18 UNL     1      20.566   2.328  48.354  1.00  0.00     0.072 C 
ENDROOT
BRANCH   1  19
HETATM   19  O1  UNL     1      25.232  -0.128  52.942  1.00  0.00    -0.357 OA
HETATM   20  C1  UNL     1      25.348  -0.586  54.221  1.00  0.00     0.209 C 
ENDBRANCH   1  19
BRANCH   2  21
HETATM   21  O2  UNL     1      26.407   1.379  51.820  1.00  0.00    -0.378 OA
HETATM   22  C4  UNL     1      27.488   2.062  52.390  1.00  0.00     0.203 C 
ENDBRANCH   2  21
TORSDOF 2
ENDMDL
MODEL 9
REMARK VINA RESULT:      -6.3      2.391      5.784
REMARK  2 active torsions:
REMARK  status: ('A' for Active; 'I' for Inactive)
REMARK    1  A    between atoms: O1_2  and  C2_3 
REMARK    2  A    between atoms: C3_4  and  O2_5 
ROOT
HETATM    1  C2  UNL     1      23.471   2.661  52.018  1.00  0.00     0.080 C 
HETATM    2  C3  UNL     1      22.283   3.195  51.609  1.00  0.00     0.118 A 
HETATM    3  C5  UNL     1      21.496   4.077  50.627  1.00  0.00     0.087 A 
HETATM    4  C6  UNL     1      22.576   5.009  50.008  1.00  0.00     0.129 A 
HETATM    5  C7  UNL     1      23.019   3.762  50.092  1.00  0.00     0.158 A 
HETATM    6  C8  UNL     1      23.422   2.350  50.218  1.00  0.00     0.137 C 
HETATM    7  N1  UNL     1      24.235   3.345  50.378  1.00  0.00    -0.311 NA
HETATM    8  C9  UNL     1      25.559   2.927  50.722  1.00  0.00     0.066 C 
HETATM    9  C10 UNL     1      24.958   2.461  51.803  1.00  0.00     0.105 C 
HETATM   10  C11 UNL     1      26.554   3.484  49.569  1.00  0.00     0.113 C 
HETATM   11  C12 UNL     1      25.762   4.718  49.308  1.00  0.00    -0.164 C 
HETATM   12  C13 UNL     1      25.164   5.607  49.130  1.00  0.00     0.102 A 
HETATM   13  C14 UNL     1      24.380   6.723  48.916  1.00  0.00     0.190 A 
HETATM   14  C15 UNL     1      23.850   5.814  48.158  1.00  0.00     0.260 A 
HETATM   15  N2  UNL     1      23.361   6.283  49.439  1.00  0.00    -0.020 N 
HETATM   16  C16 UNL     1      22.798   6.707  50.747  1.00  0.00     0.201 C 
HETATM   17  C17 UNL     1      23.792   7.725  50.969  1.00  0.00     0.001 C 
HETATM   18  C18 UNL     1      24.775   7.944  49.724  1.00  0.00     0.072 C 
ENDROOT
BRANCH   1  19
HETATM   19  O1  UNL     1      23.805   1.876  53.053  1.00  0.00    -0.357 OA
HETATM   20  C1  UNL     1      24.269   0.600  53.186  1.00  0.00     0.209 C 
ENDBRANCH   1  19
BRANCH   2  21
HETATM   21  O2  UNL     1      21.730   2.559  52.683  1.00  0.00    -0.378 OA
HETATM   22  C4  UNL     1      20.401   2.118  52.675  1.00  0.00     0.203 C 
ENDBRANCH   2  21
TORSDOF 2
ENDMDL
