MODEL 1
REMARK VINA RESULT:      -7.6      0.000      0.000
REMARK  3 active torsions:
REMARK  status: ('A' for Active; 'I' for Inactive)
REMARK    1  A    between atoms: C4_4  and  C7_7 
REMARK    2  A    between atoms: C9_9  and  N1_10 
REMARK    3  A    between atoms: C10_11  and  N2_12 
ROOT
HETATM    1  C1  UNL     1      26.304   0.923  54.936  1.00  0.00     0.033 C 
HETATM    2  C2  UNL     1      25.408  -0.205  54.707  1.00  0.00     0.097 C 
HETATM    3  C3  UNL     1      25.758  -0.684  53.077  1.00  0.00     0.037 A 
HETATM    4  C4  UNL     1      26.644  -1.642  53.320  1.00  0.00     0.053 A 
HETATM    5  C5  UNL     1      27.510  -1.473  52.182  1.00  0.00    -0.036 A 
HETATM    6  C6  UNL     1      26.631  -0.515  51.939  1.00  0.00     0.053 A 
HETATM    7  C7  UNL     1      25.522  -0.412  52.990  1.00  0.00     0.060 A 
HETATM    8  C8  UNL     1      24.985   0.497  52.424  1.00  0.00    -0.017 A 
HETATM    9  C9  UNL     1      24.094   1.587  51.905  1.00  0.00     0.236 C 
HETATM   10  N3  UNL     1      22.735   1.111  51.776  1.00  0.00    -0.362 N 
HETATM   11  C11 UNL     1      22.148   0.266  52.731  1.00  0.00     0.056 A 
HETATM   12  C12 UNL     1      20.852  -0.137  52.724  1.00  0.00     0.031 A 
HETATM   13  C13 UNL     1      20.420  -1.030  53.676  1.00  0.00     0.002 A 
HETATM   14  C14 UNL     1      21.324  -1.490  54.614  1.00  0.00     0.002 A 
HETATM   15  C15 UNL     1      22.659  -1.155  54.726  1.00  0.00     0.031 A 
HETATM   16  C16 UNL     1      22.962  -0.233  53.683  1.00  0.00     0.058 A 
HETATM   17  N4  UNL     1      24.302  -0.187  53.978  1.00  0.00    -0.360 N 
HETATM   18  H12 UNL     1      22.053   1.284  51.030  1.00  0.00     0.162 HD
ENDROOT
BRANCH   9  19
HETATM   19  N1  UNL     1      24.290   2.800  52.594  1.00  0.00    -0.255 NA
HETATM   20  C10 UNL     1      23.505   3.805  52.602  1.00  0.00     0.196 C 
BRANCH  20  21
HETATM   21  N2  UNL     1      24.146   4.775  53.445  1.00  0.00    -0.394 N 
HETATM   22  H10 UNL     1      25.030   5.302  53.284  1.00  0.00     0.156 HD
HETATM   23  H11 UNL     1      24.315   5.401  54.265  1.00  0.00     0.156 HD
ENDBRANCH  20  21
ENDBRANCH   9  19
TORSDOF 3
ENDMDL
MODEL 2
REMARK VINA RESULT:      -7.3      2.614      3.662
REMARK  3 active torsions:
REMARK  status: ('A' for Active; 'I' for Inactive)
REMARK    1  A    between atoms: C4_4  and  C7_7 
REMARK    2  A    between atoms: C9_9  and  N1_10 
REMARK    3  A    between atoms: C10_11  and  N2_12 
ROOT
HETATM    1  C1  UNL     1      24.541   2.810  53.697  1.00  0.00     0.033 C 
HETATM    2  C2  UNL     1      24.032   1.802  52.774  1.00  0.00     0.097 C 
HETATM    3  C3  UNL     1      25.410   1.403  51.799  1.00  0.00     0.037 A 
HETATM    4  C4  UNL     1      25.846   0.342  52.466  1.00  0.00     0.053 A 
HETATM    5  C5  UNL     1      27.266   0.498  52.278  1.00  0.00    -0.036 A 
HETATM    6  C6  UNL     1      26.834   1.558  51.616  1.00  0.00     0.053 A 
HETATM    7  C7  UNL     1      25.309   1.704  51.607  1.00  0.00     0.060 A 
HETATM    8  C8  UNL     1      25.347   2.702  50.946  1.00  0.00    -0.017 A 
HETATM    9  C9  UNL     1      25.103   3.913  50.095  1.00  0.00     0.236 C 
HETATM   10  N3  UNL     1      24.211   3.595  49.003  1.00  0.00    -0.362 N 
HETATM   11  C11 UNL     1      23.101   2.752  49.171  1.00  0.00     0.056 A 
HETATM   12  C12 UNL     1      22.171   2.489  48.218  1.00  0.00     0.031 A 
HETATM   13  C13 UNL     1      21.172   1.583  48.485  1.00  0.00     0.002 A 
HETATM   14  C14 UNL     1      21.148   0.965  49.720  1.00  0.00     0.002 A 
HETATM   15  C15 UNL     1      22.032   1.149  50.766  1.00  0.00     0.031 A 
HETATM   16  C16 UNL     1      23.003   2.104  50.349  1.00  0.00     0.058 A 
HETATM   17  N4  UNL     1      23.753   1.987  51.492  1.00  0.00    -0.360 N 
HETATM   18  H12 UNL     1      24.251   3.890  48.022  1.00  0.00     0.162 HD
ENDROOT
BRANCH   9  19
HETATM   19  N1  UNL     1      24.794   5.048  50.871  1.00  0.00    -0.255 NA
HETATM   20  C10 UNL     1      24.861   6.265  50.498  1.00  0.00     0.196 C 
BRANCH  20  21
HETATM   21  N2  UNL     1      24.443   7.032  51.638  1.00  0.00    -0.394 N 
HETATM   22  H10 UNL     1      24.571   6.824  52.651  1.00  0.00     0.156 HD
HETATM   23  H11 UNL     1      24.016   7.808  52.193  1.00  0.00     0.156 HD
ENDBRANCH  20  21
ENDBRANCH   9  19
TORSDOF 3
ENDMDL
MODEL 3
REMARK VINA RESULT:      -7.2      1.799      4.769
REMARK  3 active torsions:
REMARK  status: ('A' for Active; 'I' for Inactive)
REMARK    1  A    between atoms: C4_4  and  C7_7 
REMARK    2  A    between atoms: C9_9  and  N1_10 
REMARK    3  A    between atoms: C10_11  and  N2_12 
ROOT
HETATM    1  C1  UNL     1      22.493   3.866  52.647  1.00  0.00     0.033 C 
HETATM    2  C2  UNL     1      23.860   3.432  52.380  1.00  0.00     0.097 C 
HETATM    3  C3  UNL     1      23.703   2.418  50.981  1.00  0.00     0.037 A 
HETATM    4  C4  UNL     1      23.972   3.311  50.037  1.00  0.00     0.053 A 
HETATM    5  C5  UNL     1      23.101   2.838  48.992  1.00  0.00    -0.036 A 
HETATM    6  C6  UNL     1      22.828   1.949  49.933  1.00  0.00     0.053 A 
HETATM    7  C7  UNL     1      23.614   2.158  51.230  1.00  0.00     0.060 A 
HETATM    8  C8  UNL     1      23.112   1.209  51.760  1.00  0.00    -0.017 A 
HETATM    9  C9  UNL     1      22.688   0.063  52.630  1.00  0.00     0.236 C 
HETATM   10  N3  UNL     1      23.840  -0.690  53.073  1.00  0.00    -0.362 N 
HETATM   11  C11 UNL     1      25.037  -0.063  53.455  1.00  0.00     0.056 A 
HETATM   12  C12 UNL     1      26.120  -0.698  53.971  1.00  0.00     0.031 A 
HETATM   13  C13 UNL     1      27.261   0.023  54.233  1.00  0.00     0.002 A 
HETATM   14  C14 UNL     1      27.269   1.377  53.960  1.00  0.00     0.002 A 
HETATM   15  C15 UNL     1      26.236   2.133  53.439  1.00  0.00     0.031 A 
HETATM   16  C16 UNL     1      25.131   1.261  53.219  1.00  0.00     0.058 A 
HETATM   17  N4  UNL     1      24.358   2.230  52.628  1.00  0.00    -0.360 N 
HETATM   18  H12 UNL     1      23.963  -1.705  53.155  1.00  0.00     0.162 HD
ENDROOT
BRANCH   9  19
HETATM   19  N1  UNL     1      21.762   0.462  53.614  1.00  0.00    -0.255 NA
HETATM   20  C10 UNL     1      21.361  -0.231  54.606  1.00  0.00     0.196 C 
BRANCH  20  21
HETATM   21  N2  UNL     1      20.434   0.615  55.305  1.00  0.00    -0.394 N 
HETATM   22  H10 UNL     1      20.464   0.946  56.292  1.00  0.00     0.156 HD
HETATM   23  H11 UNL     1      19.598   1.218  55.479  1.00  0.00     0.156 HD
ENDBRANCH  20  21
ENDBRANCH   9  19
TORSDOF 3
ENDMDL
MODEL 4
REMARK VINA RESULT:      -7.0      3.760      6.865
REMARK  3 active torsions:
REMARK  status: ('A' for Active; 'I' for Inactive)
REMARK    1  A    between atoms: C4_4  and  C7_7 
REMARK    2  A    between atoms: C9_9  and  N1_10 
REMARK    3  A    between atoms: C10_11  and  N2_12 
ROOT
HETATM    1  C1  UNL     1      23.245   4.494  52.573  1.00  0.00     0.033 C 
HETATM    2  C2  UNL     1      23.486   5.041  51.243  1.00  0.00     0.097 C 
HETATM    3  C3  UNL     1      23.160   3.706  50.184  1.00  0.00     0.037 A 
HETATM    4  C4  UNL     1      21.893   3.970  49.889  1.00  0.00     0.053 A 
HETATM    5  C5  UNL     1      21.380   2.629  49.776  1.00  0.00    -0.036 A 
HETATM    6  C6  UNL     1      22.641   2.363  50.074  1.00  0.00     0.053 A 
HETATM    7  C7  UNL     1      23.509   3.610  50.265  1.00  0.00     0.060 A 
HETATM    8  C8  UNL     1      24.493   2.966  50.490  1.00  0.00    -0.017 A 
HETATM    9  C9  UNL     1      25.865   2.418  50.749  1.00  0.00     0.236 C 
HETATM   10  N3  UNL     1      26.814   2.963  49.804  1.00  0.00    -0.362 N 
HETATM   11  C11 UNL     1      26.776   4.307  49.403  1.00  0.00     0.056 A 
HETATM   12  C12 UNL     1      27.691   4.907  48.598  1.00  0.00     0.031 A 
HETATM   13  C13 UNL     1      27.497   6.213  48.216  1.00  0.00     0.002 A 
HETATM   14  C14 UNL     1      26.371   6.876  48.664  1.00  0.00     0.002 A 
HETATM   15  C15 UNL     1      25.375   6.378  49.482  1.00  0.00     0.031 A 
HETATM   16  C16 UNL     1      25.706   5.028  49.793  1.00  0.00     0.058 A 
HETATM   17  N4  UNL     1      24.540   4.796  50.478  1.00  0.00    -0.360 N 
HETATM   18  H12 UNL     1      27.583   2.496  49.310  1.00  0.00     0.162 HD
ENDROOT
BRANCH   9  19
HETATM   19  N1  UNL     1      26.208   2.477  52.114  1.00  0.00    -0.255 NA
HETATM   20  C10 UNL     1      27.343   2.200  52.625  1.00  0.00     0.196 C 
BRANCH  20  21
HETATM   21  N2  UNL     1      27.182   2.417  54.036  1.00  0.00    -0.394 N 
HETATM   22  H10 UNL     1      27.812   2.916  54.699  1.00  0.00     0.156 HD
HETATM   23  H11 UNL     1      26.754   2.386  54.989  1.00  0.00     0.156 HD
ENDBRANCH  20  21
ENDBRANCH   9  19
TORSDOF 3
ENDMDL
MODEL 5
REMARK VINA RESULT:      -6.9      3.527      6.618
REMARK  3 active torsions:
REMARK  status: ('A' for Active; 'I' for Inactive)
REMARK    1  A    between atoms: C4_4  and  C7_7 
REMARK    2  A    between atoms: C9_9  and  N1_10 
REMARK    3  A    between atoms: C10_11  and  N2_12 
ROOT
HETATM    1  C1  UNL     1      22.948   2.578  49.839  1.00  0.00     0.033 C 
HETATM    2  C2  UNL     1      24.335   3.031  49.842  1.00  0.00     0.097 C 
HETATM    3  C3  UNL     1      24.737   3.113  51.527  1.00  0.00     0.037 A 
HETATM    4  C4  UNL     1      25.294   1.918  51.674  1.00  0.00     0.053 A 
HETATM    5  C5  UNL     1      24.881   1.615  53.020  1.00  0.00    -0.036 A 
HETATM    6  C6  UNL     1      24.321   2.805  52.875  1.00  0.00     0.053 A 
HETATM    7  C7  UNL     1      24.574   3.446  51.507  1.00  0.00     0.060 A 
HETATM    8  C8  UNL     1      23.953   4.431  51.785  1.00  0.00    -0.017 A 
HETATM    9  C9  UNL     1      23.290   5.773  51.884  1.00  0.00     0.236 C 
HETATM   10  N3  UNL     1      24.232   6.827  51.586  1.00  0.00    -0.362 N 
HETATM   11  C11 UNL     1      25.182   6.707  50.559  1.00  0.00     0.056 A 
HETATM   12  C12 UNL     1      26.029   7.691  50.162  1.00  0.00     0.031 A 
HETATM   13  C13 UNL     1      26.968   7.421  49.194  1.00  0.00     0.002 A 
HETATM   14  C14 UNL     1      27.019   6.150  48.655  1.00  0.00     0.002 A 
HETATM   15  C15 UNL     1      26.216   5.071  48.974  1.00  0.00     0.031 A 
HETATM   16  C16 UNL     1      25.302   5.496  49.981  1.00  0.00     0.058 A 
HETATM   17  N4  UNL     1      24.757   4.247  50.152  1.00  0.00    -0.360 N 
HETATM   18  H12 UNL     1      24.358   7.737  52.042  1.00  0.00     0.162 HD
ENDROOT
BRANCH   9  19
HETATM   19  N1  UNL     1      22.054   5.802  51.208  1.00  0.00    -0.255 NA
HETATM   20  C10 UNL     1      21.535   6.804  50.615  1.00  0.00     0.196 C 
BRANCH  20  21
HETATM   21  N2  UNL     1      20.289   6.324  50.087  1.00  0.00    -0.394 N 
HETATM   22  H10 UNL     1      19.335   6.732  50.183  1.00  0.00     0.156 HD
HETATM   23  H11 UNL     1      19.613   5.715  49.572  1.00  0.00     0.156 HD
ENDBRANCH  20  21
ENDBRANCH   9  19
TORSDOF 3
ENDMDL
MODEL 6
REMARK VINA RESULT:      -6.5      2.207      5.075
REMARK  3 active torsions:
REMARK  status: ('A' for Active; 'I' for Inactive)
REMARK    1  A    between atoms: C4_4  and  C7_7 
REMARK    2  A    between atoms: C9_9  and  N1_10 
REMARK    3  A    between atoms: C10_11  and  N2_12 
ROOT
HETATM    1  C1  UNL     1      22.166   2.130  49.372  1.00  0.00     0.033 C 
HETATM    2  C2  UNL     1      22.394   1.351  50.584  1.00  0.00     0.097 C 
HETATM    3  C3  UNL     1      21.477   2.191  51.792  1.00  0.00     0.037 A 
HETATM    4  C4  UNL     1      20.355   1.484  51.740  1.00  0.00     0.053 A 
HETATM    5  C5  UNL     1      19.394   2.524  52.008  1.00  0.00    -0.036 A 
HETATM    6  C6  UNL     1      20.511   3.231  52.056  1.00  0.00     0.053 A 
HETATM    7  C7  UNL     1      21.778   2.407  51.812  1.00  0.00     0.060 A 
HETATM    8  C8  UNL     1      22.496   3.356  51.945  1.00  0.00    -0.017 A 
HETATM    9  C9  UNL     1      23.611   4.345  52.113  1.00  0.00     0.236 C 
HETATM   10  N3  UNL     1      24.549   3.887  53.112  1.00  0.00    -0.362 N 
HETATM   11  C11 UNL     1      24.928   2.539  53.214  1.00  0.00     0.056 A 
HETATM   12  C12 UNL     1      25.873   2.056  54.061  1.00  0.00     0.031 A 
HETATM   13  C13 UNL     1      26.097   0.701  54.118  1.00  0.00     0.002 A 
HETATM   14  C14 UNL     1      25.349  -0.130  53.308  1.00  0.00     0.002 A 
HETATM   15  C15 UNL     1      24.366   0.238  52.409  1.00  0.00     0.031 A 
HETATM   16  C16 UNL     1      24.244   1.656  52.459  1.00  0.00     0.058 A 
HETATM   17  N4  UNL     1      23.178   1.694  51.595  1.00  0.00    -0.360 N 
HETATM   18  H12 UNL     1      25.028   4.417  53.848  1.00  0.00     0.162 HD
ENDROOT
BRANCH   9  19
HETATM   19  N1  UNL     1      24.140   4.758  50.874  1.00  0.00    -0.255 NA
HETATM   20  C10 UNL     1      23.565   5.501  50.012  1.00  0.00     0.196 C 
BRANCH  20  21
HETATM   21  N2  UNL     1      24.510   5.630  48.937  1.00  0.00    -0.394 N 
HETATM   22  H10 UNL     1      25.392   6.183  48.902  1.00  0.00     0.156 HD
HETATM   23  H11 UNL     1      24.952   5.493  48.000  1.00  0.00     0.156 HD
ENDBRANCH  20  21
ENDBRANCH   9  19
TORSDOF 3
ENDMDL
MODEL 7
REMARK VINA RESULT:      -6.4      9.604     11.578
REMARK  3 active torsions:
REMARK  status: ('A' for Active; 'I' for Inactive)
REMARK    1  A    between atoms: C4_4  and  C7_7 
REMARK    2  A    between atoms: C9_9  and  N1_10 
REMARK    3  A    between atoms: C10_11  and  N2_12 
ROOT
HETATM    1  C1  UNL     1      27.847   9.624  46.860  1.00  0.00     0.033 C 
HETATM    2  C2  UNL     1      28.087   8.277  47.368  1.00  0.00     0.097 C 
HETATM    3  C3  UNL     1      27.756   8.413  49.065  1.00  0.00     0.037 A 
HETATM    4  C4  UNL     1      26.490   8.016  49.069  1.00  0.00     0.053 A 
HETATM    5  C5  UNL     1      25.973   8.847  50.126  1.00  0.00    -0.036 A 
HETATM    6  C6  UNL     1      27.234   9.247  50.121  1.00  0.00     0.053 A 
HETATM    7  C7  UNL     1      28.105   8.537  49.081  1.00  0.00     0.060 A 
HETATM    8  C8  UNL     1      29.088   9.142  49.401  1.00  0.00    -0.017 A 
HETATM    9  C9  UNL     1      30.459   9.705  49.631  1.00  0.00     0.236 C 
HETATM   10  N3  UNL     1      31.408   8.644  49.879  1.00  0.00    -0.362 N 
HETATM   11  C11 UNL     1      31.373   7.433  49.168  1.00  0.00     0.056 A 
HETATM   12  C12 UNL     1      32.288   6.437  49.280  1.00  0.00     0.031 A 
HETATM   13  C13 UNL     1      32.097   5.267  48.585  1.00  0.00     0.002 A 
HETATM   14  C14 UNL     1      30.974   5.142  47.791  1.00  0.00     0.002 A 
HETATM   15  C15 UNL     1      29.977   6.079  47.595  1.00  0.00     0.031 A 
HETATM   16  C16 UNL     1      30.306   7.227  48.372  1.00  0.00     0.058 A 
HETATM   17  N4  UNL     1      29.139   7.886  48.071  1.00  0.00    -0.360 N 
HETATM   18  H12 UNL     1      32.174   8.601  50.559  1.00  0.00     0.162 HD
ENDROOT
BRANCH   9  19
HETATM   19  N1  UNL     1      30.804  10.665  48.658  1.00  0.00    -0.255 NA
HETATM   20  C10 UNL     1      30.386  11.868  48.595  1.00  0.00     0.196 C 
BRANCH  20  21
HETATM   21  N2  UNL     1      31.027  12.428  47.437  1.00  0.00    -0.394 N 
HETATM   22  H10 UNL     1      31.035  12.075  46.458  1.00  0.00     0.156 HD
HETATM   23  H11 UNL     1      31.590  13.085  46.852  1.00  0.00     0.156 HD
ENDBRANCH  20  21
ENDBRANCH   9  19
TORSDOF 3
ENDMDL
MODEL 8
REMARK VINA RESULT:      -6.4      3.238      5.205
REMARK  3 active torsions:
REMARK  status: ('A' for Active; 'I' for Inactive)
REMARK    1  A    between atoms: C4_4  and  C7_7 
REMARK    2  A    between atoms: C9_9  and  N1_10 
REMARK    3  A    between atoms: C10_11  and  N2_12 
ROOT
HETATM    1  C1  UNL     1      21.108   3.991  51.108  1.00  0.00     0.033 C 
HETATM    2  C2  UNL     1      21.832   2.774  51.459  1.00  0.00     0.097 C 
HETATM    3  C3  UNL     1      21.556   1.727  50.104  1.00  0.00     0.037 A 
HETATM    4  C4  UNL     1      22.654   1.988  49.404  1.00  0.00     0.053 A 
HETATM    5  C5  UNL     1      22.130   1.871  48.068  1.00  0.00    -0.036 A 
HETATM    6  C6  UNL     1      21.034   1.614  48.762  1.00  0.00     0.053 A 
HETATM    7  C7  UNL     1      21.239   1.651  50.280  1.00  0.00     0.060 A 
HETATM    8  C8  UNL     1      20.096   1.376  50.503  1.00  0.00    -0.017 A 
HETATM    9  C9  UNL     1      18.755   0.996  51.060  1.00  0.00     0.236 C 
HETATM   10  N3  UNL     1      18.877  -0.142  51.942  1.00  0.00    -0.362 N 
HETATM   11  C11 UNL     1      19.954  -0.281  52.833  1.00  0.00     0.056 A 
HETATM   12  C12 UNL     1      20.081  -1.270  53.755  1.00  0.00     0.031 A 
HETATM   13  C13 UNL     1      21.223  -1.338  54.516  1.00  0.00     0.002 A 
HETATM   14  C14 UNL     1      22.210  -0.392  54.317  1.00  0.00     0.002 A 
HETATM   15  C15 UNL     1      22.198   0.656  53.417  1.00  0.00     0.031 A 
HETATM   16  C16 UNL     1      20.966   0.599  52.705  1.00  0.00     0.058 A 
HETATM   17  N4  UNL     1      21.291   1.635  51.864  1.00  0.00    -0.360 N 
HETATM   18  H12 UNL     1      18.267  -0.961  52.038  1.00  0.00     0.162 HD
ENDROOT
BRANCH   9  19
HETATM   19  N1  UNL     1      18.050   2.115  51.545  1.00  0.00    -0.255 NA
HETATM   20  C10 UNL     1      17.539   3.052  50.848  1.00  0.00     0.196 C 
BRANCH  20  21
HETATM   21  N2  UNL     1      16.933   3.941  51.800  1.00  0.00    -0.394 N 
HETATM   22  H10 UNL     1      17.066   4.967  51.917  1.00  0.00     0.156 HD
HETATM   23  H11 UNL     1      16.332   4.266  52.591  1.00  0.00     0.156 HD
ENDBRANCH  20  21
ENDBRANCH   9  19
TORSDOF 3
ENDMDL
MODEL 9
REMARK VINA RESULT:      -6.4      2.819      5.726
REMARK  3 active torsions:
REMARK  status: ('A' for Active; 'I' for Inactive)
REMARK    1  A    between atoms: C4_4  and  C7_7 
REMARK    2  A    between atoms: C9_9  and  N1_10 
REMARK    3  A    between atoms: C10_11  and  N2_12 
ROOT
HETATM    1  C1  UNL     1      21.183   1.069  50.140  1.00  0.00     0.033 C 
HETATM    2  C2  UNL     1      22.575   1.464  50.325  1.00  0.00     0.097 C 
HETATM    3  C3  UNL     1      22.749   1.564  52.048  1.00  0.00     0.037 A 
HETATM    4  C4  UNL     1      23.228   0.349  52.286  1.00  0.00     0.053 A 
HETATM    5  C5  UNL     1      22.623   0.091  53.568  1.00  0.00    -0.036 A 
HETATM    6  C6  UNL     1      22.142   1.300  53.331  1.00  0.00     0.053 A 
HETATM    7  C7  UNL     1      22.605   1.902  52.001  1.00  0.00     0.060 A 
HETATM    8  C8  UNL     1      21.996   2.918  52.178  1.00  0.00    -0.017 A 
HETATM    9  C9  UNL     1      21.385   4.288  52.167  1.00  0.00     0.236 C 
HETATM   10  N3  UNL     1      22.404   5.296  51.984  1.00  0.00    -0.362 N 
HETATM   11  C11 UNL     1      23.478   5.116  51.098  1.00  0.00     0.056 A 
HETATM   12  C12 UNL     1      24.414   6.055  50.805  1.00  0.00     0.031 A 
HETATM   13  C13 UNL     1      25.462   5.727  49.978  1.00  0.00     0.002 A 
HETATM   14  C14 UNL     1      25.529   4.444  49.470  1.00  0.00     0.002 A 
HETATM   15  C15 UNL     1      24.644   3.406  49.692  1.00  0.00     0.031 A 
HETATM   16  C16 UNL     1      23.622   3.889  50.559  1.00  0.00     0.058 A 
HETATM   17  N4  UNL     1      23.005   2.668  50.672  1.00  0.00    -0.360 N 
HETATM   18  H12 UNL     1      22.507   6.208  52.440  1.00  0.00     0.162 HD
ENDROOT
BRANCH   9  19
HETATM   19  N1  UNL     1      20.255   4.354  51.328  1.00  0.00    -0.255 NA
HETATM   20  C10 UNL     1      19.152   3.734  51.487  1.00  0.00     0.196 C 
BRANCH  20  21
HETATM   21  N2  UNL     1      18.331   4.137  50.379  1.00  0.00    -0.394 N 
HETATM   22  H10 UNL     1      18.616   4.393  49.411  1.00  0.00     0.156 HD
HETATM   23  H11 UNL     1      17.473   4.376  49.833  1.00  0.00     0.156 HD
ENDBRANCH  20  21
ENDBRANCH   9  19
TORSDOF 3
ENDMDL
