MODEL 1
REMARK VINA RESULT:      -8.1      0.000      0.000
REMARK  3 active torsions:
REMARK  status: ('A' for Active; 'I' for Inactive)
REMARK       I    between atoms: C1_2  and  N1_4 
REMARK    1  A    between atoms: N1_4  and  C2_5 
REMARK    2  A    between atoms: C7_12  and  N4_13 
REMARK    3  A    between atoms: N4_13  and  C8_14 
ROOT
HETATM    1  C2  UNL     1      21.871   0.363  52.046  1.00  0.00     0.036 A 
HETATM    2  C3  UNL     1      20.936  -0.142  52.919  1.00  0.00     0.032 A 
HETATM    3  C4  UNL     1      21.214  -0.748  54.126  1.00  0.00     0.035 A 
HETATM    4  C5  UNL     1      22.514  -0.872  54.511  1.00  0.00     0.072 A 
HETATM    5  N2  UNL     1      22.895  -1.447  55.667  1.00  0.00    -0.241 NA
HETATM    6  C6  UNL     1      24.216  -1.542  55.998  1.00  0.00     0.236 A 
HETATM    7  N3  UNL     1      25.150  -1.064  55.178  1.00  0.00    -0.224 NA
HETATM    8  C7  UNL     1      24.818  -0.480  54.010  1.00  0.00     0.142 A 
HETATM    9  C14 UNL     1      23.490  -0.381  53.670  1.00  0.00     0.041 A 
HETATM   10  C15 UNL     1      23.168   0.213  52.481  1.00  0.00     0.047 A 
ENDROOT
BRANCH   8  11
HETATM   11  N4  UNL     1      25.853   0.006  53.183  1.00  0.00    -0.340 N 
HETATM   12  H5  UNL     1      25.386   0.506  52.397  1.00  0.00     0.167 HD
BRANCH  11  13
HETATM   13  C8  UNL     1      27.257  -0.137  53.352  1.00  0.00     0.033 A 
HETATM   14  C9  UNL     1      27.976   0.920  53.809  1.00  0.00     0.029 A 
HETATM   15  C10 UNL     1      29.333   0.696  53.944  1.00  0.00     0.002 A 
HETATM   16  C11 UNL     1      29.900  -0.518  53.633  1.00  0.00     0.000 A 
HETATM   17  C12 UNL     1      29.128  -1.573  53.169  1.00  0.00     0.002 A 
HETATM   18  C13 UNL     1      27.771  -1.373  53.027  1.00  0.00     0.029 A 
ENDBRANCH  11  13
ENDBRANCH   8  11
BRANCH   1  19
HETATM   19  N1  UNL     1      21.636   0.984  50.816  1.00  0.00    -0.318 N 
HETATM   20  C1  UNL     1      21.522   2.346  50.493  1.00  0.00     0.292 C 
HETATM   21  O1  UNL     1      21.638   3.198  51.398  1.00  0.00    -0.260 OA
HETATM   22 BR1  UNL     1      21.201   3.061  48.773  1.00  0.00     0.017 Br
HETATM   23  H1  UNL     1      21.516   0.403  49.953  1.00  0.00     0.169 HD
ENDBRANCH   1  19
TORSDOF 3
ENDMDL
MODEL 2
REMARK VINA RESULT:      -8.0      3.495      4.472
REMARK  3 active torsions:
REMARK  status: ('A' for Active; 'I' for Inactive)
REMARK       I    between atoms: C1_2  and  N1_4 
REMARK    1  A    between atoms: N1_4  and  C2_5 
REMARK    2  A    between atoms: C7_12  and  N4_13 
REMARK    3  A    between atoms: N4_13  and  C8_14 
ROOT
HETATM    1  C2  UNL     1      25.884   3.306  49.819  1.00  0.00     0.036 A 
HETATM    2  C3  UNL     1      24.587   3.379  49.369  1.00  0.00     0.032 A 
HETATM    3  C4  UNL     1      23.499   2.777  49.965  1.00  0.00     0.035 A 
HETATM    4  C5  UNL     1      23.696   2.042  51.094  1.00  0.00     0.072 A 
HETATM    5  N2  UNL     1      22.704   1.413  51.753  1.00  0.00    -0.241 NA
HETATM    6  C6  UNL     1      22.965   0.690  52.882  1.00  0.00     0.236 A 
HETATM    7  N3  UNL     1      24.208   0.596  53.348  1.00  0.00    -0.224 NA
HETATM    8  C7  UNL     1      25.233   1.208  52.723  1.00  0.00     0.142 A 
HETATM    9  C14 UNL     1      24.979   1.938  51.586  1.00  0.00     0.041 A 
HETATM   10  C15 UNL     1      26.029   2.552  50.962  1.00  0.00     0.047 A 
ENDROOT
BRANCH   8  11
HETATM   11  N4  UNL     1      26.529   1.071  53.264  1.00  0.00    -0.340 N 
HETATM   12  H5  UNL     1      26.744   1.975  53.737  1.00  0.00     0.167 HD
BRANCH  11  13
HETATM   13  C8  UNL     1      27.397  -0.053  53.200  1.00  0.00     0.033 A 
HETATM   14  C9  UNL     1      26.896  -1.250  52.801  1.00  0.00     0.029 A 
HETATM   15  C10 UNL     1      27.807  -2.288  52.767  1.00  0.00     0.002 A 
HETATM   16  C11 UNL     1      29.125  -2.107  53.116  1.00  0.00     0.000 A 
HETATM   17  C12 UNL     1      29.596  -0.866  53.518  1.00  0.00     0.002 A 
HETATM   18  C13 UNL     1      28.705   0.187  53.560  1.00  0.00     0.029 A 
ENDBRANCH  11  13
ENDBRANCH   8  11
BRANCH   1  19
HETATM   19  N1  UNL     1      27.016   3.897  49.250  1.00  0.00    -0.318 N 
HETATM   20  C1  UNL     1      27.272   5.239  48.922  1.00  0.00     0.292 C 
HETATM   21  O1  UNL     1      26.394   6.098  49.146  1.00  0.00    -0.260 OA
HETATM   22 BR1  UNL     1      28.859   5.914  48.149  1.00  0.00     0.017 Br
HETATM   23  H1  UNL     1      27.845   3.306  49.002  1.00  0.00     0.169 HD
ENDBRANCH   1  19
TORSDOF 3
ENDMDL
MODEL 3
REMARK VINA RESULT:      -8.0      2.361      3.063
REMARK  3 active torsions:
REMARK  status: ('A' for Active; 'I' for Inactive)
REMARK       I    between atoms: C1_2  and  N1_4 
REMARK    1  A    between atoms: N1_4  and  C2_5 
REMARK    2  A    between atoms: C7_12  and  N4_13 
REMARK    3  A    between atoms: N4_13  and  C8_14 
ROOT
HETATM    1  C2  UNL     1      24.181   2.542  50.544  1.00  0.00     0.036 A 
HETATM    2  C3  UNL     1      22.871   2.231  50.269  1.00  0.00     0.032 A 
HETATM    3  C4  UNL     1      22.098   1.331  50.972  1.00  0.00     0.035 A 
HETATM    4  C5  UNL     1      22.653   0.681  52.032  1.00  0.00     0.072 A 
HETATM    5  N2  UNL     1      21.988  -0.215  52.784  1.00  0.00    -0.241 NA
HETATM    6  C6  UNL     1      22.599  -0.835  53.836  1.00  0.00     0.236 A 
HETATM    7  N3  UNL     1      23.868  -0.559  54.133  1.00  0.00    -0.224 NA
HETATM    8  C7  UNL     1      24.574   0.331  53.409  1.00  0.00     0.142 A 
HETATM    9  C14 UNL     1      23.965   0.959  52.349  1.00  0.00     0.041 A 
HETATM   10  C15 UNL     1      24.695   1.859  51.623  1.00  0.00     0.047 A 
ENDROOT
BRANCH   8  11
HETATM   11  N4  UNL     1      25.914   0.580  53.773  1.00  0.00    -0.340 N 
HETATM   12  H5  UNL     1      25.925   1.522  54.220  1.00  0.00     0.167 HD
BRANCH  11  13
HETATM   13  C8  UNL     1      27.048  -0.255  53.585  1.00  0.00     0.033 A 
HETATM   14  C9  UNL     1      26.904  -1.417  52.896  1.00  0.00     0.029 A 
HETATM   15  C10 UNL     1      28.056  -2.168  52.760  1.00  0.00     0.002 A 
HETATM   16  C11 UNL     1      29.256  -1.756  53.289  1.00  0.00     0.000 A 
HETATM   17  C12 UNL     1      29.361  -0.560  53.986  1.00  0.00     0.002 A 
HETATM   18  C13 UNL     1      28.224   0.208  54.135  1.00  0.00     0.029 A 
ENDBRANCH  11  13
ENDBRANCH   8  11
BRANCH   1  19
HETATM   19  N1  UNL     1      25.002   3.445  49.861  1.00  0.00    -0.318 N 
HETATM   20  C1  UNL     1      25.140   4.835  50.004  1.00  0.00     0.292 C 
HETATM   21  O1  UNL     1      24.453   5.429  50.860  1.00  0.00    -0.260 OA
HETATM   22 BR1  UNL     1      26.297   5.949  49.008  1.00  0.00     0.017 Br
HETATM   23  H1  UNL     1      25.642   3.100  49.107  1.00  0.00     0.169 HD
ENDBRANCH   1  19
TORSDOF 3
ENDMDL
MODEL 4
REMARK VINA RESULT:      -7.9      3.301      5.674
REMARK  3 active torsions:
REMARK  status: ('A' for Active; 'I' for Inactive)
REMARK       I    between atoms: C1_2  and  N1_4 
REMARK    1  A    between atoms: N1_4  and  C2_5 
REMARK    2  A    between atoms: C7_12  and  N4_13 
REMARK    3  A    between atoms: N4_13  and  C8_14 
ROOT
HETATM    1  C2  UNL     1      25.188  -0.767  54.130  1.00  0.00     0.036 A 
HETATM    2  C3  UNL     1      24.506  -1.290  55.203  1.00  0.00     0.032 A 
HETATM    3  C4  UNL     1      23.145  -1.196  55.410  1.00  0.00     0.035 A 
HETATM    4  C5  UNL     1      22.389  -0.535  54.490  1.00  0.00     0.072 A 
HETATM    5  N2  UNL     1      21.055  -0.385  54.594  1.00  0.00    -0.241 NA
HETATM    6  C6  UNL     1      20.351   0.289  53.638  1.00  0.00     0.236 A 
HETATM    7  N3  UNL     1      20.977   0.809  52.585  1.00  0.00    -0.224 NA
HETATM    8  C7  UNL     1      22.311   0.684  52.436  1.00  0.00     0.142 A 
HETATM    9  C14 UNL     1      23.027   0.007  53.395  1.00  0.00     0.041 A 
HETATM   10  C15 UNL     1      24.379  -0.110  53.231  1.00  0.00     0.047 A 
ENDROOT
BRANCH   8  11
HETATM   11  N4  UNL     1      22.917   1.258  51.299  1.00  0.00    -0.340 N 
HETATM   12  H5  UNL     1      23.016   0.489  50.602  1.00  0.00     0.167 HD
BRANCH  11  13
HETATM   13  C8  UNL     1      23.325   2.605  51.102  1.00  0.00     0.033 A 
HETATM   14  C9  UNL     1      23.238   3.478  52.139  1.00  0.00     0.029 A 
HETATM   15  C10 UNL     1      23.655   4.766  51.863  1.00  0.00     0.002 A 
HETATM   16  C11 UNL     1      24.123   5.124  50.620  1.00  0.00     0.000 A 
HETATM   17  C12 UNL     1      24.196   4.201  49.587  1.00  0.00     0.002 A 
HETATM   18  C13 UNL     1      23.785   2.908  49.839  1.00  0.00     0.029 A 
ENDBRANCH  11  13
ENDBRANCH   8  11
BRANCH   1  19
HETATM   19  N1  UNL     1      26.561  -0.838  53.880  1.00  0.00    -0.318 N 
HETATM   20  C1  UNL     1      27.604   0.006  54.295  1.00  0.00     0.292 C 
HETATM   21  O1  UNL     1      27.338   0.999  55.004  1.00  0.00    -0.260 OA
HETATM   22 BR1  UNL     1      29.438  -0.202  53.885  1.00  0.00     0.017 Br
HETATM   23  H1  UNL     1      26.946  -1.618  53.297  1.00  0.00     0.169 HD
ENDBRANCH   1  19
TORSDOF 3
ENDMDL
MODEL 5
REMARK VINA RESULT:      -7.8      3.622      5.250
REMARK  3 active torsions:
REMARK  status: ('A' for Active; 'I' for Inactive)
REMARK       I    between atoms: C1_2  and  N1_4 
REMARK    1  A    between atoms: N1_4  and  C2_5 
REMARK    2  A    between atoms: C7_12  and  N4_13 
REMARK    3  A    between atoms: N4_13  and  C8_14 
ROOT
HETATM    1  C2  UNL     1      23.729  -0.270  53.568  1.00  0.00     0.036 A 
HETATM    2  C3  UNL     1      24.449  -0.692  54.661  1.00  0.00     0.032 A 
HETATM    3  C4  UNL     1      25.740  -0.312  54.963  1.00  0.00     0.035 A 
HETATM    4  C5  UNL     1      26.380   0.551  54.127  1.00  0.00     0.072 A 
HETATM    5  N2  UNL     1      27.639   0.984  54.328  1.00  0.00    -0.241 NA
HETATM    6  C6  UNL     1      28.227   1.851  53.452  1.00  0.00     0.236 A 
HETATM    7  N3  UNL     1      27.562   2.281  52.382  1.00  0.00    -0.224 NA
HETATM    8  C7  UNL     1      26.300   1.876  52.139  1.00  0.00     0.142 A 
HETATM    9  C14 UNL     1      25.700   1.003  53.016  1.00  0.00     0.041 A 
HETATM   10  C15 UNL     1      24.420   0.599  52.755  1.00  0.00     0.047 A 
ENDROOT
BRANCH   8  11
HETATM   11  N4  UNL     1      25.646   2.366  50.988  1.00  0.00    -0.340 N 
HETATM   12  H5  UNL     1      24.973   1.624  50.698  1.00  0.00     0.167 HD
BRANCH  11  13
HETATM   13  C8  UNL     1      25.838   3.609  50.328  1.00  0.00     0.033 A 
HETATM   14  C9  UNL     1      26.832   3.722  49.410  1.00  0.00     0.029 A 
HETATM   15  C10 UNL     1      26.948   4.964  48.817  1.00  0.00     0.002 A 
HETATM   16  C11 UNL     1      26.109   6.004  49.143  1.00  0.00     0.000 A 
HETATM   17  C12 UNL     1      25.105   5.847  50.087  1.00  0.00     0.002 A 
HETATM   18  C13 UNL     1      24.969   4.615  50.694  1.00  0.00     0.029 A 
ENDBRANCH  11  13
ENDBRANCH   8  11
BRANCH   1  19
HETATM   19  N1  UNL     1      22.423  -0.627  53.222  1.00  0.00    -0.318 N 
HETATM   20  C1  UNL     1      21.205  -0.353  53.866  1.00  0.00     0.292 C 
HETATM   21  O1  UNL     1      21.213   0.313  54.923  1.00  0.00    -0.260 OA
HETATM   22 BR1  UNL     1      19.490  -0.899  53.289  1.00  0.00     0.017 Br
HETATM   23  H1  UNL     1      22.247  -1.191  52.357  1.00  0.00     0.169 HD
ENDBRANCH   1  19
TORSDOF 3
ENDMDL
MODEL 6
REMARK VINA RESULT:      -7.5      4.235      6.373
REMARK  3 active torsions:
REMARK  status: ('A' for Active; 'I' for Inactive)
REMARK       I    between atoms: C1_2  and  N1_4 
REMARK    1  A    between atoms: N1_4  and  C2_5 
REMARK    2  A    between atoms: C7_12  and  N4_13 
REMARK    3  A    between atoms: N4_13  and  C8_14 
ROOT
HETATM    1  C2  UNL     1      25.144   0.679  52.933  1.00  0.00     0.036 A 
HETATM    2  C3  UNL     1      24.103  -0.205  53.100  1.00  0.00     0.032 A 
HETATM    3  C4  UNL     1      22.764   0.114  53.025  1.00  0.00     0.035 A 
HETATM    4  C5  UNL     1      22.412   1.403  52.765  1.00  0.00     0.072 A 
HETATM    5  N2  UNL     1      21.136   1.821  52.671  1.00  0.00    -0.241 NA
HETATM    6  C6  UNL     1      20.847   3.129  52.408  1.00  0.00     0.236 A 
HETATM    7  N3  UNL     1      21.827   4.014  52.240  1.00  0.00    -0.224 NA
HETATM    8  C7  UNL     1      23.120   3.643  52.324  1.00  0.00     0.142 A 
HETATM    9  C14 UNL     1      23.420   2.328  52.589  1.00  0.00     0.041 A 
HETATM   10  C15 UNL     1      24.736   1.967  52.673  1.00  0.00     0.047 A 
ENDROOT
BRANCH   8  11
HETATM   11  N4  UNL     1      24.115   4.626  52.137  1.00  0.00    -0.340 N 
HETATM   12  H5  UNL     1      24.548   4.783  53.073  1.00  0.00     0.167 HD
BRANCH  11  13
HETATM   13  C8  UNL     1      24.482   5.293  50.937  1.00  0.00     0.033 A 
HETATM   14  C9  UNL     1      23.919   6.496  50.652  1.00  0.00     0.029 A 
HETATM   15  C10 UNL     1      24.331   7.073  49.467  1.00  0.00     0.002 A 
HETATM   16  C11 UNL     1      25.247   6.462  48.644  1.00  0.00     0.000 A 
HETATM   17  C12 UNL     1      25.799   5.232  48.972  1.00  0.00     0.002 A 
HETATM   18  C13 UNL     1      25.403   4.635  50.151  1.00  0.00     0.029 A 
ENDBRANCH  11  13
ENDBRANCH   8  11
BRANCH   1  19
HETATM   19  N1  UNL     1      26.512   0.402  53.000  1.00  0.00    -0.318 N 
HETATM   20  C1  UNL     1      27.304  -0.010  54.085  1.00  0.00     0.292 C 
HETATM   21  O1  UNL     1      26.768  -0.178  55.199  1.00  0.00    -0.260 OA
HETATM   22 BR1  UNL     1      29.162  -0.354  54.042  1.00  0.00     0.017 Br
HETATM   23  H1  UNL     1      27.107   0.496  52.142  1.00  0.00     0.169 HD
ENDBRANCH   1  19
TORSDOF 3
ENDMDL
MODEL 7
REMARK VINA RESULT:      -7.3      2.532      4.265
REMARK  3 active torsions:
REMARK  status: ('A' for Active; 'I' for Inactive)
REMARK       I    between atoms: C1_2  and  N1_4 
REMARK    1  A    between atoms: N1_4  and  C2_5 
REMARK    2  A    between atoms: C7_12  and  N4_13 
REMARK    3  A    between atoms: N4_13  and  C8_14 
ROOT
HETATM    1  C2  UNL     1      21.928  -0.822  53.723  1.00  0.00     0.036 A 
HETATM    2  C3  UNL     1      22.272  -1.431  54.906  1.00  0.00     0.032 A 
HETATM    3  C4  UNL     1      23.523  -1.406  55.485  1.00  0.00     0.035 A 
HETATM    4  C5  UNL     1      24.521  -0.728  54.854  1.00  0.00     0.072 A 
HETATM    5  N2  UNL     1      25.777  -0.641  55.331  1.00  0.00    -0.241 NA
HETATM    6  C6  UNL     1      26.736   0.054  54.651  1.00  0.00     0.236 A 
HETATM    7  N3  UNL     1      26.441   0.657  53.501  1.00  0.00    -0.224 NA
HETATM    8  C7  UNL     1      25.198   0.598  52.984  1.00  0.00     0.142 A 
HETATM    9  C14 UNL     1      24.227  -0.100  53.662  1.00  0.00     0.041 A 
HETATM   10  C15 UNL     1      22.971  -0.152  53.125  1.00  0.00     0.047 A 
ENDROOT
BRANCH   8  11
HETATM   11  N4  UNL     1      24.946   1.256  51.762  1.00  0.00    -0.340 N 
HETATM   12  H5  UNL     1      25.052   0.536  51.016  1.00  0.00     0.167 HD
BRANCH  11  13
HETATM   13  C8  UNL     1      24.614   2.621  51.548  1.00  0.00     0.033 A 
HETATM   14  C9  UNL     1      23.937   3.294  52.514  1.00  0.00     0.029 A 
HETATM   15  C10 UNL     1      23.656   4.615  52.225  1.00  0.00     0.002 A 
HETATM   16  C11 UNL     1      24.040   5.195  51.038  1.00  0.00     0.000 A 
HETATM   17  C12 UNL     1      24.731   4.472  50.077  1.00  0.00     0.002 A 
HETATM   18  C13 UNL     1      25.024   3.150  50.343  1.00  0.00     0.029 A 
ENDBRANCH  11  13
ENDBRANCH   8  11
BRANCH   1  19
HETATM   19  N1  UNL     1      20.677  -0.822  53.100  1.00  0.00    -0.318 N 
HETATM   20  C1  UNL     1      19.843   0.249  52.736  1.00  0.00     0.292 C 
HETATM   21  O1  UNL     1      20.213   1.416  52.976  1.00  0.00    -0.260 OA
HETATM   22 BR1  UNL     1      18.158   0.113  51.891  1.00  0.00     0.017 Br
HETATM   23  H1  UNL     1      20.226  -1.729  52.832  1.00  0.00     0.169 HD
ENDBRANCH   1  19
TORSDOF 3
ENDMDL
MODEL 8
REMARK VINA RESULT:      -7.3      3.463      6.832
REMARK  3 active torsions:
REMARK  status: ('A' for Active; 'I' for Inactive)
REMARK       I    between atoms: C1_2  and  N1_4 
REMARK    1  A    between atoms: N1_4  and  C2_5 
REMARK    2  A    between atoms: C7_12  and  N4_13 
REMARK    3  A    between atoms: N4_13  and  C8_14 
ROOT
HETATM    1  C2  UNL     1      26.244   2.708  51.514  1.00  0.00     0.036 A 
HETATM    2  C3  UNL     1      26.444   3.104  50.213  1.00  0.00     0.032 A 
HETATM    3  C4  UNL     1      25.449   3.354  49.291  1.00  0.00     0.035 A 
HETATM    4  C5  UNL     1      24.151   3.203  49.674  1.00  0.00     0.072 A 
HETATM    5  N2  UNL     1      23.104   3.420  48.855  1.00  0.00    -0.241 NA
HETATM    6  C6  UNL     1      21.824   3.251  49.298  1.00  0.00     0.236 A 
HETATM    7  N3  UNL     1      21.592   2.869  50.552  1.00  0.00    -0.224 NA
HETATM    8  C7  UNL     1      22.606   2.640  51.409  1.00  0.00     0.142 A 
HETATM    9  C14 UNL     1      23.898   2.807  50.971  1.00  0.00     0.041 A 
HETATM   10  C15 UNL     1      24.917   2.570  51.851  1.00  0.00     0.047 A 
ENDROOT
BRANCH   8  11
HETATM   11  N4  UNL     1      22.296   2.235  52.725  1.00  0.00    -0.340 N 
HETATM   12  H5  UNL     1      22.485   3.059  53.335  1.00  0.00     0.167 HD
BRANCH  11  13
HETATM   13  C8  UNL     1      21.822   0.971  53.169  1.00  0.00     0.033 A 
HETATM   14  C9  UNL     1      20.484   0.738  53.188  1.00  0.00     0.029 A 
HETATM   15  C10 UNL     1      20.110  -0.514  53.634  1.00  0.00     0.002 A 
HETATM   16  C11 UNL     1      21.038  -1.450  54.028  1.00  0.00     0.000 A 
HETATM   17  C12 UNL     1      22.397  -1.172  53.993  1.00  0.00     0.002 A 
HETATM   18  C13 UNL     1      22.795   0.073  53.551  1.00  0.00     0.029 A 
ENDBRANCH  11  13
ENDBRANCH   8  11
BRANCH   1  19
HETATM   19  N1  UNL     1      27.219   2.444  52.481  1.00  0.00    -0.318 N 
HETATM   20  C1  UNL     1      27.730   1.221  52.945  1.00  0.00     0.292 C 
HETATM   21  O1  UNL     1      27.292   0.156  52.463  1.00  0.00    -0.260 OA
HETATM   22 BR1  UNL     1      29.061   1.000  54.270  1.00  0.00     0.017 Br
HETATM   23  H1  UNL     1      27.687   3.237  52.981  1.00  0.00     0.169 HD
ENDBRANCH   1  19
TORSDOF 3
ENDMDL
MODEL 9
REMARK VINA RESULT:      -7.2      3.956      5.142
REMARK  3 active torsions:
REMARK  status: ('A' for Active; 'I' for Inactive)
REMARK       I    between atoms: C1_2  and  N1_4 
REMARK    1  A    between atoms: N1_4  and  C2_5 
REMARK    2  A    between atoms: C7_12  and  N4_13 
REMARK    3  A    between atoms: N4_13  and  C8_14 
ROOT
HETATM    1  C2  UNL     1      22.272   1.231  51.848  1.00  0.00     0.036 A 
HETATM    2  C3  UNL     1      22.695   0.364  52.828  1.00  0.00     0.032 A 
HETATM    3  C4  UNL     1      24.001   0.192  53.234  1.00  0.00     0.035 A 
HETATM    4  C5  UNL     1      24.975   0.929  52.631  1.00  0.00     0.072 A 
HETATM    5  N2  UNL     1      26.280   0.838  52.950  1.00  0.00    -0.241 NA
HETATM    6  C6  UNL     1      27.211   1.604  52.308  1.00  0.00     0.236 A 
HETATM    7  N3  UNL     1      26.839   2.454  51.354  1.00  0.00    -0.224 NA
HETATM    8  C7  UNL     1      25.545   2.580  50.999  1.00  0.00     0.142 A 
HETATM    9  C14 UNL     1      24.601   1.813  51.641  1.00  0.00     0.041 A 
HETATM   10  C15 UNL     1      23.293   1.950  51.270  1.00  0.00     0.047 A 
ENDROOT
BRANCH   8  11
HETATM   11  N4  UNL     1      25.213   3.497  49.980  1.00  0.00    -0.340 N 
HETATM   12  H5  UNL     1      24.288   3.194  49.605  1.00  0.00     0.167 HD
BRANCH  11  13
HETATM   13  C8  UNL     1      25.959   4.618  49.525  1.00  0.00     0.033 A 
HETATM   14  C9  UNL     1      25.458   5.866  49.718  1.00  0.00     0.029 A 
HETATM   15  C10 UNL     1      26.246   6.897  49.247  1.00  0.00     0.002 A 
HETATM   16  C11 UNL     1      27.452   6.662  48.627  1.00  0.00     0.000 A 
HETATM   17  C12 UNL     1      27.928   5.371  48.450  1.00  0.00     0.002 A 
HETATM   18  C13 UNL     1      27.158   4.324  48.913  1.00  0.00     0.029 A 
ENDBRANCH  11  13
ENDBRANCH   8  11
BRANCH   1  19
HETATM   19  N1  UNL     1      20.962   1.437  51.404  1.00  0.00    -0.318 N 
HETATM   20  C1  UNL     1      19.958   2.285  51.900  1.00  0.00     0.292 C 
HETATM   21  O1  UNL     1      20.202   2.999  52.895  1.00  0.00    -0.260 OA
HETATM   22 BR1  UNL     1      18.212   2.473  51.202  1.00  0.00     0.017 Br
HETATM   23  H1  UNL     1      20.603   0.910  50.573  1.00  0.00     0.169 HD
ENDBRANCH   1  19
TORSDOF 3
ENDMDL
