MODEL 1
REMARK VINA RESULT:      -7.4      0.000      0.000
REMARK  4 active torsions:
REMARK  status: ('A' for Active; 'I' for Inactive)
REMARK    1  A    between atoms: C2_2  and  C3_3 
REMARK    2  A    between atoms: C3_3  and  C4_4 
REMARK    3  A    between atoms: C16_21  and  O1_22 
REMARK    4  A    between atoms: O1_22  and  O2_23 
ROOT
HETATM    1  C4  UNL     1      30.252   6.299  47.837  1.00  0.00    -0.044 C 
HETATM    2  C5  UNL     1      30.732   6.673  46.665  1.00  0.00     0.019 C 
HETATM    3  C6  UNL     1      32.128   7.065  46.850  1.00  0.00     0.035 C 
HETATM    4  C7  UNL     1      32.696   7.755  45.806  1.00  0.00     0.138 C 
HETATM    5  N1  UNL     1      33.403   8.912  46.327  1.00  0.00    -0.224 NA
HETATM    6  C8  UNL     1      34.381   8.864  47.201  1.00  0.00     0.234 C 
HETATM    7  N2  UNL     1      34.427   8.111  48.405  1.00  0.00    -0.255 NA
HETATM    8  C9  UNL     1      33.463   7.431  48.917  1.00  0.00     0.140 C 
HETATM    9  C10 UNL     1      32.542   6.565  48.194  1.00  0.00     0.254 C 
HETATM   10  N3  UNL     1      33.135   5.244  47.934  1.00  0.00     0.112 N 
HETATM   11  C11 UNL     1      34.230   5.382  47.026  1.00  0.00     0.341 C 
HETATM   12  C12 UNL     1      34.756   4.107  46.538  1.00  0.00     0.122 C 
HETATM   13  F1  UNL     1      35.400   3.157  47.219  1.00  0.00    -0.209 F 
HETATM   14  C13 UNL     1      34.449   4.085  45.231  1.00  0.00     0.041 C 
HETATM   15  C14 UNL     1      33.777   4.921  44.268  1.00  0.00     0.020 C 
HETATM   16  C15 UNL     1      33.145   6.047  44.169  1.00  0.00     0.090 C 
HETATM   17  N4  UNL     1      32.540   7.264  44.411  1.00  0.00    -0.350 N 
HETATM   18  C16 UNL     1      31.264   6.398  48.919  1.00  0.00     0.238 C 
HETATM   19  H11 UNL     1      32.349   4.663  47.546  1.00  0.00     0.318 HD
HETATM   20  H17 UNL     1      32.111   8.132  44.590  1.00  0.00     0.166 HD
ENDROOT
BRANCH   1  21
HETATM   21  C3  UNL     1      28.931   5.815  48.254  1.00  0.00     0.037 C 
BRANCH  21  22
HETATM   22  C2  UNL     1      27.851   6.840  48.140  1.00  0.00    -0.000 C 
HETATM   23  C1  UNL     1      26.502   6.355  48.559  1.00  0.00     0.005 C 
ENDBRANCH  21  22
ENDBRANCH   1  21
BRANCH  18  24
HETATM   24  O1  UNL     1      31.272   5.198  49.636  1.00  0.00    -0.230 OA
BRANCH  24  25
HETATM   25  O2  UNL     1      31.563   5.408  50.904  1.00  0.00    -0.250 OA
HETATM   26  H19 UNL     1      30.809   5.032  51.419  1.00  0.00     0.253 HD
ENDBRANCH  24  25
ENDBRANCH  18  24
TORSDOF 4
ENDMDL
MODEL 2
REMARK VINA RESULT:      -7.3      8.977     11.021
REMARK  4 active torsions:
REMARK  status: ('A' for Active; 'I' for Inactive)
REMARK    1  A    between atoms: C2_2  and  C3_3 
REMARK    2  A    between atoms: C3_3  and  C4_4 
REMARK    3  A    between atoms: C16_21  and  O1_22 
REMARK    4  A    between atoms: O1_22  and  O2_23 
ROOT
HETATM    1  C4  UNL     1      25.544   2.021  51.990  1.00  0.00    -0.044 C 
HETATM    2  C5  UNL     1      24.273   1.806  52.279  1.00  0.00     0.019 C 
HETATM    3  C6  UNL     1      23.485   2.883  51.684  1.00  0.00     0.035 C 
HETATM    4  C7  UNL     1      22.187   2.984  52.126  1.00  0.00     0.138 C 
HETATM    5  N1  UNL     1      21.897   4.372  52.441  1.00  0.00    -0.224 NA
HETATM    6  C8  UNL     1      21.986   5.369  51.592  1.00  0.00     0.234 C 
HETATM    7  N2  UNL     1      23.050   5.644  50.692  1.00  0.00    -0.255 NA
HETATM    8  C9  UNL     1      24.177   5.028  50.631  1.00  0.00     0.140 C 
HETATM    9  C10 UNL     1      24.376   3.587  50.716  1.00  0.00     0.254 C 
HETATM   10  N3  UNL     1      24.119   2.929  49.426  1.00  0.00     0.112 N 
HETATM   11  C11 UNL     1      22.733   3.047  49.098  1.00  0.00     0.341 C 
HETATM   12  C12 UNL     1      22.332   2.247  47.940  1.00  0.00     0.122 C 
HETATM   13  F1  UNL     1      22.680   2.401  46.661  1.00  0.00    -0.209 F 
HETATM   14  C13 UNL     1      21.522   1.299  48.439  1.00  0.00     0.041 C 
HETATM   15  C14 UNL     1      21.001   0.893  49.721  1.00  0.00     0.020 C 
HETATM   16  C15 UNL     1      21.051   1.198  50.978  1.00  0.00     0.090 C 
HETATM   17  N4  UNL     1      21.326   1.775  52.202  1.00  0.00    -0.350 N 
HETATM   18  C16 UNL     1      25.739   3.249  51.180  1.00  0.00     0.238 C 
HETATM   19  H11 UNL     1      24.429   1.933  49.560  1.00  0.00     0.318 HD
HETATM   20  H17 UNL     1      21.524   2.191  53.071  1.00  0.00     0.166 HD
ENDROOT
BRANCH   1  21
HETATM   21  C3  UNL     1      26.770   1.282  52.318  1.00  0.00     0.037 C 
BRANCH  21  22
HETATM   22  C2  UNL     1      26.728  -0.157  51.923  1.00  0.00    -0.000 C 
HETATM   23  C1  UNL     1      26.528  -1.098  53.066  1.00  0.00     0.005 C 
ENDBRANCH  21  22
ENDBRANCH   1  21
BRANCH  18  24
HETATM   24  O1  UNL     1      26.555   2.940  50.087  1.00  0.00    -0.230 OA
BRANCH  24  25
HETATM   25  O2  UNL     1      27.276   3.983  49.727  1.00  0.00    -0.250 OA
HETATM   26  H19 UNL     1      27.822   3.681  48.962  1.00  0.00     0.253 HD
ENDBRANCH  24  25
ENDBRANCH  18  24
TORSDOF 4
ENDMDL
MODEL 3
REMARK VINA RESULT:      -6.7      1.740      2.101
REMARK  4 active torsions:
REMARK  status: ('A' for Active; 'I' for Inactive)
REMARK    1  A    between atoms: C2_2  and  C3_3 
REMARK    2  A    between atoms: C3_3  and  C4_4 
REMARK    3  A    between atoms: C16_21  and  O1_22 
REMARK    4  A    between atoms: O1_22  and  O2_23 
ROOT
HETATM    1  C4  UNL     1      30.408   7.102  47.565  1.00  0.00    -0.044 C 
HETATM    2  C5  UNL     1      31.014   6.448  46.590  1.00  0.00     0.019 C 
HETATM    3  C6  UNL     1      32.364   6.990  46.451  1.00  0.00     0.035 C 
HETATM    4  C7  UNL     1      33.032   6.636  45.303  1.00  0.00     0.138 C 
HETATM    5  N1  UNL     1      33.634   7.820  44.716  1.00  0.00    -0.224 NA
HETATM    6  C8  UNL     1      34.500   8.600  45.320  1.00  0.00     0.234 C 
HETATM    7  N2  UNL     1      34.424   9.116  46.641  1.00  0.00    -0.255 NA
HETATM    8  C9  UNL     1      33.428   9.007  47.447  1.00  0.00     0.140 C 
HETATM    9  C10 UNL     1      32.628   7.809  47.670  1.00  0.00     0.254 C 
HETATM   10  N3  UNL     1      33.290   6.885  48.604  1.00  0.00     0.112 N 
HETATM   11  C11 UNL     1      34.482   6.373  48.005  1.00  0.00     0.341 C 
HETATM   12  C12 UNL     1      35.103   5.286  48.764  1.00  0.00     0.122 C 
HETATM   13  F1  UNL     1      35.689   5.338  49.962  1.00  0.00    -0.209 F 
HETATM   14  C13 UNL     1      34.957   4.198  47.991  1.00  0.00     0.041 C 
HETATM   15  C14 UNL     1      34.380   3.852  46.716  1.00  0.00     0.020 C 
HETATM   16  C15 UNL     1      33.729   4.370  45.724  1.00  0.00     0.090 C 
HETATM   17  N4  UNL     1      33.061   5.217  44.862  1.00  0.00    -0.350 N 
HETATM   18  C16 UNL     1      31.278   8.139  48.175  1.00  0.00     0.238 C 
HETATM   19  H11 UNL     1      32.575   6.140  48.804  1.00  0.00     0.318 HD
HETATM   20  H17 UNL     1      32.587   5.825  44.251  1.00  0.00     0.166 HD
ENDROOT
BRANCH   1  21
HETATM   21  C3  UNL     1      29.062   6.993  48.140  1.00  0.00     0.037 C 
BRANCH  21  22
HETATM   22  C2  UNL     1      28.601   5.585  48.327  1.00  0.00    -0.000 C 
HETATM   23  C1  UNL     1      27.153   5.458  48.670  1.00  0.00     0.005 C 
ENDBRANCH  21  22
ENDBRANCH   1  21
BRANCH  18  24
HETATM   24  O1  UNL     1      31.237   7.996  49.565  1.00  0.00    -0.230 OA
BRANCH  24  25
HETATM   25  O2  UNL     1      31.008   9.154  50.152  1.00  0.00    -0.250 OA
HETATM   26  H19 UNL     1      31.621   9.798  49.723  1.00  0.00     0.253 HD
ENDBRANCH  24  25
ENDBRANCH  18  24
TORSDOF 4
ENDMDL
MODEL 4
REMARK VINA RESULT:      -6.6      9.924     11.919
REMARK  4 active torsions:
REMARK  status: ('A' for Active; 'I' for Inactive)
REMARK    1  A    between atoms: C2_2  and  C3_3 
REMARK    2  A    between atoms: C3_3  and  C4_4 
REMARK    3  A    between atoms: C16_21  and  O1_22 
REMARK    4  A    between atoms: O1_22  and  O2_23 
ROOT
HETATM    1  C4  UNL     1      24.066   2.109  52.180  1.00  0.00    -0.044 C 
HETATM    2  C5  UNL     1      23.388   1.443  51.262  1.00  0.00     0.019 C 
HETATM    3  C6  UNL     1      22.100   2.108  51.079  1.00  0.00     0.035 C 
HETATM    4  C7  UNL     1      21.155   1.393  50.384  1.00  0.00     0.138 C 
HETATM    5  N1  UNL     1      19.891   1.451  51.098  1.00  0.00    -0.224 NA
HETATM    6  C8  UNL     1      19.248   2.555  51.397  1.00  0.00     0.234 C 
HETATM    7  N2  UNL     1      19.787   3.744  51.959  1.00  0.00    -0.255 NA
HETATM    8  C9  UNL     1      20.988   3.909  52.387  1.00  0.00     0.140 C 
HETATM    9  C10 UNL     1      22.206   3.444  51.737  1.00  0.00     0.254 C 
HETATM   10  N3  UNL     1      22.625   4.357  50.662  1.00  0.00     0.112 N 
HETATM   11  C11 UNL     1      21.662   4.327  49.607  1.00  0.00     0.341 C 
HETATM   12  C12 UNL     1      22.088   5.037  48.400  1.00  0.00     0.122 C 
HETATM   13  F1  UNL     1      22.281   6.346  48.230  1.00  0.00    -0.209 F 
HETATM   14  C13 UNL     1      22.251   4.077  47.475  1.00  0.00     0.041 C 
HETATM   15  C14 UNL     1      22.137   2.643  47.378  1.00  0.00     0.020 C 
HETATM   16  C15 UNL     1      21.855   1.598  48.089  1.00  0.00     0.090 C 
HETATM   17  N4  UNL     1      21.512   0.727  49.104  1.00  0.00    -0.350 N 
HETATM   18  C16 UNL     1      23.312   3.276  52.703  1.00  0.00     0.238 C 
HETATM   19  H11 UNL     1      23.574   4.011  50.366  1.00  0.00     0.318 HD
HETATM   20  H17 UNL     1      21.266   0.111  49.831  1.00  0.00     0.166 HD
ENDROOT
BRANCH   1  21
HETATM   21  C3  UNL     1      25.398   1.907  52.764  1.00  0.00     0.037 C 
BRANCH  21  22
HETATM   22  C2  UNL     1      26.386   1.314  51.815  1.00  0.00    -0.000 C 
HETATM   23  C1  UNL     1      26.693  -0.124  52.074  1.00  0.00     0.005 C 
ENDBRANCH  21  22
ENDBRANCH   1  21
BRANCH  18  24
HETATM   24  O1  UNL     1      24.148   4.397  52.675  1.00  0.00    -0.230 OA
BRANCH  24  25
HETATM   25  O2  UNL     1      23.792   5.274  53.593  1.00  0.00    -0.250 OA
HETATM   26  H19 UNL     1      24.634   5.637  53.958  1.00  0.00     0.253 HD
ENDBRANCH  24  25
ENDBRANCH  18  24
TORSDOF 4
ENDMDL
MODEL 5
REMARK VINA RESULT:      -6.6      8.908     10.823
REMARK  4 active torsions:
REMARK  status: ('A' for Active; 'I' for Inactive)
REMARK    1  A    between atoms: C2_2  and  C3_3 
REMARK    2  A    between atoms: C3_3  and  C4_4 
REMARK    3  A    between atoms: C16_21  and  O1_22 
REMARK    4  A    between atoms: O1_22  and  O2_23 
ROOT
HETATM    1  C4  UNL     1      22.714   2.775  48.393  1.00  0.00    -0.044 C 
HETATM    2  C5  UNL     1      23.832   3.295  48.870  1.00  0.00     0.019 C 
HETATM    3  C6  UNL     1      23.663   3.490  50.308  1.00  0.00     0.035 C 
HETATM    4  C7  UNL     1      24.605   4.286  50.916  1.00  0.00     0.138 C 
HETATM    5  N1  UNL     1      23.936   5.248  51.774  1.00  0.00    -0.224 NA
HETATM    6  C8  UNL     1      23.141   4.938  52.772  1.00  0.00     0.234 C 
HETATM    7  N2  UNL     1      22.087   3.986  52.773  1.00  0.00    -0.255 NA
HETATM    8  C9  UNL     1      21.644   3.337  51.755  1.00  0.00     0.140 C 
HETATM    9  C10 UNL     1      22.450   2.719  50.710  1.00  0.00     0.254 C 
HETATM   10  N3  UNL     1      22.966   1.407  51.132  1.00  0.00     0.112 N 
HETATM   11  C11 UNL     1      23.898   1.581  52.200  1.00  0.00     0.341 C 
HETATM   12  C12 UNL     1      24.626   0.361  52.552  1.00  0.00     0.122 C 
HETATM   13  F1  UNL     1      24.155  -0.759  53.103  1.00  0.00    -0.209 F 
HETATM   14  C13 UNL     1      25.898   0.603  52.196  1.00  0.00     0.041 C 
HETATM   15  C14 UNL     1      26.664   1.665  51.593  1.00  0.00     0.020 C 
HETATM   16  C15 UNL     1      26.532   2.854  51.096  1.00  0.00     0.090 C 
HETATM   17  N4  UNL     1      26.052   4.069  50.650  1.00  0.00    -0.350 N 
HETATM   18  C16 UNL     1      21.692   2.570  49.450  1.00  0.00     0.238 C 
HETATM   19  H11 UNL     1      23.400   0.994  50.267  1.00  0.00     0.318 HD
HETATM   20  H17 UNL     1      25.703   4.934  50.335  1.00  0.00     0.166 HD
ENDROOT
BRANCH   1  21
HETATM   21  C3  UNL     1      22.311   2.375  47.040  1.00  0.00     0.037 C 
BRANCH  21  22
HETATM   22  C2  UNL     1      21.331   3.306  46.405  1.00  0.00    -0.000 C 
HETATM   23  C1  UNL     1      21.898   4.115  45.284  1.00  0.00     0.005 C 
ENDBRANCH  21  22
ENDBRANCH   1  21
BRANCH  18  24
HETATM   24  O1  UNL     1      21.191   1.269  49.341  1.00  0.00    -0.230 OA
BRANCH  24  25
HETATM   25  O2  UNL     1      19.880   1.277  49.209  1.00  0.00    -0.250 OA
HETATM   26  H19 UNL     1      19.611   0.330  49.129  1.00  0.00     0.253 HD
ENDBRANCH  24  25
ENDBRANCH  18  24
TORSDOF 4
ENDMDL
MODEL 6
REMARK VINA RESULT:      -6.6      7.722     11.363
REMARK  4 active torsions:
REMARK  status: ('A' for Active; 'I' for Inactive)
REMARK    1  A    between atoms: C2_2  and  C3_3 
REMARK    2  A    between atoms: C3_3  and  C4_4 
REMARK    3  A    between atoms: C16_21  and  O1_22 
REMARK    4  A    between atoms: O1_22  and  O2_23 
ROOT
HETATM    1  C4  UNL     1      24.937   4.645  49.524  1.00  0.00    -0.044 C 
HETATM    2  C5  UNL     1      24.258   3.685  48.920  1.00  0.00     0.019 C 
HETATM    3  C6  UNL     1      23.169   3.275  49.803  1.00  0.00     0.035 C 
HETATM    4  C7  UNL     1      22.544   2.097  49.469  1.00  0.00     0.138 C 
HETATM    5  N1  UNL     1      22.409   1.274  50.658  1.00  0.00    -0.224 NA
HETATM    6  C8  UNL     1      21.775   1.632  51.751  1.00  0.00     0.234 C 
HETATM    7  N2  UNL     1      21.874   2.870  52.441  1.00  0.00    -0.255 NA
HETATM    8  C9  UNL     1      22.698   3.823  52.184  1.00  0.00     0.140 C 
HETATM    9  C10 UNL     1      23.053   4.321  50.861  1.00  0.00     0.254 C 
HETATM   10  N3  UNL     1      22.042   5.259  50.348  1.00  0.00     0.112 N 
HETATM   11  C11 UNL     1      20.818   4.561  50.115  1.00  0.00     0.341 C 
HETATM   12  C12 UNL     1      19.812   5.355  49.407  1.00  0.00     0.122 C 
HETATM   13  F1  UNL     1      19.153   6.434  49.835  1.00  0.00    -0.209 F 
HETATM   14  C13 UNL     1      19.686   4.764  48.208  1.00  0.00     0.041 C 
HETATM   15  C14 UNL     1      20.252   3.647  47.493  1.00  0.00     0.020 C 
HETATM   16  C15 UNL     1      21.131   2.704  47.617  1.00  0.00     0.090 C 
HETATM   17  N4  UNL     1      22.116   1.848  48.067  1.00  0.00    -0.350 N 
HETATM   18  C16 UNL     1      24.379   4.974  50.860  1.00  0.00     0.238 C 
HETATM   19  H11 UNL     1      22.463   5.661  49.472  1.00  0.00     0.318 HD
HETATM   20  H17 UNL     1      22.817   1.240  48.395  1.00  0.00     0.166 HD
ENDROOT
BRANCH   1  21
HETATM   21  C3  UNL     1      26.114   5.425  49.123  1.00  0.00     0.037 C 
BRANCH  21  22
HETATM   22  C2  UNL     1      27.320   4.590  48.843  1.00  0.00    -0.000 C 
HETATM   23  C1  UNL     1      28.504   5.370  48.372  1.00  0.00     0.005 C 
ENDBRANCH  21  22
ENDBRANCH   1  21
BRANCH  18  24
HETATM   24  O1  UNL     1      24.231   6.362  50.954  1.00  0.00    -0.230 OA
BRANCH  24  25
HETATM   25  O2  UNL     1      24.372   6.768  52.199  1.00  0.00    -0.250 OA
HETATM   26  H19 UNL     1      23.592   6.410  52.688  1.00  0.00     0.253 HD
ENDBRANCH  24  25
ENDBRANCH  18  24
TORSDOF 4
ENDMDL
MODEL 7
REMARK VINA RESULT:      -6.3      9.414     12.049
REMARK  4 active torsions:
REMARK  status: ('A' for Active; 'I' for Inactive)
REMARK    1  A    between atoms: C2_2  and  C3_3 
REMARK    2  A    between atoms: C3_3  and  C4_4 
REMARK    3  A    between atoms: C16_21  and  O1_22 
REMARK    4  A    between atoms: O1_22  and  O2_23 
ROOT
HETATM    1  C4  UNL     1      21.980   1.696  52.196  1.00  0.00    -0.044 C 
HETATM    2  C5  UNL     1      23.005   1.974  51.409  1.00  0.00     0.019 C 
HETATM    3  C6  UNL     1      22.504   2.729  50.262  1.00  0.00     0.035 C 
HETATM    4  C7  UNL     1      23.373   2.848  49.204  1.00  0.00     0.138 C 
HETATM    5  N1  UNL     1      22.668   2.542  47.971  1.00  0.00    -0.224 NA
HETATM    6  C8  UNL     1      21.603   3.176  47.537  1.00  0.00     0.234 C 
HETATM    7  N2  UNL     1      20.446   3.531  48.282  1.00  0.00    -0.255 NA
HETATM    8  C9  UNL     1      20.183   3.187  49.493  1.00  0.00     0.140 C 
HETATM    9  C10 UNL     1      21.122   3.172  50.607  1.00  0.00     0.254 C 
HETATM   10  N3  UNL     1      21.293   4.514  51.185  1.00  0.00     0.112 N 
HETATM   11  C11 UNL     1      21.934   5.366  50.233  1.00  0.00     0.341 C 
HETATM   12  C12 UNL     1      22.341   6.660  50.781  1.00  0.00     0.122 C 
HETATM   13  F1  UNL     1      21.571   7.663  51.207  1.00  0.00    -0.209 F 
HETATM   14  C13 UNL     1      23.684   6.633  50.769  1.00  0.00     0.041 C 
HETATM   15  C14 UNL     1      24.739   5.724  50.398  1.00  0.00     0.020 C 
HETATM   16  C15 UNL     1      24.933   4.532  49.931  1.00  0.00     0.090 C 
HETATM   17  N4  UNL     1      24.785   3.251  49.435  1.00  0.00    -0.350 N 
HETATM   18  C16 UNL     1      20.700   2.229  51.664  1.00  0.00     0.238 C 
HETATM   19  H11 UNL     1      21.864   4.365  52.056  1.00  0.00     0.318 HD
HETATM   20  H17 UNL     1      24.672   2.340  49.082  1.00  0.00     0.166 HD
ENDROOT
BRANCH   1  21
HETATM   21  C3  UNL     1      21.881   0.972  53.469  1.00  0.00     0.037 C 
BRANCH  21  22
HETATM   22  C2  UNL     1      22.443  -0.411  53.419  1.00  0.00    -0.000 C 
HETATM   23  C1  UNL     1      21.988  -1.294  54.534  1.00  0.00     0.005 C 
ENDBRANCH  21  22
ENDBRANCH   1  21
BRANCH  18  24
HETATM   24  O1  UNL     1      20.043   2.918  52.689  1.00  0.00    -0.230 OA
BRANCH  24  25
HETATM   25  O2  UNL     1      18.814   3.233  52.333  1.00  0.00    -0.250 OA
HETATM   26  H19 UNL     1      18.513   2.507  51.734  1.00  0.00     0.253 HD
ENDBRANCH  24  25
ENDBRANCH  18  24
TORSDOF 4
ENDMDL
MODEL 8
REMARK VINA RESULT:      -6.3      3.243      4.088
REMARK  4 active torsions:
REMARK  status: ('A' for Active; 'I' for Inactive)
REMARK    1  A    between atoms: C2_2  and  C3_3 
REMARK    2  A    between atoms: C3_3  and  C4_4 
REMARK    3  A    between atoms: C16_21  and  O1_22 
REMARK    4  A    between atoms: O1_22  and  O2_23 
ROOT
HETATM    1  C4  UNL     1      27.312   8.864  47.757  1.00  0.00    -0.044 C 
HETATM    2  C5  UNL     1      28.222   8.647  46.824  1.00  0.00     0.019 C 
HETATM    3  C6  UNL     1      29.492   9.195  47.294  1.00  0.00     0.035 C 
HETATM    4  C7  UNL     1      30.474   9.322  46.340  1.00  0.00     0.138 C 
HETATM    5  N1  UNL     1      31.075  10.640  46.446  1.00  0.00    -0.224 NA
HETATM    6  C8  UNL     1      31.660  11.115  47.521  1.00  0.00     0.234 C 
HETATM    7  N2  UNL     1      31.182  11.066  48.857  1.00  0.00    -0.255 NA
HETATM    8  C9  UNL     1      30.027  10.650  49.240  1.00  0.00     0.140 C 
HETATM    9  C10 UNL     1      29.334   9.464  48.753  1.00  0.00     0.254 C 
HETATM   10  N3  UNL     1      29.824   8.244  49.413  1.00  0.00     0.112 N 
HETATM   11  C11 UNL     1      31.180   8.007  49.031  1.00  0.00     0.341 C 
HETATM   12  C12 UNL     1      31.695   6.707  49.464  1.00  0.00     0.122 C 
HETATM   13  F1  UNL     1      31.935   6.278  50.704  1.00  0.00    -0.209 F 
HETATM   14  C13 UNL     1      31.879   6.013  48.329  1.00  0.00     0.041 C 
HETATM   15  C14 UNL     1      31.701   6.202  46.911  1.00  0.00     0.020 C 
HETATM   16  C15 UNL     1      31.281   7.072  46.048  1.00  0.00     0.090 C 
HETATM   17  N4  UNL     1      30.775   8.193  45.420  1.00  0.00    -0.350 N 
HETATM   18  C16 UNL     1      27.871   9.572  48.936  1.00  0.00     0.238 C 
HETATM   19  H11 UNL     1      29.167   7.483  49.101  1.00  0.00     0.318 HD
HETATM   20  H17 UNL     1      30.414   8.995  44.979  1.00  0.00     0.166 HD
ENDROOT
BRANCH   1  21
HETATM   21  C3  UNL     1      25.882   8.540  47.836  1.00  0.00     0.037 C 
BRANCH  21  22
HETATM   22  C2  UNL     1      25.599   7.074  47.868  1.00  0.00    -0.000 C 
HETATM   23  C1  UNL     1      24.325   6.715  48.560  1.00  0.00     0.005 C 
ENDBRANCH  21  22
ENDBRANCH   1  21
BRANCH  18  24
HETATM   24  O1  UNL     1      27.480   8.891  50.094  1.00  0.00    -0.230 OA
BRANCH  24  25
HETATM   25  O2  UNL     1      27.576   9.668  51.153  1.00  0.00    -0.250 OA
HETATM   26  H19 UNL     1      28.461  10.100  51.091  1.00  0.00     0.253 HD
ENDBRANCH  24  25
ENDBRANCH  18  24
TORSDOF 4
ENDMDL
MODEL 9
REMARK VINA RESULT:      -6.3      8.903     12.223
REMARK  4 active torsions:
REMARK  status: ('A' for Active; 'I' for Inactive)
REMARK    1  A    between atoms: C2_2  and  C3_3 
REMARK    2  A    between atoms: C3_3  and  C4_4 
REMARK    3  A    between atoms: C16_21  and  O1_22 
REMARK    4  A    between atoms: O1_22  and  O2_23 
ROOT
HETATM    1  C4  UNL     1      24.009   2.935  50.778  1.00  0.00    -0.044 C 
HETATM    2  C5  UNL     1      23.175   2.355  49.934  1.00  0.00     0.019 C 
HETATM    3  C6  UNL     1      21.812   2.621  50.389  1.00  0.00     0.035 C 
HETATM    4  C7  UNL     1      20.830   1.857  49.805  1.00  0.00     0.138 C 
HETATM    5  N1  UNL     1      19.948   1.343  50.838  1.00  0.00    -0.224 NA
HETATM    6  C8  UNL     1      19.267   2.083  51.682  1.00  0.00     0.234 C 
HETATM    7  N2  UNL     1      19.740   3.192  52.433  1.00  0.00    -0.255 NA
HETATM    8  C9  UNL     1      20.957   3.598  52.512  1.00  0.00     0.140 C 
HETATM    9  C10 UNL     1      21.901   3.709  51.407  1.00  0.00     0.254 C 
HETATM   10  N3  UNL     1      21.695   4.951  50.645  1.00  0.00     0.112 N 
HETATM   11  C11 UNL     1      20.428   4.903  49.986  1.00  0.00     0.341 C 
HETATM   12  C12 UNL     1      20.218   5.994  49.035  1.00  0.00     0.122 C 
HETATM   13  F1  UNL     1      20.075   7.298  49.282  1.00  0.00    -0.209 F 
HETATM   14  C13 UNL     1      20.198   5.402  47.829  1.00  0.00     0.041 C 
HETATM   15  C14 UNL     1      20.334   4.077  47.278  1.00  0.00     0.020 C 
HETATM   16  C15 UNL     1      20.550   2.850  47.630  1.00  0.00     0.090 C 
HETATM   17  N4  UNL     1      20.794   1.684  48.329  1.00  0.00    -0.350 N 
HETATM   18  C16 UNL     1      23.301   3.642  51.875  1.00  0.00     0.238 C 
HETATM   19  H11 UNL     1      22.507   4.998  49.978  1.00  0.00     0.318 HD
HETATM   20  H17 UNL     1      20.966   0.858  48.834  1.00  0.00     0.166 HD
ENDROOT
BRANCH   1  21
HETATM   21  C3  UNL     1      25.475   3.004  50.828  1.00  0.00     0.037 C 
BRANCH  21  22
HETATM   22  C2  UNL     1      26.104   3.360  49.521  1.00  0.00    -0.000 C 
HETATM   23  C1  UNL     1      26.189   4.829  49.265  1.00  0.00     0.005 C 
ENDBRANCH  21  22
ENDBRANCH   1  21
BRANCH  18  24
HETATM   24  O1  UNL     1      23.831   4.932  51.992  1.00  0.00    -0.230 OA
BRANCH  24  25
HETATM   25  O2  UNL     1      23.811   5.338  53.245  1.00  0.00    -0.250 OA
HETATM   26  H19 UNL     1      24.731   5.638  53.445  1.00  0.00     0.253 HD
ENDBRANCH  24  25
ENDBRANCH  18  24
TORSDOF 4
ENDMDL
