MODEL 1
REMARK VINA RESULT:      -8.4      0.000      0.000
REMARK  3 active torsions:
REMARK  status: ('A' for Active; 'I' for Inactive)
REMARK    1  A    between atoms: C4_5  and  N1_6 
REMARK    2  A    between atoms: N1_6  and  C5_7 
REMARK    3  A    between atoms: C5_7  and  C6_8 
ROOT
HETATM    1  C6  UNL     1      25.472   3.455  51.039  1.00  0.00     0.045 C 
HETATM    2  C7  UNL     1      26.486   3.027  50.305  1.00  0.00     0.168 C 
HETATM    3  O1  UNL     1      27.192   3.608  49.282  1.00  0.00    -0.320 OA
HETATM    4  C8  UNL     1      27.222   4.960  48.941  1.00  0.00     0.083 A 
HETATM    5  C9  UNL     1      28.406   5.260  48.263  1.00  0.00     0.038 A 
HETATM    6  C10 UNL     1      28.621   6.555  47.841  1.00  0.00     0.003 A 
HETATM    7  C11 UNL     1      27.651   7.499  48.110  1.00  0.00     0.001 A 
HETATM    8  C12 UNL     1      26.498   7.162  48.781  1.00  0.00     0.011 A 
HETATM    9  C13 UNL     1      26.233   5.872  49.228  1.00  0.00    -0.007 A 
HETATM   10  C14 UNL     1      24.942   5.769  49.914  1.00  0.00     0.161 C 
HETATM   11  N2  UNL     1      24.866   4.712  50.898  1.00  0.00    -0.386 N 
HETATM   12  H13 UNL     1      24.201   4.934  51.697  1.00  0.00     0.159 HD
ENDROOT
BRANCH   1  13
HETATM   13  C5  UNL     1      24.988   2.505  52.061  1.00  0.00     0.178 C 
BRANCH  13  14
HETATM   14  N1  UNL     1      25.808   2.532  53.261  1.00  0.00    -0.384 N 
HETATM   15  H3  UNL     1      25.755   3.176  54.084  1.00  0.00     0.160 HD
BRANCH  14  16
HETATM   16  C4  UNL     1      26.822   1.534  53.307  1.00  0.00     0.030 A 
HETATM   17  C3  UNL     1      28.117   1.816  53.690  1.00  0.00     0.032 A 
HETATM   18  C2  UNL     1      29.146   0.899  53.756  1.00  0.00     0.046 A 
HETATM   19  C1  UNL     1      28.859  -0.419  53.411  1.00  0.00     0.138 A 
HETATM   20  F1  UNL     1      29.835  -1.365  53.460  1.00  0.00    -0.204 F 
HETATM   21  C16 UNL     1      27.584  -0.749  53.025  1.00  0.00     0.074 A 
HETATM   22  C15 UNL     1      26.581   0.198  52.970  1.00  0.00     0.056 A 
HETATM   23 CL1  UNL     1      27.273  -2.412  52.603  1.00  0.00    -0.081 Cl
ENDBRANCH  14  16
ENDBRANCH  13  14
ENDBRANCH   1  13
TORSDOF 3
ENDMDL
MODEL 2
REMARK VINA RESULT:      -8.4      2.935      4.123
REMARK  3 active torsions:
REMARK  status: ('A' for Active; 'I' for Inactive)
REMARK    1  A    between atoms: C4_5  and  N1_6 
REMARK    2  A    between atoms: N1_6  and  C5_7 
REMARK    3  A    between atoms: C5_7  and  C6_8 
ROOT
HETATM    1  C6  UNL     1      24.728   2.478  52.816  1.00  0.00     0.045 C 
HETATM    2  C7  UNL     1      23.638   1.730  52.872  1.00  0.00     0.168 C 
HETATM    3  O1  UNL     1      22.615   1.525  51.980  1.00  0.00    -0.320 OA
HETATM    4  C8  UNL     1      22.612   1.828  50.619  1.00  0.00     0.083 A 
HETATM    5  C9  UNL     1      21.694   1.017  49.948  1.00  0.00     0.038 A 
HETATM    6  C10 UNL     1      21.546   1.168  48.584  1.00  0.00     0.003 A 
HETATM    7  C11 UNL     1      22.316   2.119  47.946  1.00  0.00     0.001 A 
HETATM    8  C12 UNL     1      23.209   2.898  48.644  1.00  0.00     0.011 A 
HETATM    9  C13 UNL     1      23.396   2.785  50.017  1.00  0.00    -0.007 A 
HETATM   10  C14 UNL     1      24.401   3.722  50.527  1.00  0.00     0.161 C 
HETATM   11  N2  UNL     1      25.081   3.284  51.725  1.00  0.00    -0.386 N 
HETATM   12  H13 UNL     1      26.075   3.655  51.799  1.00  0.00     0.159 HD
ENDROOT
BRANCH   1  13
HETATM   13  C5  UNL     1      25.594   2.421  54.012  1.00  0.00     0.178 C 
BRANCH  13  14
HETATM   14  N1  UNL     1      27.003   2.509  53.667  1.00  0.00    -0.384 N 
HETATM   15  H3  UNL     1      27.591   3.357  53.497  1.00  0.00     0.160 HD
BRANCH  14  16
HETATM   16  C4  UNL     1      27.663   1.252  53.549  1.00  0.00     0.030 A 
HETATM   17  C3  UNL     1      28.975   1.070  53.934  1.00  0.00     0.032 A 
HETATM   18  C2  UNL     1      29.673  -0.117  53.847  1.00  0.00     0.046 A 
HETATM   19  C1  UNL     1      29.003  -1.223  53.330  1.00  0.00     0.138 A 
HETATM   20  F1  UNL     1      29.642  -2.418  53.222  1.00  0.00    -0.204 F 
HETATM   21  C16 UNL     1      27.696  -1.091  52.935  1.00  0.00     0.074 A 
HETATM   22  C15 UNL     1      27.031   0.115  53.037  1.00  0.00     0.056 A 
HETATM   23 CL1  UNL     1      26.898  -2.504  52.295  1.00  0.00    -0.081 Cl
ENDBRANCH  14  16
ENDBRANCH  13  14
ENDBRANCH   1  13
TORSDOF 3
ENDMDL
MODEL 3
REMARK VINA RESULT:      -8.2      3.477      6.944
REMARK  3 active torsions:
REMARK  status: ('A' for Active; 'I' for Inactive)
REMARK    1  A    between atoms: C4_5  and  N1_6 
REMARK    2  A    between atoms: N1_6  and  C5_7 
REMARK    3  A    between atoms: C5_7  and  C6_8 
ROOT
HETATM    1  C6  UNL     1      25.012   1.685  53.144  1.00  0.00     0.045 C 
HETATM    2  C7  UNL     1      26.039   2.236  53.769  1.00  0.00     0.168 C 
HETATM    3  O1  UNL     1      27.232   1.721  54.211  1.00  0.00    -0.320 OA
HETATM    4  C8  UNL     1      27.818   0.512  53.836  1.00  0.00     0.083 A 
HETATM    5  C9  UNL     1      29.201   0.568  54.024  1.00  0.00     0.038 A 
HETATM    6  C10 UNL     1      29.960  -0.539  53.707  1.00  0.00     0.003 A 
HETATM    7  C11 UNL     1      29.314  -1.655  53.217  1.00  0.00     0.001 A 
HETATM    8  C12 UNL     1      27.949  -1.669  53.046  1.00  0.00     0.011 A 
HETATM    9  C13 UNL     1      27.139  -0.581  53.349  1.00  0.00    -0.007 A 
HETATM   10  C14 UNL     1      25.722  -0.843  53.081  1.00  0.00     0.161 C 
HETATM   11  N2  UNL     1      24.939   0.334  52.776  1.00  0.00    -0.386 N 
HETATM   12  H13 UNL     1      24.123   0.134  52.124  1.00  0.00     0.159 HD
ENDROOT
BRANCH   1  13
HETATM   13  C5  UNL     1      23.895   2.602  52.838  1.00  0.00     0.178 C 
BRANCH  13  14
HETATM   14  N1  UNL     1      23.721   2.789  51.407  1.00  0.00    -0.384 N 
HETATM   15  H3  UNL     1      23.174   2.212  50.726  1.00  0.00     0.160 HD
BRANCH  14  16
HETATM   16  C4  UNL     1      24.397   3.922  50.871  1.00  0.00     0.030 A 
HETATM   17  C3  UNL     1      23.971   5.213  51.106  1.00  0.00     0.032 A 
HETATM   18  C2  UNL     1      24.577   6.353  50.619  1.00  0.00     0.046 A 
HETATM   19  C1  UNL     1      25.712   6.192  49.827  1.00  0.00     0.138 A 
HETATM   20  F1  UNL     1      26.350   7.281  49.322  1.00  0.00    -0.204 F 
HETATM   21  C16 UNL     1      26.174   4.927  49.567  1.00  0.00     0.074 A 
HETATM   22  C15 UNL     1      25.539   3.810  50.072  1.00  0.00     0.056 A 
HETATM   23 CL1  UNL     1      27.598   4.776  48.571  1.00  0.00    -0.081 Cl
ENDBRANCH  14  16
ENDBRANCH  13  14
ENDBRANCH   1  13
TORSDOF 3
ENDMDL
MODEL 4
REMARK VINA RESULT:      -8.2      3.564      6.930
REMARK  3 active torsions:
REMARK  status: ('A' for Active; 'I' for Inactive)
REMARK    1  A    between atoms: C4_5  and  N1_6 
REMARK    2  A    between atoms: N1_6  and  C5_7 
REMARK    3  A    between atoms: C5_7  and  C6_8 
ROOT
HETATM    1  C6  UNL     1      25.448   2.037  53.007  1.00  0.00     0.045 C 
HETATM    2  C7  UNL     1      25.303   0.823  52.502  1.00  0.00     0.168 C 
HETATM    3  O1  UNL     1      26.200  -0.189  52.269  1.00  0.00    -0.320 OA
HETATM    4  C8  UNL     1      27.484  -0.316  52.797  1.00  0.00     0.083 A 
HETATM    5  C9  UNL     1      27.872  -1.657  52.806  1.00  0.00     0.038 A 
HETATM    6  C10 UNL     1      29.119  -1.986  53.295  1.00  0.00     0.003 A 
HETATM    7  C11 UNL     1      29.928  -0.968  53.756  1.00  0.00     0.001 A 
HETATM    8  C12 UNL     1      29.508   0.342  53.730  1.00  0.00     0.011 A 
HETATM    9  C13 UNL     1      28.262   0.726  53.248  1.00  0.00    -0.007 A 
HETATM   10  C14 UNL     1      28.051   2.174  53.327  1.00  0.00     0.161 C 
HETATM   11  N2  UNL     1      26.666   2.575  53.444  1.00  0.00    -0.386 N 
HETATM   12  H13 UNL     1      26.540   3.482  53.983  1.00  0.00     0.159 HD
ENDROOT
BRANCH   1  13
HETATM   13  C5  UNL     1      24.207   2.835  53.093  1.00  0.00     0.178 C 
BRANCH  13  14
HETATM   14  N1  UNL     1      23.691   3.182  51.779  1.00  0.00    -0.384 N 
HETATM   15  H3  UNL     1      22.952   2.705  51.212  1.00  0.00     0.160 HD
BRANCH  14  16
HETATM   16  C4  UNL     1      24.285   4.336  51.195  1.00  0.00     0.030 A 
HETATM   17  C3  UNL     1      23.873   5.615  51.506  1.00  0.00     0.032 A 
HETATM   18  C2  UNL     1      24.404   6.774  50.978  1.00  0.00     0.046 A 
HETATM   19  C1  UNL     1      25.441   6.647  50.056  1.00  0.00     0.138 A 
HETATM   20  F1  UNL     1      26.002   7.756  49.505  1.00  0.00    -0.204 F 
HETATM   21  C16 UNL     1      25.886   5.395  49.716  1.00  0.00     0.074 A 
HETATM   22  C15 UNL     1      25.328   4.258  50.266  1.00  0.00     0.056 A 
HETATM   23 CL1  UNL     1      27.187   5.287  48.559  1.00  0.00    -0.081 Cl
ENDBRANCH  14  16
ENDBRANCH  13  14
ENDBRANCH   1  13
TORSDOF 3
ENDMDL
MODEL 5
REMARK VINA RESULT:      -8.1      5.455      7.466
REMARK  3 active torsions:
REMARK  status: ('A' for Active; 'I' for Inactive)
REMARK    1  A    between atoms: C4_5  and  N1_6 
REMARK    2  A    between atoms: N1_6  and  C5_7 
REMARK    3  A    between atoms: C5_7  and  C6_8 
ROOT
HETATM    1  C6  UNL     1      24.901   1.331  53.076  1.00  0.00     0.045 C 
HETATM    2  C7  UNL     1      25.798   2.084  53.691  1.00  0.00     0.168 C 
HETATM    3  O1  UNL     1      27.055   1.813  54.172  1.00  0.00    -0.320 OA
HETATM    4  C8  UNL     1      27.857   0.716  53.859  1.00  0.00     0.083 A 
HETATM    5  C9  UNL     1      29.202   1.030  54.064  1.00  0.00     0.038 A 
HETATM    6  C10 UNL     1      30.156   0.067  53.807  1.00  0.00     0.003 A 
HETATM    7  C11 UNL     1      29.733  -1.167  53.357  1.00  0.00     0.001 A 
HETATM    8  C12 UNL     1      28.397  -1.436  53.167  1.00  0.00     0.011 A 
HETATM    9  C13 UNL     1      27.397  -0.501  53.411  1.00  0.00    -0.007 A 
HETATM   10  C14 UNL     1      26.057  -1.026  53.133  1.00  0.00     0.161 C 
HETATM   11  N2  UNL     1      25.082  -0.024  52.766  1.00  0.00    -0.386 N 
HETATM   12  H13 UNL     1      24.330  -0.395  52.112  1.00  0.00     0.159 HD
ENDROOT
BRANCH   1  13
HETATM   13  C5  UNL     1      23.644   2.018  52.714  1.00  0.00     0.178 C 
BRANCH  13  14
HETATM   14  N1  UNL     1      22.896   1.286  51.704  1.00  0.00    -0.384 N 
HETATM   15  H3  UNL     1      23.126   1.128  50.696  1.00  0.00     0.160 HD
BRANCH  14  16
HETATM   16  C4  UNL     1      21.681   0.708  52.171  1.00  0.00     0.030 A 
HETATM   17  C3  UNL     1      21.542   0.220  53.453  1.00  0.00     0.032 A 
HETATM   18  C2  UNL     1      20.396  -0.351  53.968  1.00  0.00     0.046 A 
HETATM   19  C1  UNL     1      19.288  -0.444  53.130  1.00  0.00     0.138 A 
HETATM   20  F1  UNL     1      18.133  -0.997  53.585  1.00  0.00    -0.204 F 
HETATM   21  C16 UNL     1      19.378   0.029  51.844  1.00  0.00     0.074 A 
HETATM   22  C15 UNL     1      20.543   0.594  51.365  1.00  0.00     0.056 A 
HETATM   23 CL1  UNL     1      17.965  -0.108  50.832  1.00  0.00    -0.081 Cl
ENDBRANCH  14  16
ENDBRANCH  13  14
ENDBRANCH   1  13
TORSDOF 3
ENDMDL
MODEL 6
REMARK VINA RESULT:      -8.0      4.928      7.380
REMARK  3 active torsions:
REMARK  status: ('A' for Active; 'I' for Inactive)
REMARK    1  A    between atoms: C4_5  and  N1_6 
REMARK    2  A    between atoms: N1_6  and  C5_7 
REMARK    3  A    between atoms: C5_7  and  C6_8 
ROOT
HETATM    1  C6  UNL     1      22.659  -0.422  53.230  1.00  0.00     0.045 C 
HETATM    2  C7  UNL     1      21.872  -1.055  54.085  1.00  0.00     0.168 C 
HETATM    3  O1  UNL     1      20.507  -1.126  54.201  1.00  0.00    -0.320 OA
HETATM    4  C8  UNL     1      19.561  -0.782  53.236  1.00  0.00     0.083 A 
HETATM    5  C9  UNL     1      18.368  -1.473  53.463  1.00  0.00     0.038 A 
HETATM    6  C10 UNL     1      17.306  -1.265  52.608  1.00  0.00     0.003 A 
HETATM    7  C11 UNL     1      17.473  -0.380  51.563  1.00  0.00     0.001 A 
HETATM    8  C12 UNL     1      18.666   0.281  51.374  1.00  0.00     0.011 A 
HETATM    9  C13 UNL     1      19.765   0.107  52.206  1.00  0.00    -0.007 A 
HETATM   10  C14 UNL     1      20.915   0.919  51.796  1.00  0.00     0.161 C 
HETATM   11  N2  UNL     1      22.201   0.376  52.173  1.00  0.00    -0.386 N 
HETATM   12  H13 UNL     1      22.978   0.639  51.496  1.00  0.00     0.159 HD
ENDROOT
BRANCH   1  13
HETATM   13  C5  UNL     1      24.108  -0.606  53.452  1.00  0.00     0.178 C 
BRANCH  13  14
HETATM   14  N1  UNL     1      24.882   0.514  52.942  1.00  0.00    -0.384 N 
HETATM   15  H3  UNL     1      24.551   1.389  52.474  1.00  0.00     0.160 HD
BRANCH  14  16
HETATM   16  C4  UNL     1      26.290   0.384  53.109  1.00  0.00     0.030 A 
HETATM   17  C3  UNL     1      27.110   1.473  53.325  1.00  0.00     0.032 A 
HETATM   18  C2  UNL     1      28.478   1.419  53.495  1.00  0.00     0.046 A 
HETATM   19  C1  UNL     1      29.086   0.167  53.445  1.00  0.00     0.138 A 
HETATM   20  F1  UNL     1      30.430   0.054  53.607  1.00  0.00    -0.204 F 
HETATM   21  C16 UNL     1      28.311  -0.947  53.233  1.00  0.00     0.074 A 
HETATM   22  C15 UNL     1      26.944  -0.851  53.067  1.00  0.00     0.056 A 
HETATM   23 CL1  UNL     1      29.117  -2.493  53.180  1.00  0.00    -0.081 Cl
ENDBRANCH  14  16
ENDBRANCH  13  14
ENDBRANCH   1  13
TORSDOF 3
ENDMDL
MODEL 7
REMARK VINA RESULT:      -7.8      4.833      7.033
REMARK  3 active torsions:
REMARK  status: ('A' for Active; 'I' for Inactive)
REMARK    1  A    between atoms: C4_5  and  N1_6 
REMARK    2  A    between atoms: N1_6  and  C5_7 
REMARK    3  A    between atoms: C5_7  and  C6_8 
ROOT
HETATM    1  C6  UNL     1      25.392   1.900  52.956  1.00  0.00     0.045 C 
HETATM    2  C7  UNL     1      25.355   0.683  52.439  1.00  0.00     0.168 C 
HETATM    3  O1  UNL     1      26.332  -0.259  52.230  1.00  0.00    -0.320 OA
HETATM    4  C8  UNL     1      27.603  -0.295  52.801  1.00  0.00     0.083 A 
HETATM    5  C9  UNL     1      28.088  -1.604  52.815  1.00  0.00     0.038 A 
HETATM    6  C10 UNL     1      29.339  -1.845  53.345  1.00  0.00     0.003 A 
HETATM    7  C11 UNL     1      30.055  -0.774  53.839  1.00  0.00     0.001 A 
HETATM    8  C12 UNL     1      29.541   0.502  53.807  1.00  0.00     0.011 A 
HETATM    9  C13 UNL     1      28.287   0.797  53.285  1.00  0.00    -0.007 A 
HETATM   10  C14 UNL     1      27.966   2.225  53.365  1.00  0.00     0.161 C 
HETATM   11  N2  UNL     1      26.553   2.522  53.437  1.00  0.00    -0.386 N 
HETATM   12  H13 UNL     1      26.342   3.414  53.977  1.00  0.00     0.159 HD
ENDROOT
BRANCH   1  13
HETATM   13  C5  UNL     1      24.095   2.604  53.004  1.00  0.00     0.178 C 
BRANCH  13  14
HETATM   14  N1  UNL     1      23.244   2.255  51.878  1.00  0.00    -0.384 N 
HETATM   15  H3  UNL     1      23.377   2.457  50.860  1.00  0.00     0.160 HD
BRANCH  14  16
HETATM   16  C4  UNL     1      22.065   1.535  52.228  1.00  0.00     0.030 A 
HETATM   17  C3  UNL     1      20.817   1.893  51.762  1.00  0.00     0.032 A 
HETATM   18  C2  UNL     1      19.639   1.243  52.060  1.00  0.00     0.046 A 
HETATM   19  C1  UNL     1      19.708   0.133  52.899  1.00  0.00     0.138 A 
HETATM   20  F1  UNL     1      18.578  -0.547  53.225  1.00  0.00    -0.204 F 
HETATM   21  C16 UNL     1      20.929  -0.263  53.387  1.00  0.00     0.074 A 
HETATM   22  C15 UNL     1      22.087   0.415  53.065  1.00  0.00     0.056 A 
HETATM   23 CL1  UNL     1      20.966  -1.659  54.432  1.00  0.00    -0.081 Cl
ENDBRANCH  14  16
ENDBRANCH  13  14
ENDBRANCH   1  13
TORSDOF 3
ENDMDL
MODEL 8
REMARK VINA RESULT:      -7.7      2.753      3.198
REMARK  3 active torsions:
REMARK  status: ('A' for Active; 'I' for Inactive)
REMARK    1  A    between atoms: C4_5  and  N1_6 
REMARK    2  A    between atoms: N1_6  and  C5_7 
REMARK    3  A    between atoms: C5_7  and  C6_8 
ROOT
HETATM    1  C6  UNL     1      25.175   3.715  50.708  1.00  0.00     0.045 C 
HETATM    2  C7  UNL     1      26.338   3.262  50.270  1.00  0.00     0.168 C 
HETATM    3  O1  UNL     1      27.216   3.738  49.329  1.00  0.00    -0.320 OA
HETATM    4  C8  UNL     1      27.256   5.023  48.788  1.00  0.00     0.083 A 
HETATM    5  C9  UNL     1      28.541   5.310  48.322  1.00  0.00     0.038 A 
HETATM    6  C10 UNL     1      28.781   6.541  47.748  1.00  0.00     0.003 A 
HETATM    7  C11 UNL     1      27.735   7.437  47.663  1.00  0.00     0.001 A 
HETATM    8  C12 UNL     1      26.483   7.115  48.135  1.00  0.00     0.011 A 
HETATM    9  C13 UNL     1      26.189   5.889  48.721  1.00  0.00    -0.007 A 
HETATM   10  C14 UNL     1      24.789   5.788  49.142  1.00  0.00     0.161 C 
HETATM   11  N2  UNL     1      24.556   4.886  50.248  1.00  0.00    -0.386 N 
HETATM   12  H13 UNL     1      23.729   5.173  50.852  1.00  0.00     0.159 HD
ENDROOT
BRANCH   1  13
HETATM   13  C5  UNL     1      24.530   2.892  51.751  1.00  0.00     0.178 C 
BRANCH  13  14
HETATM   14  N1  UNL     1      24.806   1.475  51.575  1.00  0.00    -0.384 N 
HETATM   15  H3  UNL     1      25.285   0.989  50.782  1.00  0.00     0.160 HD
BRANCH  14  16
HETATM   16  C4  UNL     1      24.356   0.647  52.642  1.00  0.00     0.030 A 
HETATM   17  C3  UNL     1      25.225   0.066  53.542  1.00  0.00     0.032 A 
HETATM   18  C2  UNL     1      24.858  -0.745  54.595  1.00  0.00     0.046 A 
HETATM   19  C1  UNL     1      23.500  -1.000  54.769  1.00  0.00     0.138 A 
HETATM   20  F1  UNL     1      23.080  -1.792  55.791  1.00  0.00    -0.204 F 
HETATM   21  C16 UNL     1      22.596  -0.444  53.899  1.00  0.00     0.074 A 
HETATM   22  C15 UNL     1      23.004   0.363  52.856  1.00  0.00     0.056 A 
HETATM   23 CL1  UNL     1      20.906  -0.792  54.158  1.00  0.00    -0.081 Cl
ENDBRANCH  14  16
ENDBRANCH  13  14
ENDBRANCH   1  13
TORSDOF 3
ENDMDL
MODEL 9
REMARK VINA RESULT:      -7.7      1.639      2.434
REMARK  3 active torsions:
REMARK  status: ('A' for Active; 'I' for Inactive)
REMARK    1  A    between atoms: C4_5  and  N1_6 
REMARK    2  A    between atoms: N1_6  and  C5_7 
REMARK    3  A    between atoms: C5_7  and  C6_8 
ROOT
HETATM    1  C6  UNL     1      26.691   4.442  49.452  1.00  0.00     0.045 C 
HETATM    2  C7  UNL     1      25.655   5.258  49.547  1.00  0.00     0.168 C 
HETATM    3  O1  UNL     1      25.455   6.546  49.119  1.00  0.00    -0.320 OA
HETATM    4  C8  UNL     1      26.208   7.247  48.177  1.00  0.00     0.083 A 
HETATM    5  C9  UNL     1      25.437   8.257  47.599  1.00  0.00     0.038 A 
HETATM    6  C10 UNL     1      26.011   9.064  46.638  1.00  0.00     0.003 A 
HETATM    7  C11 UNL     1      27.327   8.832  46.292  1.00  0.00     0.001 A 
HETATM    8  C12 UNL     1      28.052   7.826  46.886  1.00  0.00     0.011 A 
HETATM    9  C13 UNL     1      27.521   6.986  47.859  1.00  0.00    -0.007 A 
HETATM   10  C14 UNL     1      28.491   5.995  48.336  1.00  0.00     0.161 C 
HETATM   11  N2  UNL     1      27.905   4.770  48.832  1.00  0.00    -0.386 N 
HETATM   12  H13 UNL     1      28.534   3.923  48.696  1.00  0.00     0.159 HD
ENDROOT
BRANCH   1  13
HETATM   13  C5  UNL     1      26.500   3.107  50.057  1.00  0.00     0.178 C 
BRANCH  13  14
HETATM   14  N1  UNL     1      26.447   3.170  51.508  1.00  0.00    -0.384 N 
HETATM   15  H3  UNL     1      26.003   3.892  52.123  1.00  0.00     0.160 HD
BRANCH  14  16
HETATM   16  C4  UNL     1      27.094   2.090  52.172  1.00  0.00     0.030 A 
HETATM   17  C3  UNL     1      28.166   2.281  53.019  1.00  0.00     0.032 A 
HETATM   18  C2  UNL     1      28.838   1.282  53.692  1.00  0.00     0.046 A 
HETATM   19  C1  UNL     1      28.402  -0.027  53.506  1.00  0.00     0.138 A 
HETATM   20  F1  UNL     1      29.027  -1.051  54.145  1.00  0.00    -0.204 F 
HETATM   21  C16 UNL     1      27.338  -0.268  52.674  1.00  0.00     0.074 A 
HETATM   22  C15 UNL     1      26.692   0.760  52.016  1.00  0.00     0.056 A 
HETATM   23 CL1  UNL     1      26.828  -1.924  52.473  1.00  0.00    -0.081 Cl
ENDBRANCH  14  16
ENDBRANCH  13  14
ENDBRANCH   1  13
TORSDOF 3
ENDMDL
