MODEL 1
REMARK VINA RESULT:      -8.9      0.000      0.000
REMARK  4 active torsions:
REMARK  status: ('A' for Active; 'I' for Inactive)
REMARK    1  A    between atoms: C2_2  and  C3_3 
REMARK       I    between atoms: C3_3  and  N1_5 
REMARK    2  A    between atoms: N1_5  and  C4_6 
REMARK    3  A    between atoms: C11_15  and  N4_16 
REMARK    4  A    between atoms: N4_16  and  C12_17 
ROOT
HETATM    1  C4  UNL     1      25.238  -0.435  54.588  1.00  0.00     0.035 A 
HETATM    2  C5  UNL     1      24.717  -1.198  55.609  1.00  0.00     0.032 A 
HETATM    3  C6  UNL     1      23.372  -1.505  55.655  1.00  0.00     0.035 A 
HETATM    4  C7  UNL     1      22.534  -1.039  54.660  1.00  0.00     0.069 A 
HETATM    5  N2  UNL     1      21.217  -1.339  54.705  1.00  0.00    -0.259 NA
HETATM    6  C8  UNL     1      20.372  -0.895  53.743  1.00  0.00     0.142 A 
HETATM    7  C9  UNL     1      20.877  -0.117  52.695  1.00  0.00     0.089 A 
HETATM    8  C10 UNL     1      19.951   0.347  51.677  1.00  0.00     0.103 C 
HETATM    9  N3  UNL     1      19.203   0.716  50.865  1.00  0.00    -0.191 NA
HETATM   10  C11 UNL     1      22.227   0.198  52.637  1.00  0.00     0.067 A 
HETATM   11  C18 UNL     1      23.061  -0.270  53.633  1.00  0.00     0.023 A 
HETATM   12  C19 UNL     1      24.399   0.031  53.595  1.00  0.00     0.045 A 
ENDROOT
BRANCH  10  13
HETATM   13  N4  UNL     1      22.668   0.983  51.558  1.00  0.00    -0.354 N 
HETATM   14  H10 UNL     1      22.639   0.349  50.728  1.00  0.00     0.166 HD
BRANCH  13  15
HETATM   15  C12 UNL     1      23.090   2.332  51.465  1.00  0.00     0.033 A 
HETATM   16  C13 UNL     1      22.397   3.288  52.153  1.00  0.00     0.029 A 
HETATM   17  C14 UNL     1      22.826   4.592  52.047  1.00  0.00     0.004 A 
HETATM   18  C15 UNL     1      23.922   4.899  51.267  1.00  0.00     0.019 A 
HETATM   19  C16 UNL     1      24.642   3.937  50.558  1.00  0.00     0.013 A 
HETATM   20 BR1  UNL     1      26.151   4.394  49.490  1.00  0.00    -0.051 Br
HETATM   21  C17 UNL     1      24.184   2.634  50.685  1.00  0.00     0.048 A 
ENDBRANCH  13  15
ENDBRANCH  10  13
BRANCH   1  22
HETATM   22  N1  UNL     1      26.617  -0.093  54.498  1.00  0.00    -0.327 N 
HETATM   23  C3  UNL     1      27.585  -0.810  53.755  1.00  0.00     0.221 C 
HETATM   24  O1  UNL     1      27.187  -1.835  53.123  1.00  0.00    -0.273 OA
HETATM   25  H6  UNL     1      26.628   0.760  55.101  1.00  0.00     0.169 HD
BRANCH  23  26
HETATM   26  C2  UNL     1      28.924  -0.171  53.884  1.00  0.00     0.098 C 
HETATM   27  C1  UNL     1      30.041  -1.109  53.568  1.00  0.00     0.014 C 
ENDBRANCH  23  26
ENDBRANCH   1  22
TORSDOF 4
ENDMDL
MODEL 2
REMARK VINA RESULT:      -8.4      2.175      5.317
REMARK  4 active torsions:
REMARK  status: ('A' for Active; 'I' for Inactive)
REMARK    1  A    between atoms: C2_2  and  C3_3 
REMARK       I    between atoms: C3_3  and  N1_5 
REMARK    2  A    between atoms: N1_5  and  C4_6 
REMARK    3  A    between atoms: C11_15  and  N4_16 
REMARK    4  A    between atoms: N4_16  and  C12_17 
ROOT
HETATM    1  C4  UNL     1      22.279  -0.929  53.879  1.00  0.00     0.035 A 
HETATM    2  C5  UNL     1      22.606  -1.601  55.035  1.00  0.00     0.032 A 
HETATM    3  C6  UNL     1      23.862  -1.484  55.596  1.00  0.00     0.035 A 
HETATM    4  C7  UNL     1      24.806  -0.680  54.988  1.00  0.00     0.069 A 
HETATM    5  N2  UNL     1      26.036  -0.565  55.536  1.00  0.00    -0.259 NA
HETATM    6  C8  UNL     1      26.982   0.217  54.960  1.00  0.00     0.142 A 
HETATM    7  C9  UNL     1      26.673   0.909  53.785  1.00  0.00     0.089 A 
HETATM    8  C10 UNL     1      27.704   1.740  53.187  1.00  0.00     0.103 C 
HETATM    9  N3  UNL     1      28.535   2.403  52.713  1.00  0.00    -0.191 NA
HETATM   10  C11 UNL     1      25.415   0.800  53.210  1.00  0.00     0.067 A 
HETATM   11  C18 UNL     1      24.474  -0.005  53.822  1.00  0.00     0.023 A 
HETATM   12  C19 UNL     1      23.224  -0.126  53.271  1.00  0.00     0.045 A 
ENDROOT
BRANCH  10  13
HETATM   13  N4  UNL     1      25.171   1.522  52.029  1.00  0.00    -0.354 N 
HETATM   14  H10 UNL     1      25.373   0.854  51.253  1.00  0.00     0.166 HD
BRANCH  13  15
HETATM   15  C12 UNL     1      24.748   2.854  51.792  1.00  0.00     0.033 A 
HETATM   16  C13 UNL     1      23.854   3.424  52.653  1.00  0.00     0.029 A 
HETATM   17  C14 UNL     1      23.458   4.719  52.402  1.00  0.00     0.004 A 
HETATM   18  C15 UNL     1      23.963   5.397  51.312  1.00  0.00     0.019 A 
HETATM   19  C16 UNL     1      24.879   4.832  50.423  1.00  0.00     0.013 A 
HETATM   20 BR1  UNL     1      25.557   5.796  48.928  1.00  0.00    -0.051 Br
HETATM   21  C17 UNL     1      25.255   3.527  50.704  1.00  0.00     0.048 A 
ENDBRANCH  13  15
ENDBRANCH  10  13
BRANCH   1  22
HETATM   22  N1  UNL     1      20.998  -1.018  53.264  1.00  0.00    -0.327 N 
HETATM   23  C3  UNL     1      20.039   0.021  53.229  1.00  0.00     0.221 C 
HETATM   24  O1  UNL     1      20.350   1.115  53.792  1.00  0.00    -0.273 OA
HETATM   25  H6  UNL     1      21.041  -1.999  52.905  1.00  0.00     0.169 HD
BRANCH  23  26
HETATM   26  C2  UNL     1      18.814  -0.417  52.504  1.00  0.00     0.098 C 
HETATM   27  C1  UNL     1      18.655   0.259  51.184  1.00  0.00     0.014 C 
ENDBRANCH  23  26
ENDBRANCH   1  22
TORSDOF 4
ENDMDL
MODEL 3
REMARK VINA RESULT:      -8.3      1.992      3.123
REMARK  4 active torsions:
REMARK  status: ('A' for Active; 'I' for Inactive)
REMARK    1  A    between atoms: C2_2  and  C3_3 
REMARK       I    between atoms: C3_3  and  N1_5 
REMARK    2  A    between atoms: N1_5  and  C4_6 
REMARK    3  A    between atoms: C11_15  and  N4_16 
REMARK    4  A    between atoms: N4_16  and  C12_17 
ROOT
HETATM    1  C4  UNL     1      25.129   0.500  53.719  1.00  0.00     0.035 A 
HETATM    2  C5  UNL     1      24.147  -0.458  53.841  1.00  0.00     0.032 A 
HETATM    3  C6  UNL     1      22.876  -0.241  53.348  1.00  0.00     0.035 A 
HETATM    4  C7  UNL     1      22.583   0.955  52.724  1.00  0.00     0.069 A 
HETATM    5  N2  UNL     1      21.339   1.168  52.241  1.00  0.00    -0.259 NA
HETATM    6  C8  UNL     1      21.024   2.333  51.624  1.00  0.00     0.142 A 
HETATM    7  C9  UNL     1      22.004   3.321  51.489  1.00  0.00     0.089 A 
HETATM    8  C10 UNL     1      21.641   4.561  50.824  1.00  0.00     0.103 C 
HETATM    9  N3  UNL     1      21.343   5.552  50.291  1.00  0.00    -0.191 NA
HETATM   10  C11 UNL     1      23.286   3.117  51.980  1.00  0.00     0.067 A 
HETATM   11  C18 UNL     1      23.574   1.919  52.603  1.00  0.00     0.023 A 
HETATM   12  C19 UNL     1      24.835   1.697  53.096  1.00  0.00     0.045 A 
ENDROOT
BRANCH  10  13
HETATM   13  N4  UNL     1      24.222   4.151  51.811  1.00  0.00    -0.354 N 
HETATM   14  H10 UNL     1      24.142   4.737  52.672  1.00  0.00     0.166 HD
BRANCH  13  15
HETATM   15  C12 UNL     1      25.131   4.458  50.768  1.00  0.00     0.033 A 
HETATM   16  C13 UNL     1      26.021   3.502  50.368  1.00  0.00     0.029 A 
HETATM   17  C14 UNL     1      26.894   3.824  49.353  1.00  0.00     0.004 A 
HETATM   18  C15 UNL     1      26.851   5.076  48.774  1.00  0.00     0.019 A 
HETATM   19  C16 UNL     1      25.949   6.065  49.169  1.00  0.00     0.013 A 
HETATM   20 BR1  UNL     1      25.915   7.783  48.349  1.00  0.00    -0.051 Br
HETATM   21  C17 UNL     1      25.085   5.708  50.194  1.00  0.00     0.048 A 
ENDBRANCH  13  15
ENDBRANCH  10  13
BRANCH   1  22
HETATM   22  N1  UNL     1      26.453   0.323  54.211  1.00  0.00    -0.327 N 
HETATM   23  C3  UNL     1      27.520  -0.253  53.481  1.00  0.00     0.221 C 
HETATM   24  O1  UNL     1      27.271  -0.639  52.299  1.00  0.00    -0.273 OA
HETATM   25  H6  UNL     1      26.342   0.724  55.170  1.00  0.00     0.169 HD
BRANCH  23  26
HETATM   26  C2  UNL     1      28.763  -0.280  54.302  1.00  0.00     0.098 C 
HETATM   27  C1  UNL     1      29.949  -0.760  53.535  1.00  0.00     0.014 C 
ENDBRANCH  23  26
ENDBRANCH   1  22
TORSDOF 4
ENDMDL
MODEL 4
REMARK VINA RESULT:      -8.2      2.848      5.130
REMARK  4 active torsions:
REMARK  status: ('A' for Active; 'I' for Inactive)
REMARK    1  A    between atoms: C2_2  and  C3_3 
REMARK       I    between atoms: C3_3  and  N1_5 
REMARK    2  A    between atoms: N1_5  and  C4_6 
REMARK    3  A    between atoms: C11_15  and  N4_16 
REMARK    4  A    between atoms: N4_16  and  C12_17 
ROOT
HETATM    1  C4  UNL     1      26.343   1.664  51.937  1.00  0.00     0.035 A 
HETATM    2  C5  UNL     1      26.703   2.295  50.768  1.00  0.00     0.032 A 
HETATM    3  C6  UNL     1      25.785   3.027  50.042  1.00  0.00     0.035 A 
HETATM    4  C7  UNL     1      24.484   3.127  50.495  1.00  0.00     0.069 A 
HETATM    5  N2  UNL     1      23.584   3.843  49.785  1.00  0.00    -0.259 NA
HETATM    6  C8  UNL     1      22.301   3.957  50.206  1.00  0.00     0.142 A 
HETATM    7  C9  UNL     1      21.912   3.324  51.391  1.00  0.00     0.089 A 
HETATM    8  C10 UNL     1      20.530   3.462  51.820  1.00  0.00     0.103 C 
HETATM    9  N3  UNL     1      19.422   3.575  52.158  1.00  0.00    -0.191 NA
HETATM   10  C11 UNL     1      22.824   2.585  52.130  1.00  0.00     0.067 A 
HETATM   11  C18 UNL     1      24.124   2.488  51.673  1.00  0.00     0.023 A 
HETATM   12  C19 UNL     1      25.042   1.763  52.389  1.00  0.00     0.045 A 
ENDROOT
BRANCH  10  13
HETATM   13  N4  UNL     1      22.367   1.975  53.310  1.00  0.00    -0.354 N 
HETATM   14  H10 UNL     1      22.481   2.698  54.055  1.00  0.00     0.166 HD
BRANCH  13  15
HETATM   15  C12 UNL     1      21.846   0.685  53.581  1.00  0.00     0.033 A 
HETATM   16  C13 UNL     1      22.672  -0.258  54.124  1.00  0.00     0.029 A 
HETATM   17  C14 UNL     1      22.143  -1.504  54.378  1.00  0.00     0.004 A 
HETATM   18  C15 UNL     1      20.821  -1.766  54.087  1.00  0.00     0.019 A 
HETATM   19  C16 UNL     1      19.962  -0.816  53.534  1.00  0.00     0.013 A 
HETATM   20 BR1  UNL     1      18.140  -1.210  53.144  1.00  0.00    -0.051 Br
HETATM   21  C17 UNL     1      20.526   0.427  53.289  1.00  0.00     0.048 A 
ENDBRANCH  13  15
ENDBRANCH  10  13
BRANCH   1  22
HETATM   22  N1  UNL     1      27.254   0.899  52.720  1.00  0.00    -0.327 N 
HETATM   23  C3  UNL     1      28.038   1.407  53.783  1.00  0.00     0.221 C 
HETATM   24  O1  UNL     1      27.914   2.640  54.055  1.00  0.00    -0.273 OA
HETATM   25  H6  UNL     1      27.133  -0.037  52.270  1.00  0.00     0.169 HD
BRANCH  23  26
HETATM   26  C2  UNL     1      28.876   0.330  54.380  1.00  0.00     0.098 C 
HETATM   27  C1  UNL     1      28.935  -0.892  53.526  1.00  0.00     0.014 C 
ENDBRANCH  23  26
ENDBRANCH   1  22
TORSDOF 4
ENDMDL
MODEL 5
REMARK VINA RESULT:      -8.1      2.503      4.646
REMARK  4 active torsions:
REMARK  status: ('A' for Active; 'I' for Inactive)
REMARK    1  A    between atoms: C2_2  and  C3_3 
REMARK       I    between atoms: C3_3  and  N1_5 
REMARK    2  A    between atoms: N1_5  and  C4_6 
REMARK    3  A    between atoms: C11_15  and  N4_16 
REMARK    4  A    between atoms: N4_16  and  C12_17 
ROOT
HETATM    1  C4  UNL     1      26.488   2.452  51.892  1.00  0.00     0.035 A 
HETATM    2  C5  UNL     1      27.565   1.719  52.336  1.00  0.00     0.032 A 
HETATM    3  C6  UNL     1      27.389   0.600  53.124  1.00  0.00     0.035 A 
HETATM    4  C7  UNL     1      26.111   0.209  53.474  1.00  0.00     0.069 A 
HETATM    5  N2  UNL     1      25.938  -0.887  54.247  1.00  0.00    -0.259 NA
HETATM    6  C8  UNL     1      24.695  -1.293  54.605  1.00  0.00     0.142 A 
HETATM    7  C9  UNL     1      23.585  -0.564  54.167  1.00  0.00     0.089 A 
HETATM    8  C10 UNL     1      22.265  -1.020  54.565  1.00  0.00     0.103 C 
HETATM    9  N3  UNL     1      21.209  -1.390  54.889  1.00  0.00    -0.191 NA
HETATM   10  C11 UNL     1      23.748   0.563  53.374  1.00  0.00     0.067 A 
HETATM   11  C18 UNL     1      25.027   0.949  53.027  1.00  0.00     0.023 A 
HETATM   12  C19 UNL     1      25.211   2.061  52.243  1.00  0.00     0.045 A 
ENDROOT
BRANCH  10  13
HETATM   13  N4  UNL     1      22.591   1.248  52.968  1.00  0.00    -0.354 N 
HETATM   14  H10 UNL     1      22.369   1.901  53.753  1.00  0.00     0.166 HD
BRANCH  13  15
HETATM   15  C12 UNL     1      21.797   1.176  51.797  1.00  0.00     0.033 A 
HETATM   16  C13 UNL     1      20.523   0.692  51.893  1.00  0.00     0.029 A 
HETATM   17  C14 UNL     1      19.771   0.632  50.741  1.00  0.00     0.004 A 
HETATM   18  C15 UNL     1      20.308   1.053  49.542  1.00  0.00     0.019 A 
HETATM   19  C16 UNL     1      21.606   1.552  49.424  1.00  0.00     0.013 A 
HETATM   20 BR1  UNL     1      22.316   2.127  47.754  1.00  0.00    -0.051 Br
HETATM   21  C17 UNL     1      22.336   1.599  50.602  1.00  0.00     0.048 A 
ENDBRANCH  13  15
ENDBRANCH  10  13
BRANCH   1  22
HETATM   22  N1  UNL     1      26.620   3.612  51.077  1.00  0.00    -0.327 N 
HETATM   23  C3  UNL     1      26.107   3.746  49.765  1.00  0.00     0.221 C 
HETATM   24  O1  UNL     1      25.484   2.752  49.283  1.00  0.00    -0.273 OA
HETATM   25  H6  UNL     1      27.157   4.227  51.729  1.00  0.00     0.169 HD
BRANCH  23  26
HETATM   26  C2  UNL     1      26.427   5.091  49.211  1.00  0.00     0.098 C 
HETATM   27  C1  UNL     1      27.758   5.134  48.538  1.00  0.00     0.014 C 
ENDBRANCH  23  26
ENDBRANCH   1  22
TORSDOF 4
ENDMDL
MODEL 6
REMARK VINA RESULT:      -8.0      3.311      6.082
REMARK  4 active torsions:
REMARK  status: ('A' for Active; 'I' for Inactive)
REMARK    1  A    between atoms: C2_2  and  C3_3 
REMARK       I    between atoms: C3_3  and  N1_5 
REMARK    2  A    between atoms: N1_5  and  C4_6 
REMARK    3  A    between atoms: C11_15  and  N4_16 
REMARK    4  A    between atoms: N4_16  and  C12_17 
ROOT
HETATM    1  C4  UNL     1      25.049   3.111  50.825  1.00  0.00     0.035 A 
HETATM    2  C5  UNL     1      26.342   2.641  50.802  1.00  0.00     0.032 A 
HETATM    3  C6  UNL     1      26.710   1.532  51.536  1.00  0.00     0.035 A 
HETATM    4  C7  UNL     1      25.766   0.883  52.308  1.00  0.00     0.069 A 
HETATM    5  N2  UNL     1      26.126  -0.203  53.028  1.00  0.00    -0.259 NA
HETATM    6  C8  UNL     1      25.220  -0.858  53.793  1.00  0.00     0.142 A 
HETATM    7  C9  UNL     1      23.899  -0.399  53.833  1.00  0.00     0.089 A 
HETATM    8  C10 UNL     1      22.947  -1.120  54.662  1.00  0.00     0.103 C 
HETATM    9  N3  UNL     1      22.190  -1.701  55.328  1.00  0.00    -0.191 NA
HETATM   10  C11 UNL     1      23.516   0.714  53.100  1.00  0.00     0.067 A 
HETATM   11  C18 UNL     1      24.464   1.359  52.330  1.00  0.00     0.023 A 
HETATM   12  C19 UNL     1      24.105   2.463  51.597  1.00  0.00     0.045 A 
ENDROOT
BRANCH  10  13
HETATM   13  N4  UNL     1      22.173   1.122  53.185  1.00  0.00    -0.354 N 
HETATM   14  H10 UNL     1      22.141   1.791  53.985  1.00  0.00     0.166 HD
BRANCH  13  15
HETATM   15  C12 UNL     1      21.022   0.786  52.431  1.00  0.00     0.033 A 
HETATM   16  C13 UNL     1      20.944   1.196  51.130  1.00  0.00     0.029 A 
HETATM   17  C14 UNL     1      19.815   0.857  50.418  1.00  0.00     0.004 A 
HETATM   18  C15 UNL     1      18.810   0.127  51.019  1.00  0.00     0.019 A 
HETATM   19  C16 UNL     1      18.873  -0.301  52.346  1.00  0.00     0.013 A 
HETATM   20 BR1  UNL     1      17.468  -1.307  53.147  1.00  0.00    -0.051 Br
HETATM   21  C17 UNL     1      20.022   0.058  53.035  1.00  0.00     0.048 A 
ENDBRANCH  13  15
ENDBRANCH  10  13
BRANCH   1  22
HETATM   22  N1  UNL     1      24.622   4.250  50.084  1.00  0.00    -0.327 N 
HETATM   23  C3  UNL     1      23.759   4.214  48.964  1.00  0.00     0.221 C 
HETATM   24  O1  UNL     1      23.337   3.076  48.595  1.00  0.00    -0.273 OA
HETATM   25  H6  UNL     1      25.119   5.002  50.614  1.00  0.00     0.169 HD
BRANCH  23  26
HETATM   26  C2  UNL     1      23.524   5.588  48.437  1.00  0.00     0.098 C 
HETATM   27  C1  UNL     1      24.735   6.453  48.528  1.00  0.00     0.014 C 
ENDBRANCH  23  26
ENDBRANCH   1  22
TORSDOF 4
ENDMDL
MODEL 7
REMARK VINA RESULT:      -7.8      2.073      2.303
REMARK  4 active torsions:
REMARK  status: ('A' for Active; 'I' for Inactive)
REMARK    1  A    between atoms: C2_2  and  C3_3 
REMARK       I    between atoms: C3_3  and  N1_5 
REMARK    2  A    between atoms: N1_5  and  C4_6 
REMARK    3  A    between atoms: C11_15  and  N4_16 
REMARK    4  A    between atoms: N4_16  and  C12_17 
ROOT
HETATM    1  C4  UNL     1      25.241  -0.138  53.811  1.00  0.00     0.035 A 
HETATM    2  C5  UNL     1      24.756  -1.069  54.702  1.00  0.00     0.032 A 
HETATM    3  C6  UNL     1      23.404  -1.172  54.960  1.00  0.00     0.035 A 
HETATM    4  C7  UNL     1      22.523  -0.327  54.316  1.00  0.00     0.069 A 
HETATM    5  N2  UNL     1      21.199  -0.426  54.569  1.00  0.00    -0.259 NA
HETATM    6  C8  UNL     1      20.311   0.391  53.950  1.00  0.00     0.142 A 
HETATM    7  C9  UNL     1      20.780   1.345  53.042  1.00  0.00     0.089 A 
HETATM    8  C10 UNL     1      19.808   2.209  52.393  1.00  0.00     0.103 C 
HETATM    9  N3  UNL     1      19.024   2.899  51.877  1.00  0.00    -0.191 NA
HETATM   10  C11 UNL     1      22.136   1.459  52.773  1.00  0.00     0.067 A 
HETATM   11  C18 UNL     1      23.013   0.612  53.420  1.00  0.00     0.023 A 
HETATM   12  C19 UNL     1      24.359   0.708  53.168  1.00  0.00     0.045 A 
ENDROOT
BRANCH  10  13
HETATM   13  N4  UNL     1      22.538   2.440  51.850  1.00  0.00    -0.354 N 
HETATM   14  H10 UNL     1      23.000   3.182  52.421  1.00  0.00     0.166 HD
BRANCH  13  15
HETATM   15  C12 UNL     1      22.414   2.536  50.441  1.00  0.00     0.033 A 
HETATM   16  C13 UNL     1      22.140   1.406  49.725  1.00  0.00     0.029 A 
HETATM   17  C14 UNL     1      22.024   1.525  48.358  1.00  0.00     0.004 A 
HETATM   18  C15 UNL     1      22.181   2.756  47.755  1.00  0.00     0.019 A 
HETATM   19  C16 UNL     1      22.460   3.922  48.470  1.00  0.00     0.013 A 
HETATM   20 BR1  UNL     1      22.671   5.606  47.608  1.00  0.00    -0.051 Br
HETATM   21  C17 UNL     1      22.572   3.767  49.844  1.00  0.00     0.048 A 
ENDBRANCH  13  15
ENDBRANCH  10  13
BRANCH   1  22
HETATM   22  N1  UNL     1      26.626   0.005  53.512  1.00  0.00    -0.327 N 
HETATM   23  C3  UNL     1      27.419   1.124  53.857  1.00  0.00     0.221 C 
HETATM   24  O1  UNL     1      26.847   2.070  54.480  1.00  0.00    -0.273 OA
HETATM   25  H6  UNL     1      26.795  -0.900  53.017  1.00  0.00     0.169 HD
BRANCH  23  26
HETATM   26  C2  UNL     1      28.822   0.938  53.390  1.00  0.00     0.098 C 
HETATM   27  C1  UNL     1      29.284  -0.475  53.510  1.00  0.00     0.014 C 
ENDBRANCH  23  26
ENDBRANCH   1  22
TORSDOF 4
ENDMDL
MODEL 8
REMARK VINA RESULT:      -7.6      7.320     10.236
REMARK  4 active torsions:
REMARK  status: ('A' for Active; 'I' for Inactive)
REMARK    1  A    between atoms: C2_2  and  C3_3 
REMARK       I    between atoms: C3_3  and  N1_5 
REMARK    2  A    between atoms: N1_5  and  C4_6 
REMARK    3  A    between atoms: C11_15  and  N4_16 
REMARK    4  A    between atoms: N4_16  and  C12_17 
ROOT
HETATM    1  C4  UNL     1      32.045   5.454  48.398  1.00  0.00     0.035 A 
HETATM    2  C5  UNL     1      33.017   6.349  48.785  1.00  0.00     0.032 A 
HETATM    3  C6  UNL     1      32.711   7.672  49.032  1.00  0.00     0.035 A 
HETATM    4  C7  UNL     1      31.408   8.106  48.889  1.00  0.00     0.069 A 
HETATM    5  N2  UNL     1      31.108   9.402  49.131  1.00  0.00    -0.259 NA
HETATM    6  C8  UNL     1      29.837   9.855  48.998  1.00  0.00     0.142 A 
HETATM    7  C9  UNL     1      28.832   8.966  48.606  1.00  0.00     0.089 A 
HETATM    8  C10 UNL     1      27.478   9.477  48.471  1.00  0.00     0.103 C 
HETATM    9  N3  UNL     1      26.396   9.894  48.363  1.00  0.00    -0.191 NA
HETATM   10  C11 UNL     1      29.125   7.634  48.354  1.00  0.00     0.067 A 
HETATM   11  C18 UNL     1      30.430   7.204  48.499  1.00  0.00     0.023 A 
HETATM   12  C19 UNL     1      30.742   5.890  48.255  1.00  0.00     0.045 A 
ENDROOT
BRANCH  10  13
HETATM   13  N4  UNL     1      28.068   6.794  47.964  1.00  0.00    -0.354 N 
HETATM   14  H10 UNL     1      27.983   6.922  46.931  1.00  0.00     0.166 HD
BRANCH  13  15
HETATM   15  C12 UNL     1      27.221   5.921  48.691  1.00  0.00     0.033 A 
HETATM   16  C13 UNL     1      27.514   4.586  48.712  1.00  0.00     0.029 A 
HETATM   17  C14 UNL     1      26.677   3.758  49.425  1.00  0.00     0.004 A 
HETATM   18  C15 UNL     1      25.586   4.281  50.089  1.00  0.00     0.019 A 
HETATM   19  C16 UNL     1      25.272   5.641  50.080  1.00  0.00     0.013 A 
HETATM   20 BR1  UNL     1      23.759   6.331  51.007  1.00  0.00    -0.051 Br
HETATM   21  C17 UNL     1      26.134   6.447  49.352  1.00  0.00     0.048 A 
ENDBRANCH  13  15
ENDBRANCH  10  13
BRANCH   1  22
HETATM   22  N1  UNL     1      32.312   4.081  48.133  1.00  0.00    -0.327 N 
HETATM   23  C3  UNL     1      32.546   3.533  46.849  1.00  0.00     0.221 C 
HETATM   24  O1  UNL     1      32.515   4.332  45.864  1.00  0.00    -0.273 OA
HETATM   25  H6  UNL     1      32.273   3.701  49.105  1.00  0.00     0.169 HD
BRANCH  23  26
HETATM   26  C2  UNL     1      32.792   2.067  46.942  1.00  0.00     0.098 C 
HETATM   27  C1  UNL     1      33.152   1.630  48.322  1.00  0.00     0.014 C 
ENDBRANCH  23  26
ENDBRANCH   1  22
TORSDOF 4
ENDMDL
MODEL 9
REMARK VINA RESULT:      -7.3      3.278      5.146
REMARK  4 active torsions:
REMARK  status: ('A' for Active; 'I' for Inactive)
REMARK    1  A    between atoms: C2_2  and  C3_3 
REMARK       I    between atoms: C3_3  and  N1_5 
REMARK    2  A    between atoms: N1_5  and  C4_6 
REMARK    3  A    between atoms: C11_15  and  N4_16 
REMARK    4  A    between atoms: N4_16  and  C12_17 
ROOT
HETATM    1  C4  UNL     1      24.935   1.816  52.426  1.00  0.00     0.035 A 
HETATM    2  C5  UNL     1      23.891   0.950  52.191  1.00  0.00     0.032 A 
HETATM    3  C6  UNL     1      22.928   1.237  51.244  1.00  0.00     0.035 A 
HETATM    4  C7  UNL     1      23.013   2.410  50.520  1.00  0.00     0.069 A 
HETATM    5  N2  UNL     1      22.071   2.691  49.593  1.00  0.00    -0.259 NA
HETATM    6  C8  UNL     1      22.130   3.835  48.869  1.00  0.00     0.142 A 
HETATM    7  C9  UNL     1      23.182   4.730  49.091  1.00  0.00     0.089 A 
HETATM    8  C10 UNL     1      23.222   5.950  48.302  1.00  0.00     0.103 C 
HETATM    9  N3  UNL     1      23.247   6.925  47.667  1.00  0.00    -0.191 NA
HETATM   10  C11 UNL     1      24.156   4.455  50.039  1.00  0.00     0.067 A 
HETATM   11  C18 UNL     1      24.066   3.281  50.760  1.00  0.00     0.023 A 
HETATM   12  C19 UNL     1      25.019   2.989  51.703  1.00  0.00     0.045 A 
ENDROOT
BRANCH  10  13
HETATM   13  N4  UNL     1      25.184   5.397  50.211  1.00  0.00    -0.354 N 
HETATM   14  H10 UNL     1      24.937   5.918  51.082  1.00  0.00     0.166 HD
BRANCH  13  15
HETATM   15  C12 UNL     1      26.349   5.691  49.459  1.00  0.00     0.033 A 
HETATM   16  C13 UNL     1      27.156   4.660  49.066  1.00  0.00     0.029 A 
HETATM   17  C14 UNL     1      28.282   4.970  48.336  1.00  0.00     0.004 A 
HETATM   18  C15 UNL     1      28.563   6.284  48.024  1.00  0.00     0.019 A 
HETATM   19  C16 UNL     1      27.751   7.349  48.415  1.00  0.00     0.013 A 
HETATM   20 BR1  UNL     1      28.168   9.152  47.966  1.00  0.00    -0.051 Br
HETATM   21  C17 UNL     1      26.626   7.003  49.149  1.00  0.00     0.048 A 
ENDBRANCH  13  15
ENDBRANCH  10  13
BRANCH   1  22
HETATM   22  N1  UNL     1      25.951   1.564  53.392  1.00  0.00    -0.327 N 
HETATM   23  C3  UNL     1      26.979   0.601  53.257  1.00  0.00     0.221 C 
HETATM   24  O1  UNL     1      26.990  -0.089  52.193  1.00  0.00    -0.273 OA
HETATM   25  H6  UNL     1      25.680   2.262  54.121  1.00  0.00     0.169 HD
BRANCH  23  26
HETATM   26  C2  UNL     1      27.866   0.609  54.454  1.00  0.00     0.098 C 
HETATM   27  C1  UNL     1      29.117  -0.177  54.248  1.00  0.00     0.014 C 
ENDBRANCH  23  26
ENDBRANCH   1  22
TORSDOF 4
ENDMDL
