MODEL 1
REMARK VINA RESULT:      -8.4      0.000      0.000
REMARK  4 active torsions:
REMARK  status: ('A' for Active; 'I' for Inactive)
REMARK    1  A    between atoms: N2_6  and  C3_7 
REMARK    2  A    between atoms: C3_7  and  C4_8 
REMARK    3  A    between atoms: C10_15  and  C11_16 
REMARK       I    between atoms: C11_16  and  N3_18 
REMARK    4  A    between atoms: N3_18  and  C12_19 
ROOT
HETATM    1  O1  UNL     1      23.427   0.560  52.085  1.00  0.00    -0.271 OA
HETATM    2  C1  UNL     1      23.420   1.822  52.292  1.00  0.00     0.246 C 
HETATM    3  N1  UNL     1      22.173   2.483  52.420  1.00  0.00    -0.349 N 
HETATM    4  C2  UNL     1      21.924   3.796  51.916  1.00  0.00     0.214 C 
HETATM    5  S1  UNL     1      23.420   4.798  52.124  1.00  0.00    -0.061 SA
HETATM    6  N2  UNL     1      24.752   3.760  51.588  1.00  0.00    -0.231 NA
HETATM    7  C10 UNL     1      24.687   2.582  52.396  1.00  0.00     0.254 C 
HETATM    8  H1  UNL     1      21.371   1.994  52.911  1.00  0.00     0.163 HD
ENDROOT
BRANCH   7   9
HETATM    9  C11 UNL     1      25.808   1.663  52.229  1.00  0.00     0.250 C 
HETATM   10  O2  UNL     1      26.526   1.630  51.217  1.00  0.00    -0.271 OA
HETATM   11  N3  UNL     1      26.059   0.770  53.311  1.00  0.00    -0.325 N 
HETATM   12  H11 UNL     1      25.549   0.677  54.219  1.00  0.00     0.169 HD
BRANCH  11  13
HETATM   13  C12 UNL     1      27.115  -0.176  53.285  1.00  0.00     0.034 A 
HETATM   14  C13 UNL     1      26.746  -1.425  52.810  1.00  0.00     0.029 A 
HETATM   15  C14 UNL     1      27.696  -2.435  52.737  1.00  0.00     0.002 A 
HETATM   16  C15 UNL     1      29.011  -2.188  53.142  1.00  0.00     0.000 A 
HETATM   17  C16 UNL     1      29.380  -0.937  53.618  1.00  0.00     0.002 A 
HETATM   18  C17 UNL     1      28.424   0.074  53.689  1.00  0.00     0.029 A 
ENDBRANCH  11  13
ENDBRANCH   7   9
BRANCH   6  19
HETATM   19  C3  UNL     1      24.636   3.539  50.178  1.00  0.00     0.143 C 
BRANCH  19  20
HETATM   20  C4  UNL     1      25.507   4.524  49.486  1.00  0.00    -0.043 A 
HETATM   21  C5  UNL     1      24.823   5.672  49.100  1.00  0.00     0.008 A 
HETATM   22  C6  UNL     1      25.469   6.714  48.438  1.00  0.00     0.002 A 
HETATM   23  C7  UNL     1      26.823   6.574  48.171  1.00  0.00     0.024 A 
HETATM   24  C8  UNL     1      27.512   5.436  48.551  1.00  0.00     0.034 A 
HETATM   25 CL1  UNL     1      29.218   5.242  48.224  1.00  0.00    -0.084 Cl
HETATM   26  C9  UNL     1      26.851   4.418  49.206  1.00  0.00     0.032 A 
ENDBRANCH  19  20
ENDBRANCH   6  19
TORSDOF 4
ENDMDL
MODEL 2
REMARK VINA RESULT:      -8.4      1.001      1.392
REMARK  4 active torsions:
REMARK  status: ('A' for Active; 'I' for Inactive)
REMARK    1  A    between atoms: N2_6  and  C3_7 
REMARK    2  A    between atoms: C3_7  and  C4_8 
REMARK    3  A    between atoms: C10_15  and  C11_16 
REMARK       I    between atoms: C11_16  and  N3_18 
REMARK    4  A    between atoms: N3_18  and  C12_19 
ROOT
HETATM    1  O1  UNL     1      23.503   0.543  52.048  1.00  0.00    -0.271 OA
HETATM    2  C1  UNL     1      23.493   1.805  52.253  1.00  0.00     0.246 C 
HETATM    3  N1  UNL     1      22.244   2.466  52.363  1.00  0.00    -0.349 N 
HETATM    4  C2  UNL     1      22.002   3.778  51.853  1.00  0.00     0.214 C 
HETATM    5  S1  UNL     1      23.495   4.780  52.079  1.00  0.00    -0.061 SA
HETATM    6  N2  UNL     1      24.834   3.742  51.563  1.00  0.00    -0.231 NA
HETATM    7  C10 UNL     1      24.758   2.566  52.373  1.00  0.00     0.254 C 
HETATM    8  H1  UNL     1      21.436   1.978  52.844  1.00  0.00     0.163 HD
ENDROOT
BRANCH   7   9
HETATM    9  C11 UNL     1      25.882   1.647  52.221  1.00  0.00     0.250 C 
HETATM   10  O2  UNL     1      26.611   1.610  51.218  1.00  0.00    -0.271 OA
HETATM   11  N3  UNL     1      26.121   0.758  53.311  1.00  0.00    -0.325 N 
HETATM   12  H11 UNL     1      25.601   0.669  54.214  1.00  0.00     0.169 HD
BRANCH  11  13
HETATM   13  C12 UNL     1      27.178  -0.187  53.301  1.00  0.00     0.034 A 
HETATM   14  C13 UNL     1      26.819  -1.434  52.812  1.00  0.00     0.029 A 
HETATM   15  C14 UNL     1      27.770  -2.443  52.753  1.00  0.00     0.002 A 
HETATM   16  C15 UNL     1      29.077  -2.197  53.185  1.00  0.00     0.000 A 
HETATM   17  C16 UNL     1      29.436  -0.949  53.674  1.00  0.00     0.002 A 
HETATM   18  C17 UNL     1      28.479   0.062  53.731  1.00  0.00     0.029 A 
ENDBRANCH  11  13
ENDBRANCH   7   9
BRANCH   6  19
HETATM   19  C3  UNL     1      24.736   3.519  50.152  1.00  0.00     0.143 C 
BRANCH  19  20
HETATM   20  C4  UNL     1      25.560   4.548  49.466  1.00  0.00    -0.043 A 
HETATM   21  C5  UNL     1      26.870   4.134  49.249  1.00  0.00     0.008 A 
HETATM   22  C6  UNL     1      27.797   4.960  48.618  1.00  0.00     0.002 A 
HETATM   23  C7  UNL     1      27.377   6.217  48.210  1.00  0.00     0.024 A 
HETATM   24  C8  UNL     1      26.076   6.638  48.422  1.00  0.00     0.034 A 
HETATM   25 CL1  UNL     1      25.527   8.218  47.915  1.00  0.00    -0.084 Cl
HETATM   26  C9  UNL     1      25.175   5.802  49.049  1.00  0.00     0.032 A 
ENDBRANCH  19  20
ENDBRANCH   6  19
TORSDOF 4
ENDMDL
MODEL 3
REMARK VINA RESULT:      -8.1      2.770      6.007
REMARK  4 active torsions:
REMARK  status: ('A' for Active; 'I' for Inactive)
REMARK    1  A    between atoms: N2_6  and  C3_7 
REMARK    2  A    between atoms: C3_7  and  C4_8 
REMARK    3  A    between atoms: C10_15  and  C11_16 
REMARK       I    between atoms: C11_16  and  N3_18 
REMARK    4  A    between atoms: N3_18  and  C12_19 
ROOT
HETATM    1  O1  UNL     1      21.238   3.456  51.778  1.00  0.00    -0.271 OA
HETATM    2  C1  UNL     1      21.331   2.210  52.048  1.00  0.00     0.246 C 
HETATM    3  N1  UNL     1      20.445   1.653  53.004  1.00  0.00    -0.349 N 
HETATM    4  C2  UNL     1      20.828   0.636  53.931  1.00  0.00     0.214 C 
HETATM    5  S1  UNL     1      21.987  -0.494  53.116  1.00  0.00    -0.061 SA
HETATM    6  N2  UNL     1      23.130   0.553  52.257  1.00  0.00    -0.231 NA
HETATM    7  C10 UNL     1      22.343   1.361  51.378  1.00  0.00     0.254 C 
HETATM    8  H1  UNL     1      19.444   1.997  53.051  1.00  0.00     0.163 HD
ENDROOT
BRANCH   7   9
HETATM    9  C11 UNL     1      23.113   2.182  50.450  1.00  0.00     0.250 C 
HETATM   10  O2  UNL     1      22.982   2.135  49.216  1.00  0.00    -0.271 OA
HETATM   11  N3  UNL     1      24.059   3.075  51.034  1.00  0.00    -0.325 N 
HETATM   12  H11 UNL     1      24.283   3.228  52.043  1.00  0.00     0.169 HD
BRANCH  11  13
HETATM   13  C12 UNL     1      24.876   3.932  50.252  1.00  0.00     0.034 A 
HETATM   14  C13 UNL     1      26.138   3.425  49.987  1.00  0.00     0.029 A 
HETATM   15  C14 UNL     1      27.029   4.175  49.229  1.00  0.00     0.002 A 
HETATM   16  C15 UNL     1      26.648   5.429  48.743  1.00  0.00     0.000 A 
HETATM   17  C16 UNL     1      25.384   5.935  49.009  1.00  0.00     0.002 A 
HETATM   18  C17 UNL     1      24.493   5.180  49.768  1.00  0.00     0.029 A 
ENDBRANCH  11  13
ENDBRANCH   7   9
BRANCH   6  19
HETATM   19  C3  UNL     1      23.913   1.276  53.214  1.00  0.00     0.143 C 
BRANCH  19  20
HETATM   20  C4  UNL     1      25.294   0.727  53.185  1.00  0.00    -0.043 A 
HETATM   21  C5  UNL     1      26.260   1.684  53.477  1.00  0.00     0.008 A 
HETATM   22  C6  UNL     1      27.615   1.364  53.500  1.00  0.00     0.002 A 
HETATM   23  C7  UNL     1      27.979   0.055  53.220  1.00  0.00     0.024 A 
HETATM   24  C8  UNL     1      27.025  -0.904  52.929  1.00  0.00     0.034 A 
HETATM   25 CL1  UNL     1      27.462  -2.559  52.574  1.00  0.00    -0.084 Cl
HETATM   26  C9  UNL     1      25.688  -0.563  52.912  1.00  0.00     0.032 A 
ENDBRANCH  19  20
ENDBRANCH   6  19
TORSDOF 4
ENDMDL
MODEL 4
REMARK VINA RESULT:      -8.0      3.915      6.123
REMARK  4 active torsions:
REMARK  status: ('A' for Active; 'I' for Inactive)
REMARK    1  A    between atoms: N2_6  and  C3_7 
REMARK    2  A    between atoms: C3_7  and  C4_8 
REMARK    3  A    between atoms: C10_15  and  C11_16 
REMARK       I    between atoms: C11_16  and  N3_18 
REMARK    4  A    between atoms: N3_18  and  C12_19 
ROOT
HETATM    1  O1  UNL     1      24.487   4.360  51.351  1.00  0.00    -0.271 OA
HETATM    2  C1  UNL     1      23.798   3.504  50.699  1.00  0.00     0.246 C 
HETATM    3  N1  UNL     1      22.902   3.968  49.703  1.00  0.00    -0.349 N 
HETATM    4  C2  UNL     1      21.629   3.370  49.451  1.00  0.00     0.214 C 
HETATM    5  S1  UNL     1      21.767   1.577  49.674  1.00  0.00    -0.061 SA
HETATM    6  N2  UNL     1      22.690   1.364  51.172  1.00  0.00    -0.231 NA
HETATM    7  C10 UNL     1      23.927   2.054  50.977  1.00  0.00     0.254 C 
HETATM    8  H1  UNL     1      23.172   4.799  49.105  1.00  0.00     0.163 HD
ENDROOT
BRANCH   7   9
HETATM    9  C11 UNL     1      24.909   1.859  52.039  1.00  0.00     0.250 C 
HETATM   10  O2  UNL     1      24.656   2.000  53.245  1.00  0.00    -0.271 OA
HETATM   11  N3  UNL     1      26.221   1.486  51.623  1.00  0.00    -0.325 N 
HETATM   12  H11 UNL     1      26.585   1.330  50.656  1.00  0.00     0.169 HD
BRANCH  11  13
HETATM   13  C12 UNL     1      27.274   1.263  52.546  1.00  0.00     0.034 A 
HETATM   14  C13 UNL     1      27.517  -0.074  52.818  1.00  0.00     0.029 A 
HETATM   15  C14 UNL     1      28.526  -0.417  53.708  1.00  0.00     0.002 A 
HETATM   16  C15 UNL     1      29.286   0.583  54.321  1.00  0.00     0.000 A 
HETATM   17  C16 UNL     1      29.042   1.922  54.049  1.00  0.00     0.002 A 
HETATM   18  C17 UNL     1      28.030   2.262  53.155  1.00  0.00     0.029 A 
ENDBRANCH  11  13
ENDBRANCH   7   9
BRANCH   6  19
HETATM   19  C3  UNL     1      21.902   1.825  52.276  1.00  0.00     0.143 C 
BRANCH  19  20
HETATM   20  C4  UNL     1      21.260   0.641  52.905  1.00  0.00    -0.043 A 
HETATM   21  C5  UNL     1      22.144  -0.106  53.676  1.00  0.00     0.008 A 
HETATM   22  C6  UNL     1      21.731  -1.253  54.348  1.00  0.00     0.002 A 
HETATM   23  C7  UNL     1      20.403  -1.635  54.227  1.00  0.00     0.024 A 
HETATM   24  C8  UNL     1      19.515  -0.898  53.463  1.00  0.00     0.034 A 
HETATM   25 CL1  UNL     1      17.838  -1.361  53.299  1.00  0.00    -0.084 Cl
HETATM   26  C9  UNL     1      19.948   0.236  52.807  1.00  0.00     0.032 A 
ENDBRANCH  19  20
ENDBRANCH   6  19
TORSDOF 4
ENDMDL
MODEL 5
REMARK VINA RESULT:      -7.9      3.437      7.312
REMARK  4 active torsions:
REMARK  status: ('A' for Active; 'I' for Inactive)
REMARK    1  A    between atoms: N2_6  and  C3_7 
REMARK    2  A    between atoms: C3_7  and  C4_8 
REMARK    3  A    between atoms: C10_15  and  C11_16 
REMARK       I    between atoms: C11_16  and  N3_18 
REMARK    4  A    between atoms: N3_18  and  C12_19 
ROOT
HETATM    1  O1  UNL     1      27.069   2.252  51.286  1.00  0.00    -0.271 OA
HETATM    2  C1  UNL     1      26.976   1.811  52.483  1.00  0.00     0.246 C 
HETATM    3  N1  UNL     1      28.062   1.077  53.023  1.00  0.00    -0.349 N 
HETATM    4  C2  UNL     1      27.898  -0.041  53.897  1.00  0.00     0.214 C 
HETATM    5  S1  UNL     1      26.481   0.268  54.985  1.00  0.00    -0.061 SA
HETATM    6  N2  UNL     1      25.210   0.900  53.924  1.00  0.00    -0.231 NA
HETATM    7  C10 UNL     1      25.761   2.059  53.293  1.00  0.00     0.254 C 
HETATM    8  H1  UNL     1      29.054   1.356  52.777  1.00  0.00     0.163 HD
ENDROOT
BRANCH   7   9
HETATM    9  C11 UNL     1      24.811   2.832  52.500  1.00  0.00     0.250 C 
HETATM   10  O2  UNL     1      24.120   3.755  52.959  1.00  0.00    -0.271 OA
HETATM   11  N3  UNL     1      24.700   2.474  51.123  1.00  0.00    -0.325 N 
HETATM   12  H11 UNL     1      25.208   1.730  50.594  1.00  0.00     0.169 HD
BRANCH  11  13
HETATM   13  C12 UNL     1      23.817   3.140  50.235  1.00  0.00     0.034 A 
HETATM   14  C13 UNL     1      24.395   4.196  49.547  1.00  0.00     0.029 A 
HETATM   15  C14 UNL     1      23.628   4.925  48.648  1.00  0.00     0.002 A 
HETATM   16  C15 UNL     1      22.286   4.591  48.444  1.00  0.00     0.000 A 
HETATM   17  C16 UNL     1      21.708   3.534  49.133  1.00  0.00     0.002 A 
HETATM   18  C17 UNL     1      22.481   2.804  50.034  1.00  0.00     0.029 A 
ENDBRANCH  11  13
ENDBRANCH   7   9
BRANCH   6  19
HETATM   19  C3  UNL     1      24.786  -0.137  53.033  1.00  0.00     0.143 C 
BRANCH  19  20
HETATM   20  C4  UNL     1      23.323  -0.326  53.213  1.00  0.00    -0.043 A 
HETATM   21  C5  UNL     1      23.003  -0.941  54.419  1.00  0.00     0.008 A 
HETATM   22  C6  UNL     1      21.681  -1.204  54.772  1.00  0.00     0.002 A 
HETATM   23  C7  UNL     1      20.685  -0.834  53.881  1.00  0.00     0.024 A 
HETATM   24  C8  UNL     1      20.993  -0.222  52.679  1.00  0.00     0.034 A 
HETATM   25 CL1  UNL     1      19.752   0.252  51.543  1.00  0.00    -0.084 Cl
HETATM   26  C9  UNL     1      22.310   0.029  52.352  1.00  0.00     0.032 A 
ENDBRANCH  19  20
ENDBRANCH   6  19
TORSDOF 4
ENDMDL
MODEL 6
REMARK VINA RESULT:      -7.8      2.252      3.217
REMARK  4 active torsions:
REMARK  status: ('A' for Active; 'I' for Inactive)
REMARK    1  A    between atoms: N2_6  and  C3_7 
REMARK    2  A    between atoms: C3_7  and  C4_8 
REMARK    3  A    between atoms: C10_15  and  C11_16 
REMARK       I    between atoms: C11_16  and  N3_18 
REMARK    4  A    between atoms: N3_18  and  C12_19 
ROOT
HETATM    1  O1  UNL     1      21.746   4.065  51.026  1.00  0.00    -0.271 OA
HETATM    2  C1  UNL     1      22.327   5.199  51.135  1.00  0.00     0.246 C 
HETATM    3  N1  UNL     1      21.570   6.376  50.907  1.00  0.00    -0.349 N 
HETATM    4  C2  UNL     1      22.098   7.537  50.265  1.00  0.00     0.214 C 
HETATM    5  S1  UNL     1      23.830   7.746  50.760  1.00  0.00    -0.061 SA
HETATM    6  N2  UNL     1      24.545   6.129  50.641  1.00  0.00    -0.231 NA
HETATM    7  C10 UNL     1      23.762   5.286  51.491  1.00  0.00     0.254 C 
HETATM    8  H1  UNL     1      20.559   6.415  51.221  1.00  0.00     0.163 HD
ENDROOT
BRANCH   7   9
HETATM    9  C11 UNL     1      24.291   3.938  51.668  1.00  0.00     0.250 C 
HETATM   10  O2  UNL     1      24.675   3.220  50.731  1.00  0.00    -0.271 OA
HETATM   11  N3  UNL     1      24.354   3.456  53.008  1.00  0.00    -0.325 N 
HETATM   12  H11 UNL     1      24.073   3.936  53.894  1.00  0.00     0.169 HD
BRANCH  11  13
HETATM   13  C12 UNL     1      24.846   2.165  53.328  1.00  0.00     0.034 A 
HETATM   14  C13 UNL     1      23.942   1.140  53.096  1.00  0.00     0.029 A 
HETATM   15  C14 UNL     1      24.310  -0.170  53.371  1.00  0.00     0.002 A 
HETATM   16  C15 UNL     1      25.584  -0.445  53.878  1.00  0.00     0.000 A 
HETATM   17  C16 UNL     1      26.489   0.581  54.110  1.00  0.00     0.002 A 
HETATM   18  C17 UNL     1      26.116   1.894  53.832  1.00  0.00     0.029 A 
ENDBRANCH  11  13
ENDBRANCH   7   9
BRANCH   6  19
HETATM   19  C3  UNL     1      24.588   5.736  49.264  1.00  0.00     0.143 C 
BRANCH  19  20
HETATM   20  C4  UNL     1      25.938   6.063  48.736  1.00  0.00    -0.043 A 
HETATM   21  C5  UNL     1      26.858   5.040  48.937  1.00  0.00     0.008 A 
HETATM   22  C6  UNL     1      28.179   5.157  48.511  1.00  0.00     0.002 A 
HETATM   23  C7  UNL     1      28.555   6.331  47.876  1.00  0.00     0.024 A 
HETATM   24  C8  UNL     1      27.647   7.354  47.671  1.00  0.00     0.034 A 
HETATM   25 CL1  UNL     1      28.101   8.841  46.872  1.00  0.00    -0.084 Cl
HETATM   26  C9  UNL     1      26.344   7.215  48.102  1.00  0.00     0.032 A 
ENDBRANCH  19  20
ENDBRANCH   6  19
TORSDOF 4
ENDMDL
MODEL 7
REMARK VINA RESULT:      -7.7      4.061      7.199
REMARK  4 active torsions:
REMARK  status: ('A' for Active; 'I' for Inactive)
REMARK    1  A    between atoms: N2_6  and  C3_7 
REMARK    2  A    between atoms: C3_7  and  C4_8 
REMARK    3  A    between atoms: C10_15  and  C11_16 
REMARK       I    between atoms: C11_16  and  N3_18 
REMARK    4  A    between atoms: N3_18  and  C12_19 
ROOT
HETATM    1  O1  UNL     1      20.615   3.377  49.307  1.00  0.00    -0.271 OA
HETATM    2  C1  UNL     1      21.642   3.821  49.926  1.00  0.00     0.246 C 
HETATM    3  N1  UNL     1      22.601   4.571  49.201  1.00  0.00    -0.349 N 
HETATM    4  C2  UNL     1      24.007   4.487  49.438  1.00  0.00     0.214 C 
HETATM    5  S1  UNL     1      24.292   4.272  51.215  1.00  0.00    -0.061 SA
HETATM    6  N2  UNL     1      23.119   3.047  51.728  1.00  0.00    -0.231 NA
HETATM    7  C10 UNL     1      21.831   3.557  51.372  1.00  0.00     0.254 C 
HETATM    8  H1  UNL     1      22.279   5.234  48.440  1.00  0.00     0.163 HD
ENDROOT
BRANCH   7   9
HETATM    9  C11 UNL     1      20.705   2.769  51.863  1.00  0.00     0.250 C 
HETATM   10  O2  UNL     1      19.893   3.180  52.706  1.00  0.00    -0.271 OA
HETATM   11  N3  UNL     1      20.566   1.459  51.317  1.00  0.00    -0.325 N 
HETATM   12  H11 UNL     1      21.162   0.975  50.607  1.00  0.00     0.169 HD
BRANCH  11  13
HETATM   13  C12 UNL     1      19.519   0.584  51.702  1.00  0.00     0.034 A 
HETATM   14  C13 UNL     1      19.773  -0.127  52.864  1.00  0.00     0.029 A 
HETATM   15  C14 UNL     1      18.819  -1.017  53.341  1.00  0.00     0.002 A 
HETATM   16  C15 UNL     1      17.616  -1.188  52.651  1.00  0.00     0.000 A 
HETATM   17  C16 UNL     1      17.362  -0.475  51.487  1.00  0.00     0.002 A 
HETATM   18  C17 UNL     1      18.321   0.417  51.012  1.00  0.00     0.029 A 
ENDBRANCH  11  13
ENDBRANCH   7   9
BRANCH   6  19
HETATM   19  C3  UNL     1      23.464   1.790  51.133  1.00  0.00     0.143 C 
BRANCH  19  20
HETATM   20  C4  UNL     1      24.007   0.912  52.201  1.00  0.00    -0.043 A 
HETATM   21  C5  UNL     1      25.392   0.789  52.146  1.00  0.00     0.008 A 
HETATM   22  C6  UNL     1      26.088   0.006  53.064  1.00  0.00     0.002 A 
HETATM   23  C7  UNL     1      25.359  -0.652  54.043  1.00  0.00     0.024 A 
HETATM   24  C8  UNL     1      23.982  -0.536  54.106  1.00  0.00     0.034 A 
HETATM   25 CL1  UNL     1      23.045  -1.357  55.332  1.00  0.00    -0.084 Cl
HETATM   26  C9  UNL     1      23.314   0.245  53.186  1.00  0.00     0.032 A 
ENDBRANCH  19  20
ENDBRANCH   6  19
TORSDOF 4
ENDMDL
MODEL 8
REMARK VINA RESULT:      -7.5      3.966      6.726
REMARK  4 active torsions:
REMARK  status: ('A' for Active; 'I' for Inactive)
REMARK    1  A    between atoms: N2_6  and  C3_7 
REMARK    2  A    between atoms: C3_7  and  C4_8 
REMARK    3  A    between atoms: C10_15  and  C11_16 
REMARK       I    between atoms: C11_16  and  N3_18 
REMARK    4  A    between atoms: N3_18  and  C12_19 
ROOT
HETATM    1  O1  UNL     1      20.805   5.417  49.746  1.00  0.00    -0.271 OA
HETATM    2  C1  UNL     1      20.261   4.294  50.022  1.00  0.00     0.246 C 
HETATM    3  N1  UNL     1      18.955   4.289  50.575  1.00  0.00    -0.349 N 
HETATM    4  C2  UNL     1      18.528   3.358  51.570  1.00  0.00     0.214 C 
HETATM    5  S1  UNL     1      19.297   1.750  51.241  1.00  0.00    -0.061 SA
HETATM    6  N2  UNL     1      20.993   2.112  50.878  1.00  0.00    -0.231 NA
HETATM    7  C10 UNL     1      20.977   3.021  49.774  1.00  0.00     0.254 C 
HETATM    8  H1  UNL     1      18.247   5.004  50.246  1.00  0.00     0.163 HD
ENDROOT
BRANCH   7   9
HETATM    9  C11 UNL     1      22.288   3.316  49.206  1.00  0.00     0.250 C 
HETATM   10  O2  UNL     1      22.628   2.998  48.056  1.00  0.00    -0.271 OA
HETATM   11  N3  UNL     1      23.201   4.010  50.055  1.00  0.00    -0.325 N 
HETATM   12  H11 UNL     1      23.064   4.342  51.036  1.00  0.00     0.169 HD
BRANCH  11  13
HETATM   13  C12 UNL     1      24.509   4.361  49.635  1.00  0.00     0.034 A 
HETATM   14  C13 UNL     1      25.455   3.369  49.835  1.00  0.00     0.029 A 
HETATM   15  C14 UNL     1      26.773   3.597  49.463  1.00  0.00     0.002 A 
HETATM   16  C15 UNL     1      27.135   4.820  48.892  1.00  0.00     0.000 A 
HETATM   17  C16 UNL     1      26.187   5.814  48.691  1.00  0.00     0.002 A 
HETATM   18  C17 UNL     1      24.866   5.581  49.064  1.00  0.00     0.029 A 
ENDBRANCH  11  13
ENDBRANCH   7   9
BRANCH   6  19
HETATM   19  C3  UNL     1      21.631   2.603  52.063  1.00  0.00     0.143 C 
BRANCH  19  20
HETATM   20  C4  UNL     1      22.353   1.469  52.697  1.00  0.00    -0.043 A 
HETATM   21  C5  UNL     1      23.731   1.545  52.527  1.00  0.00     0.008 A 
HETATM   22  C6  UNL     1      24.582   0.574  53.050  1.00  0.00     0.002 A 
HETATM   23  C7  UNL     1      24.013  -0.479  53.751  1.00  0.00     0.024 A 
HETATM   24  C8  UNL     1      22.644  -0.562  53.926  1.00  0.00     0.034 A 
HETATM   25 CL1  UNL     1      21.908  -1.881  54.807  1.00  0.00    -0.084 Cl
HETATM   26  C9  UNL     1      21.821   0.412  53.399  1.00  0.00     0.032 A 
ENDBRANCH  19  20
ENDBRANCH   6  19
TORSDOF 4
ENDMDL
MODEL 9
REMARK VINA RESULT:      -7.5      3.949      7.686
REMARK  4 active torsions:
REMARK  status: ('A' for Active; 'I' for Inactive)
REMARK    1  A    between atoms: N2_6  and  C3_7 
REMARK    2  A    between atoms: C3_7  and  C4_8 
REMARK    3  A    between atoms: C10_15  and  C11_16 
REMARK       I    between atoms: C11_16  and  N3_18 
REMARK    4  A    between atoms: N3_18  and  C12_19 
ROOT
HETATM    1  O1  UNL     1      25.402   3.310  49.723  1.00  0.00    -0.271 OA
HETATM    2  C1  UNL     1      25.607   3.157  50.976  1.00  0.00     0.246 C 
HETATM    3  N1  UNL     1      26.932   2.926  51.425  1.00  0.00    -0.349 N 
HETATM    4  C2  UNL     1      27.253   2.049  52.505  1.00  0.00     0.214 C 
HETATM    5  S1  UNL     1      25.958   2.171  53.767  1.00  0.00    -0.061 SA
HETATM    6  N2  UNL     1      24.431   2.129  52.870  1.00  0.00    -0.231 NA
HETATM    7  C10 UNL     1      24.486   3.216  51.943  1.00  0.00     0.254 C 
HETATM    8  H1  UNL     1      27.738   3.420  50.947  1.00  0.00     0.163 HD
ENDROOT
BRANCH   7   9
HETATM    9  C11 UNL     1      23.244   3.463  51.216  1.00  0.00     0.250 C 
HETATM   10  O2  UNL     1      22.497   4.429  51.437  1.00  0.00    -0.271 OA
HETATM   11  N3  UNL     1      22.907   2.517  50.204  1.00  0.00    -0.325 N 
HETATM   12  H11 UNL     1      23.428   1.662  49.903  1.00  0.00     0.169 HD
BRANCH  11  13
HETATM   13  C12 UNL     1      21.731   2.632  49.420  1.00  0.00     0.034 A 
HETATM   14  C13 UNL     1      21.935   3.200  48.172  1.00  0.00     0.029 A 
HETATM   15  C14 UNL     1      20.856   3.365  47.314  1.00  0.00     0.002 A 
HETATM   16  C15 UNL     1      19.579   2.959  47.711  1.00  0.00     0.000 A 
HETATM   17  C16 UNL     1      19.376   2.389  48.960  1.00  0.00     0.002 A 
HETATM   18  C17 UNL     1      20.461   2.224  49.819  1.00  0.00     0.029 A 
ENDBRANCH  11  13
ENDBRANCH   7   9
BRANCH   6  19
HETATM   19  C3  UNL     1      24.268   0.833  52.283  1.00  0.00     0.143 C 
BRANCH  19  20
HETATM   20  C4  UNL     1      23.125   0.164  52.957  1.00  0.00    -0.043 A 
HETATM   21  C5  UNL     1      23.514  -0.583  54.064  1.00  0.00     0.008 A 
HETATM   22  C6  UNL     1      22.585  -1.284  54.829  1.00  0.00     0.002 A 
HETATM   23  C7  UNL     1      21.251  -1.217  54.455  1.00  0.00     0.024 A 
HETATM   24  C8  UNL     1      20.855  -0.476  53.356  1.00  0.00     0.034 A 
HETATM   25 CL1  UNL     1      19.179  -0.378  52.869  1.00  0.00    -0.084 Cl
HETATM   26  C9  UNL     1      21.793   0.211  52.614  1.00  0.00     0.032 A 
ENDBRANCH  19  20
ENDBRANCH   6  19
TORSDOF 4
ENDMDL
