MODEL 1
REMARK VINA RESULT:      -7.6      0.000      0.000
REMARK  5 active torsions:
REMARK  status: ('A' for Active; 'I' for Inactive)
REMARK    1  A    between atoms: O1_2  and  C2_3 
REMARK    2  A    between atoms: C6_8  and  N2_9 
REMARK    3  A    between atoms: N2_9  and  C7_10 
REMARK    4  A    between atoms: C7_10  and  C8_11 
REMARK    5  A    between atoms: C10_14  and  O2_15 
ROOT
HETATM    1  C2  UNL     1      20.273  -0.647  53.520  1.00  0.00     0.181 C 
HETATM    2  C3  UNL     1      21.143  -1.156  54.394  1.00  0.00     0.082 C 
HETATM    3  C4  UNL     1      22.572  -1.143  54.642  1.00  0.00     0.115 C 
HETATM    4  N1  UNL     1      23.489  -0.528  53.970  1.00  0.00    -0.296 NA
HETATM    5  C5  UNL     1      24.857  -0.689  54.439  1.00  0.00     0.201 C 
HETATM    6  C6  UNL     1      25.836   0.201  53.793  1.00  0.00     0.014 C 
HETATM    7  C9  UNL     1      25.481   1.137  52.874  1.00  0.00     0.105 C 
HETATM    8  C10 UNL     1      26.302   2.135  52.094  1.00  0.00     0.057 C 
HETATM    9  C11 UNL     1      25.457   2.857  51.309  1.00  0.00    -0.026 C 
HETATM   10  C12 UNL     1      25.891   3.941  50.378  1.00  0.00     0.048 C 
HETATM   11  C13 UNL     1      23.994   2.847  51.215  1.00  0.00     0.306 C 
HETATM   12  N3  UNL     1      23.302   1.976  52.110  1.00  0.00     0.089 N 
HETATM   13  C14 UNL     1      21.876   2.210  51.813  1.00  0.00     0.296 C 
HETATM   14  C15 UNL     1      20.954   1.477  52.717  1.00  0.00     0.207 C 
HETATM   15  O3  UNL     1      21.123   0.079  52.661  1.00  0.00    -0.329 OA
HETATM   16  H20 UNL     1      23.412   2.415  53.078  1.00  0.00     0.316 HD
ENDROOT
BRANCH   6  17
HETATM   17  N2  UNL     1      27.051  -0.293  54.469  1.00  0.00    -0.393 N 
HETATM   18  H8  UNL     1      26.968  -1.322  54.712  1.00  0.00     0.159 HD
BRANCH  17  19
HETATM   19  C7  UNL     1      28.193   0.532  54.756  1.00  0.00     0.134 C 
BRANCH  19  20
HETATM   20  C8  UNL     1      29.259   0.239  53.692  1.00  0.00     0.134 C 
HETATM   21 CL1  UNL     1      29.445  -1.507  53.465  1.00  0.00    -0.129 Cl
ENDBRANCH  19  20
ENDBRANCH  17  19
ENDBRANCH   6  17
BRANCH   8  22
HETATM   22  O2  UNL     1      27.607   2.671  51.805  1.00  0.00    -0.364 OA
HETATM   23  H14 UNL     1      28.411   2.163  52.185  1.00  0.00     0.217 HD
ENDBRANCH   8  22
BRANCH   1  24
HETATM   24  O1  UNL     1      18.918  -0.861  53.566  1.00  0.00    -0.336 OA
HETATM   25  C1  UNL     1      18.088  -0.764  52.438  1.00  0.00     0.212 C 
ENDBRANCH   1  24
TORSDOF 5
ENDMDL
MODEL 2
REMARK VINA RESULT:      -7.4      2.322      4.440
REMARK  5 active torsions:
REMARK  status: ('A' for Active; 'I' for Inactive)
REMARK    1  A    between atoms: O1_2  and  C2_3 
REMARK    2  A    between atoms: C6_8  and  N2_9 
REMARK    3  A    between atoms: N2_9  and  C7_10 
REMARK    4  A    between atoms: C7_10  and  C8_11 
REMARK    5  A    between atoms: C10_14  and  O2_15 
ROOT
HETATM    1  C2  UNL     1      21.159   0.238  52.922  1.00  0.00     0.181 C 
HETATM    2  C3  UNL     1      21.380   1.013  51.859  1.00  0.00     0.082 C 
HETATM    3  C4  UNL     1      22.453   1.810  51.295  1.00  0.00     0.115 C 
HETATM    4  N1  UNL     1      23.646   1.980  51.764  1.00  0.00    -0.296 NA
HETATM    5  C5  UNL     1      24.529   2.843  50.993  1.00  0.00     0.201 C 
HETATM    6  C6  UNL     1      25.934   2.828  51.431  1.00  0.00     0.014 C 
HETATM    7  C9  UNL     1      26.382   2.030  52.436  1.00  0.00     0.105 C 
HETATM    8  C10 UNL     1      27.753   1.859  53.043  1.00  0.00     0.057 C 
HETATM    9  C11 UNL     1      27.668   0.917  54.021  1.00  0.00    -0.026 C 
HETATM   10  C12 UNL     1      28.818   0.472  54.865  1.00  0.00     0.048 C 
HETATM   11  C13 UNL     1      26.546   0.071  54.441  1.00  0.00     0.306 C 
HETATM   12  N3  UNL     1      25.335   0.200  53.698  1.00  0.00     0.089 N 
HETATM   13  C14 UNL     1      24.424  -0.782  54.315  1.00  0.00     0.296 C 
HETATM   14  C15 UNL     1      23.118  -0.900  53.618  1.00  0.00     0.207 C 
HETATM   15  O3  UNL     1      22.398   0.310  53.590  1.00  0.00    -0.329 OA
HETATM   16  H20 UNL     1      25.537  -0.239  52.744  1.00  0.00     0.316 HD
ENDROOT
BRANCH   6  17
HETATM   17  N2  UNL     1      26.463   3.828  50.483  1.00  0.00    -0.393 N 
HETATM   18  H8  UNL     1      27.515   3.927  50.571  1.00  0.00     0.159 HD
BRANCH  17  19
HETATM   19  C7  UNL     1      25.640   4.567  49.564  1.00  0.00     0.134 C 
BRANCH  19  20
HETATM   20  C8  UNL     1      26.475   5.735  49.024  1.00  0.00     0.134 C 
HETATM   21 CL1  UNL     1      28.028   5.151  48.406  1.00  0.00    -0.129 Cl
ENDBRANCH  19  20
ENDBRANCH  17  19
ENDBRANCH   6  17
BRANCH   8  22
HETATM   22  O2  UNL     1      29.136   2.259  53.048  1.00  0.00    -0.364 OA
HETATM   23  H14 UNL     1      29.828   1.530  53.245  1.00  0.00     0.217 HD
ENDBRANCH   8  22
BRANCH   1  24
HETATM   24  O1  UNL     1      19.974  -0.406  53.175  1.00  0.00    -0.336 OA
HETATM   25  C1  UNL     1      18.822  -0.227  52.393  1.00  0.00     0.212 C 
ENDBRANCH   1  24
TORSDOF 5
ENDMDL
MODEL 3
REMARK VINA RESULT:      -7.0      2.709      7.097
REMARK  5 active torsions:
REMARK  status: ('A' for Active; 'I' for Inactive)
REMARK    1  A    between atoms: O1_2  and  C2_3 
REMARK    2  A    between atoms: C6_8  and  N2_9 
REMARK    3  A    between atoms: N2_9  and  C7_10 
REMARK    4  A    between atoms: C7_10  and  C8_11 
REMARK    5  A    between atoms: C10_14  and  O2_15 
ROOT
HETATM    1  C2  UNL     1      28.073   0.619  53.421  1.00  0.00     0.181 C 
HETATM    2  C3  UNL     1      27.730   1.640  52.634  1.00  0.00     0.082 C 
HETATM    3  C4  UNL     1      26.556   2.134  51.939  1.00  0.00     0.115 C 
HETATM    4  N1  UNL     1      25.370   1.621  51.922  1.00  0.00    -0.296 NA
HETATM    5  C5  UNL     1      24.369   2.325  51.133  1.00  0.00     0.201 C 
HETATM    6  C6  UNL     1      22.991   1.844  51.321  1.00  0.00     0.014 C 
HETATM    7  C9  UNL     1      22.671   0.860  52.204  1.00  0.00     0.105 C 
HETATM    8  C10 UNL     1      21.349   0.218  52.550  1.00  0.00     0.057 C 
HETATM    9  C11 UNL     1      21.573  -0.715  53.515  1.00  0.00    -0.026 C 
HETATM   10  C12 UNL     1      20.511  -1.574  54.118  1.00  0.00     0.048 C 
HETATM   11  C13 UNL     1      22.796  -1.062  54.247  1.00  0.00     0.306 C 
HETATM   12  N3  UNL     1      23.958  -0.287  53.954  1.00  0.00     0.089 N 
HETATM   13  C14 UNL     1      24.993  -0.832  54.853  1.00  0.00     0.296 C 
HETATM   14  C15 UNL     1      26.278  -0.090  54.797  1.00  0.00     0.207 C 
HETATM   15  O3  UNL     1      26.859  -0.090  53.513  1.00  0.00    -0.329 OA
HETATM   16  H20 UNL     1      23.771   0.678  54.375  1.00  0.00     0.316 HD
ENDROOT
BRANCH   6  17
HETATM   17  N2  UNL     1      22.322   2.731  50.350  1.00  0.00    -0.393 N 
HETATM   18  H8  UNL     1      22.878   3.619  50.189  1.00  0.00     0.159 HD
BRANCH  17  19
HETATM   19  C7  UNL     1      21.073   2.414  49.712  1.00  0.00     0.134 C 
BRANCH  19  20
HETATM   20  C8  UNL     1      21.359   1.389  48.607  1.00  0.00     0.134 C 
HETATM   21 CL1  UNL     1      22.598   2.001  47.500  1.00  0.00    -0.129 Cl
ENDBRANCH  19  20
ENDBRANCH  17  19
ENDBRANCH   6  17
BRANCH   8  22
HETATM   22  O2  UNL     1      19.932   0.153  52.307  1.00  0.00    -0.364 OA
HETATM   23  H14 UNL     1      19.582   0.637  51.476  1.00  0.00     0.217 HD
ENDBRANCH   8  22
BRANCH   1  24
HETATM   24  O1  UNL     1      29.331   0.431  53.938  1.00  0.00    -0.336 OA
HETATM   25  C1  UNL     1      30.054  -0.762  53.782  1.00  0.00     0.212 C 
ENDBRANCH   1  24
TORSDOF 5
ENDMDL
MODEL 4
REMARK VINA RESULT:      -6.9      2.456      5.073
REMARK  5 active torsions:
REMARK  status: ('A' for Active; 'I' for Inactive)
REMARK    1  A    between atoms: O1_2  and  C2_3 
REMARK    2  A    between atoms: C6_8  and  N2_9 
REMARK    3  A    between atoms: N2_9  and  C7_10 
REMARK    4  A    between atoms: C7_10  and  C8_11 
REMARK    5  A    between atoms: C10_14  and  O2_15 
ROOT
HETATM    1  C2  UNL     1      23.338   3.792  49.002  1.00  0.00     0.181 C 
HETATM    2  C3  UNL     1      24.595   3.826  49.446  1.00  0.00     0.082 C 
HETATM    3  C4  UNL     1      25.373   3.309  50.556  1.00  0.00     0.115 C 
HETATM    4  N1  UNL     1      24.965   2.567  51.533  1.00  0.00    -0.296 NA
HETATM    5  C5  UNL     1      25.964   2.192  52.524  1.00  0.00     0.201 C 
HETATM    6  C6  UNL     1      25.519   1.170  53.485  1.00  0.00     0.014 C 
HETATM    7  C9  UNL     1      24.295   0.582  53.418  1.00  0.00     0.105 C 
HETATM    8  C10 UNL     1      23.639  -0.465  54.285  1.00  0.00     0.057 C 
HETATM    9  C11 UNL     1      22.403  -0.721  53.776  1.00  0.00    -0.026 C 
HETATM   10  C12 UNL     1      21.436  -1.697  54.362  1.00  0.00     0.048 C 
HETATM   11  C13 UNL     1      21.745  -0.225  52.563  1.00  0.00     0.306 C 
HETATM   12  N3  UNL     1      22.512   0.642  51.729  1.00  0.00     0.089 N 
HETATM   13  C14 UNL     1      21.618   0.936  50.593  1.00  0.00     0.296 C 
HETATM   14  C15 UNL     1      22.260   1.747  49.527  1.00  0.00     0.207 C 
HETATM   15  O3  UNL     1      22.709   3.002  49.985  1.00  0.00    -0.329 OA
HETATM   16  H20 UNL     1      23.259   0.021  51.281  1.00  0.00     0.316 HD
ENDROOT
BRANCH   6  17
HETATM   17  N2  UNL     1      26.738   1.115  54.316  1.00  0.00    -0.393 N 
HETATM   18  H8  UNL     1      26.884   2.020  54.848  1.00  0.00     0.159 HD
BRANCH  17  19
HETATM   19  C7  UNL     1      27.605  -0.030  54.381  1.00  0.00     0.134 C 
BRANCH  19  20
HETATM   20  C8  UNL     1      28.994   0.408  53.896  1.00  0.00     0.134 C 
HETATM   21 CL1  UNL     1      30.067  -0.992  53.746  1.00  0.00    -0.129 Cl
ENDBRANCH  19  20
ENDBRANCH  17  19
ENDBRANCH   6  17
BRANCH   8  22
HETATM   22  O2  UNL     1      23.742  -1.329  55.432  1.00  0.00    -0.364 OA
HETATM   23  H14 UNL     1      23.555  -0.908  56.346  1.00  0.00     0.217 HD
ENDBRANCH   8  22
BRANCH   1  24
HETATM   24  O1  UNL     1      22.906   4.417  47.858  1.00  0.00    -0.336 OA
HETATM   25  C1  UNL     1      22.708   5.804  47.771  1.00  0.00     0.212 C 
ENDBRANCH   1  24
TORSDOF 5
ENDMDL
MODEL 5
REMARK VINA RESULT:      -6.6      3.330      6.323
REMARK  5 active torsions:
REMARK  status: ('A' for Active; 'I' for Inactive)
REMARK    1  A    between atoms: O1_2  and  C2_3 
REMARK    2  A    between atoms: C6_8  and  N2_9 
REMARK    3  A    between atoms: N2_9  and  C7_10 
REMARK    4  A    between atoms: C7_10  and  C8_11 
REMARK    5  A    between atoms: C10_14  and  O2_15 
ROOT
HETATM    1  C2  UNL     1      26.829   0.207  54.339  1.00  0.00     0.181 C 
HETATM    2  C3  UNL     1      25.741  -0.554  54.474  1.00  0.00     0.082 C 
HETATM    3  C4  UNL     1      24.366  -0.581  54.011  1.00  0.00     0.115 C 
HETATM    4  N1  UNL     1      23.777   0.258  53.224  1.00  0.00    -0.296 NA
HETATM    5  C5  UNL     1      22.378  -0.007  52.922  1.00  0.00     0.201 C 
HETATM    6  C6  UNL     1      21.812   0.832  51.853  1.00  0.00     0.014 C 
HETATM    7  C9  UNL     1      22.552   1.741  51.164  1.00  0.00     0.105 C 
HETATM    8  C10 UNL     1      22.184   2.695  50.054  1.00  0.00     0.057 C 
HETATM    9  C11 UNL     1      23.304   3.384  49.701  1.00  0.00    -0.026 C 
HETATM   10  C12 UNL     1      23.347   4.432  48.638  1.00  0.00     0.048 C 
HETATM   11  C13 UNL     1      24.692   3.253  50.155  1.00  0.00     0.306 C 
HETATM   12  N3  UNL     1      24.962   2.214  51.095  1.00  0.00     0.089 N 
HETATM   13  C14 UNL     1      26.416   2.304  51.327  1.00  0.00     0.296 C 
HETATM   14  C15 UNL     1      26.944   1.228  52.203  1.00  0.00     0.207 C 
HETATM   15  O3  UNL     1      26.360   1.226  53.485  1.00  0.00    -0.329 OA
HETATM   16  H20 UNL     1      24.871   1.301  50.545  1.00  0.00     0.316 HD
ENDROOT
BRANCH   6  17
HETATM   17  N2  UNL     1      20.429   0.320  51.891  1.00  0.00    -0.393 N 
HETATM   18  H8  UNL     1      19.943   0.447  50.957  1.00  0.00     0.159 HD
BRANCH  17  19
HETATM   19  C7  UNL     1      19.830  -0.271  53.057  1.00  0.00     0.134 C 
BRANCH  19  20
HETATM   20  C8  UNL     1      18.408  -0.709  52.681  1.00  0.00     0.134 C 
HETATM   21 CL1  UNL     1      17.954  -2.168  53.576  1.00  0.00    -0.129 Cl
ENDBRANCH  19  20
ENDBRANCH  17  19
ENDBRANCH   6  17
BRANCH   8  22
HETATM   22  O2  UNL     1      21.156   3.209  49.187  1.00  0.00    -0.364 OA
HETATM   23  H14 UNL     1      20.944   4.208  49.262  1.00  0.00     0.217 HD
ENDBRANCH   8  22
BRANCH   1  24
HETATM   24  O1  UNL     1      28.034  -0.057  54.940  1.00  0.00    -0.336 OA
HETATM   25  C1  UNL     1      29.154  -0.528  54.237  1.00  0.00     0.212 C 
ENDBRANCH   1  24
TORSDOF 5
ENDMDL
MODEL 6
REMARK VINA RESULT:      -6.5      3.034      6.636
REMARK  5 active torsions:
REMARK  status: ('A' for Active; 'I' for Inactive)
REMARK    1  A    between atoms: O1_2  and  C2_3 
REMARK    2  A    between atoms: C6_8  and  N2_9 
REMARK    3  A    between atoms: N2_9  and  C7_10 
REMARK    4  A    between atoms: C7_10  and  C8_11 
REMARK    5  A    between atoms: C10_14  and  O2_15 
ROOT
HETATM    1  C2  UNL     1      27.460  -0.156  53.388  1.00  0.00     0.181 C 
HETATM    2  C3  UNL     1      27.691   1.039  52.843  1.00  0.00     0.082 C 
HETATM    3  C4  UNL     1      26.993   2.021  52.034  1.00  0.00     0.115 C 
HETATM    4  N1  UNL     1      25.783   1.963  51.583  1.00  0.00    -0.296 NA
HETATM    5  C5  UNL     1      25.332   3.094  50.787  1.00  0.00     0.201 C 
HETATM    6  C6  UNL     1      23.891   3.096  50.487  1.00  0.00     0.014 C 
HETATM    7  C9  UNL     1      23.040   2.149  50.964  1.00  0.00     0.105 C 
HETATM    8  C10 UNL     1      21.554   1.955  50.782  1.00  0.00     0.057 C 
HETATM    9  C11 UNL     1      21.183   0.852  51.487  1.00  0.00    -0.026 C 
HETATM   10  C12 UNL     1      19.787   0.324  51.550  1.00  0.00     0.048 C 
HETATM   11  C13 UNL     1      21.953  -0.018  52.381  1.00  0.00     0.306 C 
HETATM   12  N3  UNL     1      23.315   0.344  52.608  1.00  0.00     0.089 N 
HETATM   13  C14 UNL     1      23.806  -0.672  53.558  1.00  0.00     0.296 C 
HETATM   14  C15 UNL     1      25.193  -0.423  54.028  1.00  0.00     0.207 C 
HETATM   15  O3  UNL     1      26.134  -0.405  52.979  1.00  0.00    -0.329 OA
HETATM   16  H20 UNL     1      23.279   1.227  53.211  1.00  0.00     0.316 HD
ENDROOT
BRANCH   6  17
HETATM   17  N2  UNL     1      23.849   4.312  49.652  1.00  0.00    -0.393 N 
HETATM   18  H8  UNL     1      22.851   4.602  49.439  1.00  0.00     0.159 HD
BRANCH  17  19
HETATM   19  C7  UNL     1      25.023   5.004  49.193  1.00  0.00     0.134 C 
BRANCH  19  20
HETATM   20  C8  UNL     1      24.844   6.493  49.516  1.00  0.00     0.134 C 
HETATM   21 CL1  UNL     1      24.343   6.706  51.200  1.00  0.00    -0.129 Cl
ENDBRANCH  19  20
ENDBRANCH  17  19
ENDBRANCH   6  17
BRANCH   8  22
HETATM   22  O2  UNL     1      20.334   2.428  50.183  1.00  0.00    -0.364 OA
HETATM   23  H14 UNL     1      19.568   2.668  50.820  1.00  0.00     0.217 HD
ENDBRANCH   8  22
BRANCH   1  24
HETATM   24  O1  UNL     1      28.376  -0.854  54.135  1.00  0.00    -0.336 OA
HETATM   25  C1  UNL     1      29.722  -0.993  53.762  1.00  0.00     0.212 C 
ENDBRANCH   1  24
TORSDOF 5
ENDMDL
MODEL 7
REMARK VINA RESULT:      -6.5      2.624      5.783
REMARK  5 active torsions:
REMARK  status: ('A' for Active; 'I' for Inactive)
REMARK    1  A    between atoms: O1_2  and  C2_3 
REMARK    2  A    between atoms: C6_8  and  N2_9 
REMARK    3  A    between atoms: N2_9  and  C7_10 
REMARK    4  A    between atoms: C7_10  and  C8_11 
REMARK    5  A    between atoms: C10_14  and  O2_15 
ROOT
HETATM    1  C2  UNL     1      24.940   5.635  48.955  1.00  0.00     0.181 C 
HETATM    2  C3  UNL     1      26.077   4.948  49.080  1.00  0.00     0.082 C 
HETATM    3  C4  UNL     1      26.604   3.848  49.866  1.00  0.00     0.115 C 
HETATM    4  N1  UNL     1      25.995   3.157  50.773  1.00  0.00    -0.296 NA
HETATM    5  C5  UNL     1      26.767   2.103  51.414  1.00  0.00     0.201 C 
HETATM    6  C6  UNL     1      25.979   1.199  52.268  1.00  0.00     0.014 C 
HETATM    7  C9  UNL     1      24.630   1.305  52.401  1.00  0.00     0.105 C 
HETATM    8  C10 UNL     1      23.639   0.506  53.212  1.00  0.00     0.057 C 
HETATM    9  C11 UNL     1      22.398   1.015  52.983  1.00  0.00    -0.026 C 
HETATM   10  C12 UNL     1      21.146   0.498  53.613  1.00  0.00     0.048 C 
HETATM   11  C13 UNL     1      21.949   2.068  52.067  1.00  0.00     0.306 C 
HETATM   12  N3  UNL     1      22.945   2.655  51.230  1.00  0.00     0.089 N 
HETATM   13  C14 UNL     1      22.201   3.630  50.411  1.00  0.00     0.296 C 
HETATM   14  C15 UNL     1      23.033   4.291  49.374  1.00  0.00     0.207 C 
HETATM   15  O3  UNL     1      24.120   5.007  49.914  1.00  0.00    -0.329 OA
HETATM   16  H20 UNL     1      23.199   1.900  50.516  1.00  0.00     0.316 HD
ENDROOT
BRANCH   6  17
HETATM   17  N2  UNL     1      27.084   0.351  52.757  1.00  0.00    -0.393 N 
HETATM   18  H8  UNL     1      27.636  -0.067  51.954  1.00  0.00     0.159 HD
BRANCH  17  19
HETATM   19  C7  UNL     1      27.362   0.131  54.150  1.00  0.00     0.134 C 
BRANCH  19  20
HETATM   20  C8  UNL     1      28.825   0.520  54.402  1.00  0.00     0.134 C 
HETATM   21 CL1  UNL     1      29.068   2.247  54.095  1.00  0.00    -0.129 Cl
ENDBRANCH  19  20
ENDBRANCH  17  19
ENDBRANCH   6  17
BRANCH   8  22
HETATM   22  O2  UNL     1      23.420  -0.575  54.138  1.00  0.00    -0.364 OA
HETATM   23  H14 UNL     1      22.448  -0.796  54.370  1.00  0.00     0.217 HD
ENDBRANCH   8  22
BRANCH   1  24
HETATM   24  O1  UNL     1      24.758   6.671  48.073  1.00  0.00    -0.336 OA
HETATM   25  C1  UNL     1      23.934   7.773  48.345  1.00  0.00     0.212 C 
ENDBRANCH   1  24
TORSDOF 5
ENDMDL
MODEL 8
REMARK VINA RESULT:      -6.4      2.947      7.358
REMARK  5 active torsions:
REMARK  status: ('A' for Active; 'I' for Inactive)
REMARK    1  A    between atoms: O1_2  and  C2_3 
REMARK    2  A    between atoms: C6_8  and  N2_9 
REMARK    3  A    between atoms: N2_9  and  C7_10 
REMARK    4  A    between atoms: C7_10  and  C8_11 
REMARK    5  A    between atoms: C10_14  and  O2_15 
ROOT
HETATM    1  C2  UNL     1      26.069   3.123  50.004  1.00  0.00     0.181 C 
HETATM    2  C3  UNL     1      24.827   3.530  49.738  1.00  0.00     0.082 C 
HETATM    3  C4  UNL     1      23.465   3.175  50.088  1.00  0.00     0.115 C 
HETATM    4  N1  UNL     1      23.069   2.229  50.876  1.00  0.00    -0.296 NA
HETATM    5  C5  UNL     1      21.631   2.089  51.049  1.00  0.00     0.201 C 
HETATM    6  C6  UNL     1      21.231   1.161  52.119  1.00  0.00     0.014 C 
HETATM    7  C9  UNL     1      22.132   0.530  52.919  1.00  0.00     0.105 C 
HETATM    8  C10 UNL     1      21.949  -0.449  54.053  1.00  0.00     0.057 C 
HETATM    9  C11 UNL     1      23.180  -0.771  54.535  1.00  0.00    -0.026 C 
HETATM   10  C12 UNL     1      23.422  -1.724  55.660  1.00  0.00     0.048 C 
HETATM   11  C13 UNL     1      24.510  -0.260  54.185  1.00  0.00     0.306 C 
HETATM   12  N3  UNL     1      24.559   0.778  53.208  1.00  0.00     0.089 N 
HETATM   13  C14 UNL     1      25.993   1.105  53.097  1.00  0.00     0.296 C 
HETATM   14  C15 UNL     1      26.272   2.256  52.201  1.00  0.00     0.207 C 
HETATM   15  O3  UNL     1      25.834   2.043  50.879  1.00  0.00    -0.329 OA
HETATM   16  H20 UNL     1      24.160   1.645  53.691  1.00  0.00     0.316 HD
ENDROOT
BRANCH   6  17
HETATM   17  N2  UNL     1      19.768   1.248  51.941  1.00  0.00    -0.393 N 
HETATM   18  H8  UNL     1      19.341   1.965  52.595  1.00  0.00     0.159 HD
BRANCH  17  19
HETATM   19  C7  UNL     1      19.033   0.452  50.996  1.00  0.00     0.134 C 
BRANCH  19  20
HETATM   20  C8  UNL     1      17.773  -0.066  51.703  1.00  0.00     0.134 C 
HETATM   21 CL1  UNL     1      18.210  -1.187  53.002  1.00  0.00    -0.129 Cl
ENDBRANCH  19  20
ENDBRANCH  17  19
ENDBRANCH   6  17
BRANCH   8  22
HETATM   22  O2  UNL     1      21.035  -1.208  54.866  1.00  0.00    -0.364 OA
HETATM   23  H14 UNL     1      20.036  -1.078  54.683  1.00  0.00     0.217 HD
ENDBRANCH   8  22
BRANCH   1  24
HETATM   24  O1  UNL     1      27.200   3.703  49.486  1.00  0.00    -0.336 OA
HETATM   25  C1  UNL     1      27.186   4.923  48.791  1.00  0.00     0.212 C 
ENDBRANCH   1  24
TORSDOF 5
ENDMDL
MODEL 9
REMARK VINA RESULT:      -6.0      3.059      5.832
REMARK  5 active torsions:
REMARK  status: ('A' for Active; 'I' for Inactive)
REMARK    1  A    between atoms: O1_2  and  C2_3 
REMARK    2  A    between atoms: C6_8  and  N2_9 
REMARK    3  A    between atoms: N2_9  and  C7_10 
REMARK    4  A    between atoms: C7_10  and  C8_11 
REMARK    5  A    between atoms: C10_14  and  O2_15 
ROOT
HETATM    1  C2  UNL     1      21.762   3.616  48.448  1.00  0.00     0.181 C 
HETATM    2  C3  UNL     1      22.965   3.282  48.917  1.00  0.00     0.082 C 
HETATM    3  C4  UNL     1      23.534   2.528  50.018  1.00  0.00     0.115 C 
HETATM    4  N1  UNL     1      22.906   1.892  50.953  1.00  0.00    -0.296 NA
HETATM    5  C5  UNL     1      23.731   1.217  51.945  1.00  0.00     0.201 C 
HETATM    6  C6  UNL     1      22.990   0.324  52.851  1.00  0.00     0.014 C 
HETATM    7  C9  UNL     1      21.653   0.104  52.734  1.00  0.00     0.105 C 
HETATM    8  C10 UNL     1      20.706  -0.751  53.541  1.00  0.00     0.057 C 
HETATM    9  C11 UNL     1      19.464  -0.632  52.998  1.00  0.00    -0.026 C 
HETATM   10  C12 UNL     1      18.247  -1.321  53.522  1.00  0.00     0.048 C 
HETATM   11  C13 UNL     1      19.007   0.073  51.796  1.00  0.00     0.306 C 
HETATM   12  N3  UNL     1      20.010   0.722  51.016  1.00  0.00     0.089 N 
HETATM   13  C14 UNL     1      19.269   1.296  49.877  1.00  0.00     0.296 C 
HETATM   14  C15 UNL     1      20.143   1.935  48.861  1.00  0.00     0.207 C 
HETATM   15  O3  UNL     1      20.908   2.997  49.383  1.00  0.00    -0.329 OA
HETATM   16  H20 UNL     1      20.568  -0.066  50.555  1.00  0.00     0.316 HD
ENDROOT
BRANCH   6  17
HETATM   17  N2  UNL     1      24.119  -0.099  53.701  1.00  0.00    -0.393 N 
HETATM   18  H8  UNL     1      23.853  -0.921  54.318  1.00  0.00     0.159 HD
BRANCH  17  19
HETATM   19  C7  UNL     1      25.410   0.534  53.685  1.00  0.00     0.134 C 
BRANCH  19  20
HETATM   20  C8  UNL     1      26.211  -0.008  54.876  1.00  0.00     0.134 C 
HETATM   21 CL1  UNL     1      25.168  -0.961  55.942  1.00  0.00    -0.129 Cl
ENDBRANCH  19  20
ENDBRANCH  17  19
ENDBRANCH   6  17
BRANCH   8  22
HETATM   22  O2  UNL     1      20.530  -1.651  54.651  1.00  0.00    -0.364 OA
HETATM   23  H14 UNL     1      19.961  -2.486  54.484  1.00  0.00     0.217 HD
ENDBRANCH   8  22
BRANCH   1  24
HETATM   24  O1  UNL     1      21.556   4.379  47.325  1.00  0.00    -0.336 OA
HETATM   25  C1  UNL     1      21.790   3.907  46.024  1.00  0.00     0.212 C 
ENDBRANCH   1  24
TORSDOF 5
ENDMDL
