MODEL 1
REMARK VINA RESULT:      -6.6      0.000      0.000
REMARK  6 active torsions:
REMARK  status: ('A' for Active; 'I' for Inactive)
REMARK    1  A    between atoms: C2_2  and  N1_3 
REMARK    2  A    between atoms: N1_3  and  C3_4 
REMARK    3  A    between atoms: C4_5  and  C5_6 
REMARK    4  A    between atoms: C6_7  and  C7_8 
REMARK    5  A    between atoms: C8_9  and  C9_10 
REMARK    6  A    between atoms: C9_10  and  N2_11 
ROOT
HETATM    1  C7  UNL     1      24.118   3.667  50.310  1.00  0.00    -0.017 A 
HETATM    2  C8  UNL     1      25.462   3.676  50.391  1.00  0.00     0.033 A 
HETATM    3  N4  UNL     1      25.376   5.057  50.698  1.00  0.00    -0.387 N 
HETATM    4  C16 UNL     1      23.930   5.106  50.624  1.00  0.00     0.160 A 
HETATM    5  H20 UNL     1      26.126   5.770  50.903  1.00  0.00     0.159 HD
ENDROOT
BRANCH   2   6
HETATM    6  C9  UNL     1      26.560   2.690  50.233  1.00  0.00     0.206 C 
BRANCH   6   7
HETATM    7  N2  UNL     1      27.194   2.456  51.512  1.00  0.00    -0.286 NA
HETATM    8  C10 UNL     1      26.858   1.557  52.337  1.00  0.00     0.057 A 
HETATM    9  C11 UNL     1      25.770   0.598  52.143  1.00  0.00     0.089 A 
HETATM   10  C14 UNL     1      27.696   1.568  53.557  1.00  0.00     0.054 A 
HETATM   11  C12 UNL     1      25.715  -0.280  53.351  1.00  0.00    -0.001 A 
HETATM   12  C13 UNL     1      26.498  -0.220  54.417  1.00  0.00     0.113 A 
HETATM   13  N3  UNL     1      27.547   0.746  54.546  1.00  0.00    -0.264 NA
HETATM   14  C15 UNL     1      28.820   2.543  53.779  1.00  0.00     0.072 C 
ENDBRANCH   6   7
ENDBRANCH   2   6
BRANCH   1  15
HETATM   15  C6  UNL     1      23.193   2.553  50.005  1.00  0.00     0.011 C 
HETATM   16  C5  UNL     1      22.559   1.823  50.910  1.00  0.00     0.002 C 
BRANCH  16  17
HETATM   17  C4  UNL     1      22.502   1.800  52.357  1.00  0.00     0.017 C 
HETATM   18  C3  UNL     1      22.122   0.862  53.241  1.00  0.00     0.083 C 
BRANCH  18  19
HETATM   19  N1  UNL     1      21.677  -0.374  52.708  1.00  0.00    -0.399 N 
HETATM   20  H6  UNL     1      21.602  -0.639  51.700  1.00  0.00     0.158 HD
BRANCH  19  21
HETATM   21  C2  UNL     1      21.343  -1.200  53.868  1.00  0.00     0.114 C 
HETATM   22  C1  UNL     1      22.387  -1.008  54.945  1.00  0.00     0.026 C 
ENDBRANCH  19  21
ENDBRANCH  18  19
ENDBRANCH  16  17
ENDBRANCH   1  15
TORSDOF 6
ENDMDL
MODEL 2
REMARK VINA RESULT:      -6.6      2.468      4.979
REMARK  6 active torsions:
REMARK  status: ('A' for Active; 'I' for Inactive)
REMARK    1  A    between atoms: C2_2  and  N1_3 
REMARK    2  A    between atoms: N1_3  and  C3_4 
REMARK    3  A    between atoms: C4_5  and  C5_6 
REMARK    4  A    between atoms: C6_7  and  C7_8 
REMARK    5  A    between atoms: C8_9  and  C9_10 
REMARK    6  A    between atoms: C9_10  and  N2_11 
ROOT
HETATM    1  C7  UNL     1      25.147   3.160  50.027  1.00  0.00    -0.017 A 
HETATM    2  C8  UNL     1      24.522   2.826  51.172  1.00  0.00     0.033 A 
HETATM    3  N4  UNL     1      23.302   2.871  50.451  1.00  0.00    -0.387 N 
HETATM    4  C16 UNL     1      23.921   3.233  49.193  1.00  0.00     0.160 A 
HETATM    5  H20 UNL     1      22.309   2.697  50.759  1.00  0.00     0.159 HD
ENDROOT
BRANCH   2   6
HETATM    6  C9  UNL     1      24.918   2.535  52.572  1.00  0.00     0.206 C 
BRANCH   6   7
HETATM    7  N2  UNL     1      25.686   1.310  52.619  1.00  0.00    -0.286 NA
HETATM    8  C10 UNL     1      26.879   1.215  53.032  1.00  0.00     0.057 A 
HETATM    9  C11 UNL     1      27.689   2.326  53.534  1.00  0.00     0.089 A 
HETATM   10  C14 UNL     1      27.395  -0.170  52.956  1.00  0.00     0.054 A 
HETATM   11  C12 UNL     1      29.027   1.780  53.914  1.00  0.00    -0.001 A 
HETATM   12  C13 UNL     1      29.431   0.522  53.822  1.00  0.00     0.113 A 
HETATM   13  N3  UNL     1      28.587  -0.520  53.320  1.00  0.00    -0.264 NA
HETATM   14  C15 UNL     1      26.582  -1.328  52.445  1.00  0.00     0.072 C 
ENDBRANCH   6   7
ENDBRANCH   2   6
BRANCH   1  15
HETATM   15  C6  UNL     1      26.586   3.370  49.758  1.00  0.00     0.011 C 
HETATM   16  C5  UNL     1      27.098   4.426  49.143  1.00  0.00     0.002 C 
BRANCH  16  17
HETATM   17  C4  UNL     1      26.559   5.639  48.562  1.00  0.00     0.017 C 
HETATM   18  C3  UNL     1      26.059   6.765  49.099  1.00  0.00     0.083 C 
BRANCH  18  19
HETATM   19  N1  UNL     1      26.028   6.838  50.514  1.00  0.00    -0.399 N 
HETATM   20  H6  UNL     1      26.752   6.491  51.182  1.00  0.00     0.158 HD
BRANCH  19  21
HETATM   21  C2  UNL     1      24.766   7.500  50.841  1.00  0.00     0.114 C 
HETATM   22  C1  UNL     1      23.685   6.462  51.045  1.00  0.00     0.026 C 
ENDBRANCH  19  21
ENDBRANCH  18  19
ENDBRANCH  16  17
ENDBRANCH   1  15
TORSDOF 6
ENDMDL
MODEL 3
REMARK VINA RESULT:      -6.6      1.452      2.128
REMARK  6 active torsions:
REMARK  status: ('A' for Active; 'I' for Inactive)
REMARK    1  A    between atoms: C2_2  and  N1_3 
REMARK    2  A    between atoms: N1_3  and  C3_4 
REMARK    3  A    between atoms: C4_5  and  C5_6 
REMARK    4  A    between atoms: C6_7  and  C7_8 
REMARK    5  A    between atoms: C8_9  and  C9_10 
REMARK    6  A    between atoms: C9_10  and  N2_11 
ROOT
HETATM    1  C7  UNL     1      23.525   2.861  51.275  1.00  0.00    -0.017 A 
HETATM    2  C8  UNL     1      24.811   3.076  51.610  1.00  0.00     0.033 A 
HETATM    3  N4  UNL     1      24.341   3.959  52.614  1.00  0.00    -0.387 N 
HETATM    4  C16 UNL     1      22.941   3.766  52.297  1.00  0.00     0.160 A 
HETATM    5  H20 UNL     1      24.860   4.538  53.326  1.00  0.00     0.159 HD
ENDROOT
BRANCH   2   6
HETATM    6  C9  UNL     1      26.141   2.608  51.146  1.00  0.00     0.206 C 
BRANCH   6   7
HETATM    7  N2  UNL     1      26.441   1.323  51.740  1.00  0.00    -0.286 NA
HETATM    8  C10 UNL     1      27.296   1.125  52.653  1.00  0.00     0.057 A 
HETATM    9  C11 UNL     1      28.129   2.160  53.266  1.00  0.00     0.089 A 
HETATM   10  C14 UNL     1      27.376  -0.297  53.053  1.00  0.00     0.054 A 
HETATM   11  C12 UNL     1      28.994   1.501  54.292  1.00  0.00    -0.001 A 
HETATM   12  C13 UNL     1      29.018   0.215  54.607  1.00  0.00     0.113 A 
HETATM   13  N3  UNL     1      28.175  -0.749  53.966  1.00  0.00    -0.264 NA
HETATM   14  C15 UNL     1      26.530  -1.378  52.438  1.00  0.00     0.072 C 
ENDBRANCH   6   7
ENDBRANCH   2   6
BRANCH   1  15
HETATM   15  C6  UNL     1      22.951   1.994  50.223  1.00  0.00     0.011 C 
HETATM   16  C5  UNL     1      21.962   1.132  50.404  1.00  0.00     0.002 C 
BRANCH  16  17
HETATM   17  C4  UNL     1      21.142   0.730  51.529  1.00  0.00     0.017 C 
HETATM   18  C3  UNL     1      21.376  -0.058  52.593  1.00  0.00     0.083 C 
BRANCH  18  19
HETATM   19  N1  UNL     1      22.665  -0.639  52.686  1.00  0.00    -0.399 N 
HETATM   20  H6  UNL     1      23.267  -0.973  51.900  1.00  0.00     0.158 HD
BRANCH  19  21
HETATM   21  C2  UNL     1      22.974  -0.673  54.115  1.00  0.00     0.114 C 
HETATM   22  C1  UNL     1      21.690  -0.729  54.911  1.00  0.00     0.026 C 
ENDBRANCH  19  21
ENDBRANCH  18  19
ENDBRANCH  16  17
ENDBRANCH   1  15
TORSDOF 6
ENDMDL
MODEL 4
REMARK VINA RESULT:      -6.4      1.806      5.874
REMARK  6 active torsions:
REMARK  status: ('A' for Active; 'I' for Inactive)
REMARK    1  A    between atoms: C2_2  and  N1_3 
REMARK    2  A    between atoms: N1_3  and  C3_4 
REMARK    3  A    between atoms: C4_5  and  C5_6 
REMARK    4  A    between atoms: C6_7  and  C7_8 
REMARK    5  A    between atoms: C8_9  and  C9_10 
REMARK    6  A    between atoms: C9_10  and  N2_11 
ROOT
HETATM    1  C7  UNL     1      22.647  -0.494  53.782  1.00  0.00    -0.017 A 
HETATM    2  C8  UNL     1      21.547   0.280  53.714  1.00  0.00     0.033 A 
HETATM    3  N4  UNL     1      21.176  -0.238  54.980  1.00  0.00    -0.387 N 
HETATM    4  C16 UNL     1      22.340  -1.090  55.107  1.00  0.00     0.160 A 
HETATM    5  H20 UNL     1      20.336  -0.045  55.589  1.00  0.00     0.159 HD
ENDROOT
BRANCH   2   6
HETATM    6  C9  UNL     1      20.966   1.248  52.751  1.00  0.00     0.206 C 
BRANCH   6   7
HETATM    7  N2  UNL     1      21.896   2.335  52.529  1.00  0.00    -0.286 NA
HETATM    8  C10 UNL     1      22.438   2.613  51.420  1.00  0.00     0.057 A 
HETATM    9  C11 UNL     1      22.220   1.886  50.169  1.00  0.00     0.089 A 
HETATM   10  C14 UNL     1      23.343   3.781  51.510  1.00  0.00     0.054 A 
HETATM   11  C12 UNL     1      23.047   2.542  49.110  1.00  0.00    -0.001 A 
HETATM   12  C13 UNL     1      23.842   3.591  49.255  1.00  0.00     0.113 A 
HETATM   13  N3  UNL     1      24.012   4.258  50.510  1.00  0.00    -0.264 NA
HETATM   14  C15 UNL     1      23.583   4.543  52.784  1.00  0.00     0.072 C 
ENDBRANCH   6   7
ENDBRANCH   2   6
BRANCH   1  15
HETATM   15  C6  UNL     1      23.758  -0.651  52.817  1.00  0.00     0.011 C 
HETATM   16  C5  UNL     1      24.912  -0.003  52.876  1.00  0.00     0.002 C 
BRANCH  16  17
HETATM   17  C4  UNL     1      25.495   0.981  53.765  1.00  0.00     0.017 C 
HETATM   18  C3  UNL     1      26.522   0.934  54.630  1.00  0.00     0.083 C 
BRANCH  18  19
HETATM   19  N1  UNL     1      27.211  -0.300  54.737  1.00  0.00    -0.399 N 
HETATM   20  H6  UNL     1      26.792  -1.255  54.807  1.00  0.00     0.158 HD
BRANCH  19  21
HETATM   21  C2  UNL     1      28.632   0.045  54.730  1.00  0.00     0.114 C 
HETATM   22  C1  UNL     1      29.336  -0.728  53.638  1.00  0.00     0.026 C 
ENDBRANCH  19  21
ENDBRANCH  18  19
ENDBRANCH  16  17
ENDBRANCH   1  15
TORSDOF 6
ENDMDL
MODEL 5
REMARK VINA RESULT:      -6.2      1.538      4.809
REMARK  6 active torsions:
REMARK  status: ('A' for Active; 'I' for Inactive)
REMARK    1  A    between atoms: C2_2  and  N1_3 
REMARK    2  A    between atoms: N1_3  and  C3_4 
REMARK    3  A    between atoms: C4_5  and  C5_6 
REMARK    4  A    between atoms: C6_7  and  C7_8 
REMARK    5  A    between atoms: C8_9  and  C9_10 
REMARK    6  A    between atoms: C9_10  and  N2_11 
ROOT
HETATM    1  C7  UNL     1      22.693   0.312  52.887  1.00  0.00    -0.017 A 
HETATM    2  C8  UNL     1      23.583  -0.460  53.539  1.00  0.00     0.033 A 
HETATM    3  N4  UNL     1      22.574  -0.706  54.504  1.00  0.00    -0.387 N 
HETATM    4  C16 UNL     1      21.576   0.111  53.845  1.00  0.00     0.160 A 
HETATM    5  H20 UNL     1      22.582  -1.289  55.383  1.00  0.00     0.159 HD
ENDROOT
BRANCH   2   6
HETATM    6  C9  UNL     1      24.994  -0.877  53.349  1.00  0.00     0.206 C 
BRANCH   6   7
HETATM    7  N2  UNL     1      25.770   0.236  52.847  1.00  0.00    -0.286 NA
HETATM    8  C10 UNL     1      26.858   0.649  53.346  1.00  0.00     0.057 A 
HETATM    9  C11 UNL     1      27.521   0.073  54.516  1.00  0.00     0.089 A 
HETATM   10  C14 UNL     1      27.414   1.806  52.610  1.00  0.00     0.054 A 
HETATM   11  C12 UNL     1      28.769   0.856  54.765  1.00  0.00    -0.001 A 
HETATM   12  C13 UNL     1      29.216   1.888  54.066  1.00  0.00     0.113 A 
HETATM   13  N3  UNL     1      28.517   2.405  52.928  1.00  0.00    -0.264 NA
HETATM   14  C15 UNL     1      26.751   2.415  51.405  1.00  0.00     0.072 C 
ENDBRANCH   6   7
ENDBRANCH   2   6
BRANCH   1  15
HETATM   15  C6  UNL     1      22.844   1.079  51.631  1.00  0.00     0.011 C 
HETATM   16  C5  UNL     1      22.932   2.399  51.553  1.00  0.00     0.002 C 
BRANCH  16  17
HETATM   17  C4  UNL     1      22.922   3.488  52.508  1.00  0.00     0.017 C 
HETATM   18  C3  UNL     1      23.519   4.692  52.525  1.00  0.00     0.083 C 
BRANCH  18  19
HETATM   19  N1  UNL     1      24.334   5.017  51.412  1.00  0.00    -0.399 N 
HETATM   20  H6  UNL     1      25.047   4.408  50.951  1.00  0.00     0.158 HD
BRANCH  19  21
HETATM   21  C2  UNL     1      23.966   6.384  51.046  1.00  0.00     0.114 C 
HETATM   22  C1  UNL     1      25.189   7.123  50.551  1.00  0.00     0.026 C 
ENDBRANCH  19  21
ENDBRANCH  18  19
ENDBRANCH  16  17
ENDBRANCH   1  15
TORSDOF 6
ENDMDL
MODEL 6
REMARK VINA RESULT:      -6.2      2.001      3.143
REMARK  6 active torsions:
REMARK  status: ('A' for Active; 'I' for Inactive)
REMARK    1  A    between atoms: C2_2  and  N1_3 
REMARK    2  A    between atoms: N1_3  and  C3_4 
REMARK    3  A    between atoms: C4_5  and  C5_6 
REMARK    4  A    between atoms: C6_7  and  C7_8 
REMARK    5  A    between atoms: C8_9  and  C9_10 
REMARK    6  A    between atoms: C9_10  and  N2_11 
ROOT
HETATM    1  C7  UNL     1      23.613   2.642  51.863  1.00  0.00    -0.017 A 
HETATM    2  C8  UNL     1      24.769   3.173  51.424  1.00  0.00     0.033 A 
HETATM    3  N4  UNL     1      24.273   4.439  51.827  1.00  0.00    -0.387 N 
HETATM    4  C16 UNL     1      23.011   3.923  52.315  1.00  0.00     0.160 A 
HETATM    5  H20 UNL     1      24.703   5.401  51.775  1.00  0.00     0.159 HD
ENDROOT
BRANCH   2   6
HETATM    6  C9  UNL     1      26.017   2.673  50.796  1.00  0.00     0.206 C 
BRANCH   6   7
HETATM    7  N2  UNL     1      26.999   2.386  51.819  1.00  0.00    -0.286 NA
HETATM    8  C10 UNL     1      27.243   1.237  52.290  1.00  0.00     0.057 A 
HETATM    9  C11 UNL     1      26.578  -0.001  51.882  1.00  0.00     0.089 A 
HETATM   10  C14 UNL     1      28.300   1.264  53.325  1.00  0.00     0.054 A 
HETATM   11  C12 UNL     1      27.164  -1.119  52.682  1.00  0.00    -0.001 A 
HETATM   12  C13 UNL     1      28.115  -1.030  53.600  1.00  0.00     0.113 A 
HETATM   13  N3  UNL     1      28.726   0.215  53.954  1.00  0.00    -0.264 NA
HETATM   14  C15 UNL     1      28.999   2.523  53.761  1.00  0.00     0.072 C 
ENDBRANCH   6   7
ENDBRANCH   2   6
BRANCH   1  15
HETATM   15  C6  UNL     1      23.155   1.236  51.866  1.00  0.00     0.011 C 
HETATM   16  C5  UNL     1      22.046   0.797  51.291  1.00  0.00     0.002 C 
BRANCH  16  17
HETATM   17  C4  UNL     1      20.971   1.404  50.531  1.00  0.00     0.017 C 
HETATM   18  C3  UNL     1      20.821   1.683  49.225  1.00  0.00     0.083 C 
BRANCH  18  19
HETATM   19  N1  UNL     1      21.898   1.336  48.371  1.00  0.00    -0.399 N 
HETATM   20  H6  UNL     1      22.421   0.432  48.346  1.00  0.00     0.158 HD
BRANCH  19  21
HETATM   21  C2  UNL     1      22.121   2.512  47.531  1.00  0.00     0.114 C 
HETATM   22  C1  UNL     1      22.824   3.583  48.334  1.00  0.00     0.026 C 
ENDBRANCH  19  21
ENDBRANCH  18  19
ENDBRANCH  16  17
ENDBRANCH   1  15
TORSDOF 6
ENDMDL
MODEL 7
REMARK VINA RESULT:      -6.2      1.580      5.603
REMARK  6 active torsions:
REMARK  status: ('A' for Active; 'I' for Inactive)
REMARK    1  A    between atoms: C2_2  and  N1_3 
REMARK    2  A    between atoms: N1_3  and  C3_4 
REMARK    3  A    between atoms: C4_5  and  C5_6 
REMARK    4  A    between atoms: C6_7  and  C7_8 
REMARK    5  A    between atoms: C8_9  and  C9_10 
REMARK    6  A    between atoms: C9_10  and  N2_11 
ROOT
HETATM    1  C7  UNL     1      23.534   0.981  52.745  1.00  0.00    -0.017 A 
HETATM    2  C8  UNL     1      22.697   1.084  51.696  1.00  0.00     0.033 A 
HETATM    3  N4  UNL     1      22.053  -0.087  52.169  1.00  0.00    -0.387 N 
HETATM    4  C16 UNL     1      22.924  -0.247  53.315  1.00  0.00     0.160 A 
HETATM    5  H20 UNL     1      21.228  -0.625  51.792  1.00  0.00     0.159 HD
ENDROOT
BRANCH   2   6
HETATM    6  C9  UNL     1      22.514   2.004  50.546  1.00  0.00     0.206 C 
BRANCH   6   7
HETATM    7  N2  UNL     1      23.763   2.675  50.253  1.00  0.00    -0.286 NA
HETATM    8  C10 UNL     1      23.961   3.921  50.359  1.00  0.00     0.057 A 
HETATM    9  C11 UNL     1      22.965   4.900  50.794  1.00  0.00     0.089 A 
HETATM   10  C14 UNL     1      25.341   4.306  49.987  1.00  0.00     0.054 A 
HETATM   11  C12 UNL     1      23.611   6.247  50.776  1.00  0.00    -0.001 A 
HETATM   12  C13 UNL     1      24.859   6.529  50.432  1.00  0.00     0.113 A 
HETATM   13  N3  UNL     1      25.786   5.521  50.012  1.00  0.00    -0.264 NA
HETATM   14  C15 UNL     1      26.382   3.318  49.536  1.00  0.00     0.072 C 
ENDBRANCH   6   7
ENDBRANCH   2   6
BRANCH   1  15
HETATM   15  C6  UNL     1      24.669   1.843  53.141  1.00  0.00     0.011 C 
HETATM   16  C5  UNL     1      25.946   1.568  52.920  1.00  0.00     0.002 C 
BRANCH  16  17
HETATM   17  C4  UNL     1      26.670   0.481  52.294  1.00  0.00     0.017 C 
HETATM   18  C3  UNL     1      27.410  -0.527  52.788  1.00  0.00     0.083 C 
BRANCH  18  19
HETATM   19  N1  UNL     1      27.545  -0.588  54.197  1.00  0.00    -0.399 N 
HETATM   20  H6  UNL     1      26.824  -0.894  54.890  1.00  0.00     0.158 HD
BRANCH  19  21
HETATM   21  C2  UNL     1      28.906  -0.133  54.478  1.00  0.00     0.114 C 
HETATM   22  C1  UNL     1      29.882  -0.876  53.594  1.00  0.00     0.026 C 
ENDBRANCH  19  21
ENDBRANCH  18  19
ENDBRANCH  16  17
ENDBRANCH   1  15
TORSDOF 6
ENDMDL
MODEL 8
REMARK VINA RESULT:      -6.1      1.969      5.721
REMARK  6 active torsions:
REMARK  status: ('A' for Active; 'I' for Inactive)
REMARK    1  A    between atoms: C2_2  and  N1_3 
REMARK    2  A    between atoms: N1_3  and  C3_4 
REMARK    3  A    between atoms: C4_5  and  C5_6 
REMARK    4  A    between atoms: C6_7  and  C7_8 
REMARK    5  A    between atoms: C8_9  and  C9_10 
REMARK    6  A    between atoms: C9_10  and  N2_11 
ROOT
HETATM    1  C7  UNL     1      25.535   2.215  51.985  1.00  0.00    -0.017 A 
HETATM    2  C8  UNL     1      25.103   3.274  51.275  1.00  0.00     0.033 A 
HETATM    3  N4  UNL     1      26.452   3.502  50.906  1.00  0.00    -0.387 N 
HETATM    4  C16 UNL     1      26.973   2.376  51.652  1.00  0.00     0.160 A 
HETATM    5  H20 UNL     1      26.888   4.245  50.296  1.00  0.00     0.159 HD
ENDROOT
BRANCH   2   6
HETATM    6  C9  UNL     1      23.800   3.926  50.993  1.00  0.00     0.206 C 
BRANCH   6   7
HETATM    7  N2  UNL     1      22.909   2.983  50.354  1.00  0.00    -0.286 NA
HETATM    8  C10 UNL     1      21.869   2.492  50.883  1.00  0.00     0.057 A 
HETATM    9  C11 UNL     1      21.386   2.792  52.231  1.00  0.00     0.089 A 
HETATM   10  C14 UNL     1      21.165   1.554  49.979  1.00  0.00     0.054 A 
HETATM   11  C12 UNL     1      20.136   2.004  52.453  1.00  0.00    -0.001 A 
HETATM   12  C13 UNL     1      19.551   1.177  51.600  1.00  0.00     0.113 A 
HETATM   13  N3  UNL     1      20.077   0.926  50.292  1.00  0.00    -0.264 NA
HETATM   14  C15 UNL     1      21.641   1.230  48.590  1.00  0.00     0.072 C 
ENDBRANCH   6   7
ENDBRANCH   2   6
BRANCH   1  15
HETATM   15  C6  UNL     1      24.773   1.248  52.806  1.00  0.00     0.011 C 
HETATM   16  C5  UNL     1      25.124  -0.011  53.019  1.00  0.00     0.002 C 
BRANCH  16  17
HETATM   17  C4  UNL     1      26.229  -0.854  52.609  1.00  0.00     0.017 C 
HETATM   18  C3  UNL     1      27.422  -1.129  53.163  1.00  0.00     0.083 C 
BRANCH  18  19
HETATM   19  N1  UNL     1      27.713  -0.497  54.398  1.00  0.00    -0.399 N 
HETATM   20  H6  UNL     1      27.152  -0.538  55.278  1.00  0.00     0.158 HD
BRANCH  19  21
HETATM   21  C2  UNL     1      28.965   0.226  54.178  1.00  0.00     0.114 C 
HETATM   22  C1  UNL     1      29.981  -0.698  53.546  1.00  0.00     0.026 C 
ENDBRANCH  19  21
ENDBRANCH  18  19
ENDBRANCH  16  17
ENDBRANCH   1  15
TORSDOF 6
ENDMDL
MODEL 9
REMARK VINA RESULT:      -6.1      1.552      4.769
REMARK  6 active torsions:
REMARK  status: ('A' for Active; 'I' for Inactive)
REMARK    1  A    between atoms: C2_2  and  N1_3 
REMARK    2  A    between atoms: N1_3  and  C3_4 
REMARK    3  A    between atoms: C4_5  and  C5_6 
REMARK    4  A    between atoms: C6_7  and  C7_8 
REMARK    5  A    between atoms: C8_9  and  C9_10 
REMARK    6  A    between atoms: C9_10  and  N2_11 
ROOT
HETATM    1  C7  UNL     1      24.748   3.685  50.613  1.00  0.00    -0.017 A 
HETATM    2  C8  UNL     1      23.491   3.205  50.668  1.00  0.00     0.033 A 
HETATM    3  N4  UNL     1      23.056   4.534  50.899  1.00  0.00    -0.387 N 
HETATM    4  C16 UNL     1      24.386   5.106  50.851  1.00  0.00     0.160 A 
HETATM    5  H20 UNL     1      22.090   4.931  51.050  1.00  0.00     0.159 HD
ENDROOT
BRANCH   2   6
HETATM    6  C9  UNL     1      22.835   1.880  50.544  1.00  0.00     0.206 C 
BRANCH   6   7
HETATM    7  N2  UNL     1      23.289   1.008  51.606  1.00  0.00    -0.286 NA
HETATM    8  C10 UNL     1      22.583   0.626  52.585  1.00  0.00     0.057 A 
HETATM    9  C11 UNL     1      21.186   0.996  52.813  1.00  0.00     0.089 A 
HETATM   10  C14 UNL     1      23.328  -0.261  53.506  1.00  0.00     0.054 A 
HETATM   11  C12 UNL     1      20.738   0.331  54.074  1.00  0.00    -0.001 A 
HETATM   12  C13 UNL     1      21.456  -0.457  54.859  1.00  0.00     0.113 A 
HETATM   13  N3  UNL     1      22.822  -0.781  54.579  1.00  0.00    -0.264 NA
HETATM   14  C15 UNL     1      24.763  -0.656  53.293  1.00  0.00     0.072 C 
ENDBRANCH   6   7
ENDBRANCH   2   6
BRANCH   1  15
HETATM   15  C6  UNL     1      26.025   2.975  50.386  1.00  0.00     0.011 C 
HETATM   16  C5  UNL     1      26.759   2.409  51.332  1.00  0.00     0.002 C 
BRANCH  16  17
HETATM   17  C4  UNL     1      26.647   2.262  52.769  1.00  0.00     0.017 C 
HETATM   18  C3  UNL     1      27.473   1.756  53.702  1.00  0.00     0.083 C 
BRANCH  18  19
HETATM   19  N1  UNL     1      28.717   1.251  53.247  1.00  0.00    -0.399 N 
HETATM   20  H6  UNL     1      29.212   1.493  52.359  1.00  0.00     0.158 HD
BRANCH  19  21
HETATM   21  C2  UNL     1      29.160   0.320  54.283  1.00  0.00     0.114 C 
HETATM   22  C1  UNL     1      29.775  -0.902  53.638  1.00  0.00     0.026 C 
ENDBRANCH  19  21
ENDBRANCH  18  19
ENDBRANCH  16  17
ENDBRANCH   1  15
TORSDOF 6
ENDMDL
