MODEL 1
REMARK VINA RESULT:      -9.4      0.000      0.000
REMARK  4 active torsions:
REMARK  status: ('A' for Active; 'I' for Inactive)
REMARK    1  A    between atoms: C1_2  and  C2_3 
REMARK    2  A    between atoms: C2_3  and  C3_4 
REMARK    3  A    between atoms: C9_10  and  C10_11 
REMARK    4  A    between atoms: C20_22  and  O2_23 
ROOT
HETATM    1  C3  UNL     1      22.133   4.040  51.969  1.00  0.00     0.012 C 
HETATM    2  C4  UNL     1      23.279   3.499  52.448  1.00  0.00     0.036 C 
HETATM    3  C5  UNL     1      23.594   2.161  52.863  1.00  0.00    -0.033 A 
HETATM    4  C6  UNL     1      23.011   0.949  53.192  1.00  0.00     0.019 A 
HETATM    5  C7  UNL     1      23.139  -0.357  53.582  1.00  0.00    -0.053 A 
HETATM    6  C8  UNL     1      24.494  -0.496  53.690  1.00  0.00     0.021 A 
HETATM    7  C9  UNL     1      25.332   0.562  53.419  1.00  0.00    -0.006 A 
HETATM    8  C15 UNL     1      24.935   1.821  53.028  1.00  0.00     0.025 A 
HETATM    9  C16 UNL     1      21.765  -1.045  53.703  1.00  0.00     0.065 C 
HETATM   10  C17 UNL     1      20.926   0.191  53.968  1.00  0.00    -0.022 C 
HETATM   11  C18 UNL     1      20.630   0.499  52.735  1.00  0.00    -0.001 C 
HETATM   12  C19 UNL     1      20.504   0.514  51.305  1.00  0.00     0.033 C 
HETATM   13  C20 UNL     1      19.996   1.481  50.575  1.00  0.00     0.060 C 
HETATM   14  C21 UNL     1      19.591   2.644  51.454  1.00  0.00     0.183 C 
HETATM   15  N2  UNL     1      20.879   3.350  51.717  1.00  0.00    -0.387 N 
HETATM   16  H20 UNL     1      20.902   3.382  52.791  1.00  0.00     0.159 HD
ENDROOT
BRANCH   7  17
HETATM   17  C10 UNL     1      26.733   0.170  53.615  1.00  0.00     0.066 A 
HETATM   18  C11 UNL     1      27.228  -0.906  52.887  1.00  0.00     0.032 A 
HETATM   19  C12 UNL     1      28.533  -1.186  53.176  1.00  0.00     0.004 A 
HETATM   20  C13 UNL     1      29.429  -0.616  54.035  1.00  0.00     0.019 A 
HETATM   21  C14 UNL     1      28.825   0.454  54.714  1.00  0.00     0.117 A 
HETATM   22  N1  UNL     1      27.541   0.797  54.488  1.00  0.00    -0.260 NA
ENDBRANCH   7  17
BRANCH   1  23
HETATM   23  C2  UNL     1      21.920   5.441  51.570  1.00  0.00     0.126 C 
BRANCH  23  24
HETATM   24  C1  UNL     1      23.224   6.102  51.187  1.00  0.00     0.237 C 
HETATM   25  O1  UNL     1      24.070   6.962  51.313  1.00  0.00    -0.306 OA
ENDBRANCH  23  24
ENDBRANCH   1  23
BRANCH  13  26
HETATM   26  O2  UNL     1      20.075   0.998  49.295  1.00  0.00    -0.363 OA
HETATM   27  H17 UNL     1      19.674   0.142  48.967  1.00  0.00     0.217 HD
ENDBRANCH  13  26
TORSDOF 4
ENDMDL
MODEL 2
REMARK VINA RESULT:      -9.1      1.452      1.683
REMARK  4 active torsions:
REMARK  status: ('A' for Active; 'I' for Inactive)
REMARK    1  A    between atoms: C1_2  and  C2_3 
REMARK    2  A    between atoms: C2_3  and  C3_4 
REMARK    3  A    between atoms: C9_10  and  C10_11 
REMARK    4  A    between atoms: C20_22  and  O2_23 
ROOT
HETATM    1  C3  UNL     1      23.603   3.952  50.657  1.00  0.00     0.012 C 
HETATM    2  C4  UNL     1      24.646   3.339  51.266  1.00  0.00     0.036 C 
HETATM    3  C5  UNL     1      24.749   2.061  51.912  1.00  0.00    -0.033 A 
HETATM    4  C6  UNL     1      23.983   1.023  52.417  1.00  0.00     0.019 A 
HETATM    5  C7  UNL     1      23.905  -0.200  53.025  1.00  0.00    -0.053 A 
HETATM    6  C8  UNL     1      25.221  -0.517  53.210  1.00  0.00     0.021 A 
HETATM    7  C9  UNL     1      26.215   0.344  52.800  1.00  0.00    -0.006 A 
HETATM    8  C15 UNL     1      26.020   1.561  52.187  1.00  0.00     0.025 A 
HETATM    9  C16 UNL     1      22.441  -0.648  53.204  1.00  0.00     0.065 C 
HETATM   10  C17 UNL     1      21.795   0.725  53.223  1.00  0.00    -0.022 C 
HETATM   11  C18 UNL     1      21.569   0.856  51.944  1.00  0.00    -0.001 C 
HETATM   12  C19 UNL     1      21.468   0.643  50.528  1.00  0.00     0.033 C 
HETATM   13  C20 UNL     1      21.124   1.534  49.626  1.00  0.00     0.060 C 
HETATM   14  C21 UNL     1      20.887   2.877  50.279  1.00  0.00     0.183 C 
HETATM   15  N2  UNL     1      22.263   3.421  50.473  1.00  0.00    -0.387 N 
HETATM   16  H20 UNL     1      22.275   3.634  51.526  1.00  0.00     0.159 HD
ENDROOT
BRANCH   7  17
HETATM   17  C10 UNL     1      27.537  -0.211  53.116  1.00  0.00     0.066 A 
HETATM   18  C11 UNL     1      28.557   0.667  53.463  1.00  0.00     0.032 A 
HETATM   19  C12 UNL     1      29.741   0.031  53.710  1.00  0.00     0.004 A 
HETATM   20  C13 UNL     1      30.103  -1.285  53.680  1.00  0.00     0.019 A 
HETATM   21  C14 UNL     1      29.000  -2.077  53.320  1.00  0.00     0.117 A 
HETATM   22  N1  UNL     1      27.797  -1.528  53.059  1.00  0.00    -0.260 NA
ENDBRANCH   7  17
BRANCH   1  23
HETATM   23  C2  UNL     1      23.612   5.279  50.020  1.00  0.00     0.126 C 
BRANCH  23  24
HETATM   24  C1  UNL     1      22.404   6.089  50.433  1.00  0.00     0.237 C 
HETATM   25  O1  UNL     1      21.594   6.467  51.252  1.00  0.00    -0.306 OA
ENDBRANCH  23  24
ENDBRANCH   1  23
BRANCH  13  26
HETATM   26  O2  UNL     1      21.148   0.831  48.449  1.00  0.00    -0.363 OA
HETATM   27  H17 UNL     1      20.415   0.804  47.770  1.00  0.00     0.217 HD
ENDBRANCH  13  26
TORSDOF 4
ENDMDL
MODEL 3
REMARK VINA RESULT:      -8.7      7.589     10.022
REMARK  4 active torsions:
REMARK  status: ('A' for Active; 'I' for Inactive)
REMARK    1  A    between atoms: C1_2  and  C2_3 
REMARK    2  A    between atoms: C2_3  and  C3_4 
REMARK    3  A    between atoms: C9_10  and  C10_11 
REMARK    4  A    between atoms: C20_22  and  O2_23 
ROOT
HETATM    1  C3  UNL     1      26.877   5.557  49.100  1.00  0.00     0.012 C 
HETATM    2  C4  UNL     1      28.029   5.091  48.563  1.00  0.00     0.036 C 
HETATM    3  C5  UNL     1      29.134   5.773  47.950  1.00  0.00    -0.033 A 
HETATM    4  C6  UNL     1      29.511   6.998  47.425  1.00  0.00     0.019 A 
HETATM    5  C7  UNL     1      30.460   7.791  46.839  1.00  0.00    -0.053 A 
HETATM    6  C8  UNL     1      31.524   6.940  46.734  1.00  0.00     0.021 A 
HETATM    7  C9  UNL     1      31.431   5.641  47.182  1.00  0.00    -0.006 A 
HETATM    8  C15 UNL     1      30.320   5.068  47.757  1.00  0.00     0.025 A 
HETATM    9  C16 UNL     1      29.926   9.215  46.587  1.00  0.00     0.065 C 
HETATM   10  C17 UNL     1      28.449   8.882  46.503  1.00  0.00    -0.022 C 
HETATM   11  C18 UNL     1      28.142   9.021  47.764  1.00  0.00    -0.001 C 
HETATM   12  C19 UNL     1      28.176   9.277  49.176  1.00  0.00     0.033 C 
HETATM   13  C20 UNL     1      27.218   9.030  50.039  1.00  0.00     0.060 C 
HETATM   14  C21 UNL     1      26.045   8.372  49.346  1.00  0.00     0.183 C 
HETATM   15  N2  UNL     1      26.467   6.946  49.219  1.00  0.00    -0.387 N 
HETATM   16  H20 UNL     1      26.359   6.773  48.164  1.00  0.00     0.159 HD
ENDROOT
BRANCH   7  17
HETATM   17  C10 UNL     1      32.694   4.929  46.952  1.00  0.00     0.066 A 
HETATM   18  C11 UNL     1      33.185   4.855  45.654  1.00  0.00     0.032 A 
HETATM   19  C12 UNL     1      34.351   4.147  45.568  1.00  0.00     0.004 A 
HETATM   20  C13 UNL     1      35.110   3.507  46.506  1.00  0.00     0.019 A 
HETATM   21  C14 UNL     1      34.523   3.645  47.773  1.00  0.00     0.117 A 
HETATM   22  N1  UNL     1      33.373   4.328  47.945  1.00  0.00    -0.260 NA
ENDBRANCH   7  17
BRANCH   1  23
HETATM   23  C2  UNL     1      25.802   4.757  49.709  1.00  0.00     0.126 C 
BRANCH  23  24
HETATM   24  C1  UNL     1      26.328   3.434  50.216  1.00  0.00     0.237 C 
HETATM   25  O1  UNL     1      26.971   2.761  50.994  1.00  0.00    -0.306 OA
ENDBRANCH  23  24
ENDBRANCH   1  23
BRANCH  13  26
HETATM   26  O2  UNL     1      27.727   9.480  51.229  1.00  0.00    -0.363 OA
HETATM   27  H17 UNL     1      27.529  10.364  51.653  1.00  0.00     0.217 HD
ENDBRANCH  13  26
TORSDOF 4
ENDMDL
MODEL 4
REMARK VINA RESULT:      -8.6      2.838      6.974
REMARK  4 active torsions:
REMARK  status: ('A' for Active; 'I' for Inactive)
REMARK    1  A    between atoms: C1_2  and  C2_3 
REMARK    2  A    between atoms: C2_3  and  C3_4 
REMARK    3  A    between atoms: C9_10  and  C10_11 
REMARK    4  A    between atoms: C20_22  and  O2_23 
ROOT
HETATM    1  C3  UNL     1      25.832   0.066  53.009  1.00  0.00     0.012 C 
HETATM    2  C4  UNL     1      24.512  -0.214  53.126  1.00  0.00     0.036 C 
HETATM    3  C5  UNL     1      23.347   0.581  52.857  1.00  0.00    -0.033 A 
HETATM    4  C6  UNL     1      22.940   1.883  52.615  1.00  0.00     0.019 A 
HETATM    5  C7  UNL     1      21.939   2.777  52.348  1.00  0.00    -0.053 A 
HETATM    6  C8  UNL     1      20.834   1.975  52.312  1.00  0.00     0.021 A 
HETATM    7  C9  UNL     1      20.944   0.618  52.522  1.00  0.00    -0.006 A 
HETATM    8  C15 UNL     1      22.113  -0.061  52.780  1.00  0.00     0.025 A 
HETATM    9  C16 UNL     1      22.490   4.210  52.203  1.00  0.00     0.065 C 
HETATM   10  C17 UNL     1      23.737   4.050  53.051  1.00  0.00    -0.022 C 
HETATM   11  C18 UNL     1      24.565   3.669  52.117  1.00  0.00    -0.001 C 
HETATM   12  C19 UNL     1      25.166   3.305  50.866  1.00  0.00     0.033 C 
HETATM   13  C20 UNL     1      26.361   2.789  50.693  1.00  0.00     0.060 C 
HETATM   14  C21 UNL     1      27.036   2.569  52.029  1.00  0.00     0.183 C 
HETATM   15  N2  UNL     1      26.425   1.302  52.527  1.00  0.00    -0.387 N 
HETATM   16  H20 UNL     1      26.051   1.596  53.491  1.00  0.00     0.159 HD
ENDROOT
BRANCH   7  17
HETATM   17  C10 UNL     1      19.625  -0.021  52.446  1.00  0.00     0.066 A 
HETATM   18  C11 UNL     1      18.803   0.284  51.367  1.00  0.00     0.032 A 
HETATM   19  C12 UNL     1      17.597  -0.355  51.423  1.00  0.00     0.004 A 
HETATM   20  C13 UNL     1      17.056  -1.223  52.328  1.00  0.00     0.019 A 
HETATM   21  C14 UNL     1      17.967  -1.458  53.370  1.00  0.00     0.117 A 
HETATM   22  N1  UNL     1      19.179  -0.867  53.390  1.00  0.00    -0.260 NA
ENDBRANCH   7  17
BRANCH   1  23
HETATM   23  C2  UNL     1      26.954  -0.837  53.317  1.00  0.00     0.126 C 
BRANCH  23  24
HETATM   24  C1  UNL     1      27.925  -0.189  54.276  1.00  0.00     0.237 C 
HETATM   25  O1  UNL     1      28.268   0.711  55.013  1.00  0.00    -0.306 OA
ENDBRANCH  23  24
ENDBRANCH   1  23
BRANCH  13  26
HETATM   26  O2  UNL     1      26.467   2.659  49.333  1.00  0.00    -0.363 OA
HETATM   27  H17 UNL     1      25.709   2.700  48.681  1.00  0.00     0.217 HD
ENDBRANCH  13  26
TORSDOF 4
ENDMDL
MODEL 5
REMARK VINA RESULT:      -8.3      5.040      7.720
REMARK  4 active torsions:
REMARK  status: ('A' for Active; 'I' for Inactive)
REMARK    1  A    between atoms: C1_2  and  C2_3 
REMARK    2  A    between atoms: C2_3  and  C3_4 
REMARK    3  A    between atoms: C9_10  and  C10_11 
REMARK    4  A    between atoms: C20_22  and  O2_23 
ROOT
HETATM    1  C3  UNL     1      25.963   2.516  51.059  1.00  0.00     0.012 C 
HETATM    2  C4  UNL     1      26.756   3.171  50.177  1.00  0.00     0.036 C 
HETATM    3  C5  UNL     1      26.571   4.409  49.475  1.00  0.00    -0.033 A 
HETATM    4  C6  UNL     1      25.609   5.349  49.143  1.00  0.00     0.019 A 
HETATM    5  C7  UNL     1      25.265   6.521  48.526  1.00  0.00    -0.053 A 
HETATM    6  C8  UNL     1      26.456   6.930  47.996  1.00  0.00     0.021 A 
HETATM    7  C9  UNL     1      27.597   6.180  48.171  1.00  0.00    -0.006 A 
HETATM    8  C15 UNL     1      27.678   4.992  48.862  1.00  0.00     0.025 A 
HETATM    9  C16 UNL     1      23.767   6.837  48.713  1.00  0.00     0.065 C 
HETATM   10  C17 UNL     1      23.270   5.418  48.916  1.00  0.00    -0.022 C 
HETATM   11  C18 UNL     1      23.388   5.351  50.214  1.00  0.00    -0.001 C 
HETATM   12  C19 UNL     1      23.628   5.644  51.599  1.00  0.00     0.033 C 
HETATM   13  C20 UNL     1      23.609   4.787  52.594  1.00  0.00     0.060 C 
HETATM   14  C21 UNL     1      23.342   3.390  52.079  1.00  0.00     0.183 C 
HETATM   15  N2  UNL     1      24.669   2.948  51.560  1.00  0.00    -0.387 N 
HETATM   16  H20 UNL     1      24.434   2.670  50.548  1.00  0.00     0.159 HD
ENDROOT
BRANCH   7  17
HETATM   17  C10 UNL     1      28.738   6.818  47.503  1.00  0.00     0.066 A 
HETATM   18  C11 UNL     1      28.491   7.880  46.642  1.00  0.00     0.032 A 
HETATM   19  C12 UNL     1      29.628   8.371  46.065  1.00  0.00     0.004 A 
HETATM   20  C13 UNL     1      30.943   8.016  46.175  1.00  0.00     0.019 A 
HETATM   21  C14 UNL     1      31.075   6.938  47.065  1.00  0.00     0.117 A 
HETATM   22  N1  UNL     1      30.002   6.395  47.676  1.00  0.00    -0.260 NA
ENDBRANCH   7  17
BRANCH   1  23
HETATM   23  C2  UNL     1      26.257   1.236  51.725  1.00  0.00     0.126 C 
BRANCH  23  24
HETATM   24  C1  UNL     1      26.274   1.397  53.228  1.00  0.00     0.237 C 
HETATM   25  O1  UNL     1      26.248   2.070  54.236  1.00  0.00    -0.306 OA
ENDBRANCH  23  24
ENDBRANCH   1  23
BRANCH  13  26
HETATM   26  O2  UNL     1      23.864   5.562  53.696  1.00  0.00    -0.363 OA
HETATM   27  H17 UNL     1      24.176   6.513  53.682  1.00  0.00     0.217 HD
ENDBRANCH  13  26
TORSDOF 4
ENDMDL
MODEL 6
REMARK VINA RESULT:      -8.3      2.161      4.391
REMARK  4 active torsions:
REMARK  status: ('A' for Active; 'I' for Inactive)
REMARK    1  A    between atoms: C1_2  and  C2_3 
REMARK    2  A    between atoms: C2_3  and  C3_4 
REMARK    3  A    between atoms: C9_10  and  C10_11 
REMARK    4  A    between atoms: C20_22  and  O2_23 
ROOT
HETATM    1  C3  UNL     1      21.389   2.407  50.553  1.00  0.00     0.012 C 
HETATM    2  C4  UNL     1      22.516   1.752  50.922  1.00  0.00     0.036 C 
HETATM    3  C5  UNL     1      23.891   2.163  50.929  1.00  0.00    -0.033 A 
HETATM    4  C6  UNL     1      24.746   3.141  50.450  1.00  0.00     0.019 A 
HETATM    5  C7  UNL     1      26.005   3.670  50.360  1.00  0.00    -0.053 A 
HETATM    6  C8  UNL     1      26.742   2.793  51.104  1.00  0.00     0.021 A 
HETATM    7  C9  UNL     1      26.144   1.709  51.708  1.00  0.00    -0.006 A 
HETATM    8  C15 UNL     1      24.807   1.390  51.641  1.00  0.00     0.025 A 
HETATM    9  C16 UNL     1      26.015   4.959  49.513  1.00  0.00     0.065 C 
HETATM   10  C17 UNL     1      24.791   4.670  48.664  1.00  0.00    -0.022 C 
HETATM   11  C18 UNL     1      23.886   5.215  49.429  1.00  0.00    -0.001 C 
HETATM   12  C19 UNL     1      23.199   5.906  50.484  1.00  0.00     0.033 C 
HETATM   13  C20 UNL     1      21.899   5.983  50.651  1.00  0.00     0.060 C 
HETATM   14  C21 UNL     1      21.184   5.181  49.585  1.00  0.00     0.183 C 
HETATM   15  N2  UNL     1      21.289   3.775  50.074  1.00  0.00    -0.387 N 
HETATM   16  H20 UNL     1      21.740   3.278  49.235  1.00  0.00     0.159 HD
ENDROOT
BRANCH   7  17
HETATM   17  C10 UNL     1      27.140   0.915  52.437  1.00  0.00     0.066 A 
HETATM   18  C11 UNL     1      27.005  -0.468  52.447  1.00  0.00     0.032 A 
HETATM   19  C12 UNL     1      27.978  -1.090  53.178  1.00  0.00     0.004 A 
HETATM   20  C13 UNL     1      29.041  -0.613  53.890  1.00  0.00     0.019 A 
HETATM   21  C14 UNL     1      29.079   0.789  53.812  1.00  0.00     0.117 A 
HETATM   22  N1  UNL     1      28.157   1.479  53.112  1.00  0.00    -0.260 NA
ENDBRANCH   7  17
BRANCH   1  23
HETATM   23  C2  UNL     1      20.014   1.882  50.589  1.00  0.00     0.126 C 
BRANCH  23  24
HETATM   24  C1  UNL     1      19.104   2.792  51.381  1.00  0.00     0.237 C 
HETATM   25  O1  UNL     1      18.908   3.690  52.171  1.00  0.00    -0.306 OA
ENDBRANCH  23  24
ENDBRANCH   1  23
BRANCH  13  26
HETATM   26  O2  UNL     1      21.759   6.770  51.765  1.00  0.00    -0.363 OA
HETATM   27  H17 UNL     1      22.507   7.162  52.300  1.00  0.00     0.217 HD
ENDBRANCH  13  26
TORSDOF 4
ENDMDL
MODEL 7
REMARK VINA RESULT:      -7.8      6.542      9.000
REMARK  4 active torsions:
REMARK  status: ('A' for Active; 'I' for Inactive)
REMARK    1  A    between atoms: C1_2  and  C2_3 
REMARK    2  A    between atoms: C2_3  and  C3_4 
REMARK    3  A    between atoms: C9_10  and  C10_11 
REMARK    4  A    between atoms: C20_22  and  O2_23 
ROOT
HETATM    1  C3  UNL     1      26.134   4.028  49.589  1.00  0.00     0.012 C 
HETATM    2  C4  UNL     1      27.289   4.441  49.014  1.00  0.00     0.036 C 
HETATM    3  C5  UNL     1      27.653   5.692  48.411  1.00  0.00    -0.033 A 
HETATM    4  C6  UNL     1      27.117   6.875  47.931  1.00  0.00     0.019 A 
HETATM    5  C7  UNL     1      27.293   8.107  47.363  1.00  0.00    -0.053 A 
HETATM    6  C8  UNL     1      28.649   8.163  47.205  1.00  0.00     0.021 A 
HETATM    7  C9  UNL     1      29.446   7.111  47.600  1.00  0.00    -0.006 A 
HETATM    8  C15 UNL     1      29.003   5.939  48.169  1.00  0.00     0.025 A 
HETATM    9  C16 UNL     1      25.949   8.840  47.180  1.00  0.00     0.065 C 
HETATM   10  C17 UNL     1      25.047   7.623  47.107  1.00  0.00    -0.022 C 
HETATM   11  C18 UNL     1      24.774   7.502  48.378  1.00  0.00    -0.001 C 
HETATM   12  C19 UNL     1      24.690   7.688  49.799  1.00  0.00     0.033 C 
HETATM   13  C20 UNL     1      24.161   6.857  50.667  1.00  0.00     0.060 C 
HETATM   14  C21 UNL     1      23.676   5.607  49.967  1.00  0.00     0.183 C 
HETATM   15  N2  UNL     1      24.921   4.807  49.773  1.00  0.00    -0.387 N 
HETATM   16  H20 UNL     1      24.911   4.628  48.714  1.00  0.00     0.159 HD
ENDROOT
BRANCH   7  17
HETATM   17  C10 UNL     1      30.857   7.403  47.318  1.00  0.00     0.066 A 
HETATM   18  C11 UNL     1      31.662   6.376  46.840  1.00  0.00     0.032 A 
HETATM   19  C12 UNL     1      32.956   6.767  46.640  1.00  0.00     0.004 A 
HETATM   20  C13 UNL     1      33.596   7.961  46.822  1.00  0.00     0.019 A 
HETATM   21  C14 UNL     1      32.691   8.920  47.306  1.00  0.00     0.117 A 
HETATM   22  N1  UNL     1      31.397   8.615  47.530  1.00  0.00    -0.260 NA
ENDBRANCH   7  17
BRANCH   1  23
HETATM   23  C2  UNL     1      25.869   2.707  50.182  1.00  0.00     0.126 C 
BRANCH  23  24
HETATM   24  C1  UNL     1      26.626   2.530  51.478  1.00  0.00     0.237 C 
HETATM   25  O1  UNL     1      27.642   2.335  52.110  1.00  0.00    -0.306 OA
ENDBRANCH  23  24
ENDBRANCH   1  23
BRANCH  13  26
HETATM   26  O2  UNL     1      24.300   7.506  51.866  1.00  0.00    -0.363 OA
HETATM   27  H17 UNL     1      25.019   7.339  52.541  1.00  0.00     0.217 HD
ENDBRANCH  13  26
TORSDOF 4
ENDMDL
MODEL 8
REMARK VINA RESULT:      -7.8      6.256      9.440
REMARK  4 active torsions:
REMARK  status: ('A' for Active; 'I' for Inactive)
REMARK    1  A    between atoms: C1_2  and  C2_3 
REMARK    2  A    between atoms: C2_3  and  C3_4 
REMARK    3  A    between atoms: C9_10  and  C10_11 
REMARK    4  A    between atoms: C20_22  and  O2_23 
ROOT
HETATM    1  C3  UNL     1      26.751   9.898  47.938  1.00  0.00     0.012 C 
HETATM    2  C4  UNL     1      26.114   8.724  48.163  1.00  0.00     0.036 C 
HETATM    3  C5  UNL     1      26.619   7.397  48.377  1.00  0.00    -0.033 A 
HETATM    4  C6  UNL     1      27.766   6.629  48.265  1.00  0.00     0.019 A 
HETATM    5  C7  UNL     1      28.403   5.427  48.415  1.00  0.00    -0.053 A 
HETATM    6  C8  UNL     1      27.408   4.631  48.907  1.00  0.00     0.021 A 
HETATM    7  C9  UNL     1      26.145   5.137  49.122  1.00  0.00    -0.006 A 
HETATM    8  C15 UNL     1      25.748   6.433  48.881  1.00  0.00     0.025 A 
HETATM    9  C16 UNL     1      29.883   5.518  47.993  1.00  0.00     0.065 C 
HETATM   10  C17 UNL     1      29.761   6.678  47.023  1.00  0.00    -0.022 C 
HETATM   11  C18 UNL     1      29.970   7.658  47.859  1.00  0.00    -0.001 C 
HETATM   12  C19 UNL     1      30.248   8.445  49.027  1.00  0.00     0.033 C 
HETATM   13  C20 UNL     1      30.159   9.751  49.129  1.00  0.00     0.060 C 
HETATM   14  C21 UNL     1      29.660  10.346  47.831  1.00  0.00     0.183 C 
HETATM   15  N2  UNL     1      28.186  10.117  47.884  1.00  0.00    -0.387 N 
HETATM   16  H20 UNL     1      28.007   9.592  46.964  1.00  0.00     0.159 HD
ENDROOT
BRANCH   7  17
HETATM   17  C10 UNL     1      25.255   4.091  49.641  1.00  0.00     0.066 A 
HETATM   18  C11 UNL     1      24.029   3.896  49.018  1.00  0.00     0.032 A 
HETATM   19  C12 UNL     1      23.285   2.914  49.607  1.00  0.00     0.004 A 
HETATM   20  C13 UNL     1      23.518   2.100  50.680  1.00  0.00     0.019 A 
HETATM   21  C14 UNL     1      24.779   2.383  51.229  1.00  0.00     0.117 A 
HETATM   22  N1  UNL     1      25.575   3.338  50.707  1.00  0.00    -0.260 NA
ENDBRANCH   7  17
BRANCH   1  23
HETATM   23  C2  UNL     1      26.124  11.214  47.731  1.00  0.00     0.126 C 
BRANCH  23  24
HETATM   24  C1  UNL     1      26.586  11.837  46.434  1.00  0.00     0.237 C 
HETATM   25  O1  UNL     1      27.447  12.263  45.694  1.00  0.00    -0.306 OA
ENDBRANCH  23  24
ENDBRANCH   1  23
BRANCH  13  26
HETATM   26  O2  UNL     1      30.557  10.005  50.416  1.00  0.00    -0.363 OA
HETATM   27  H17 UNL     1      30.448   9.386  51.195  1.00  0.00     0.217 HD
ENDBRANCH  13  26
TORSDOF 4
ENDMDL
MODEL 9
REMARK VINA RESULT:      -7.8      2.572      4.799
REMARK  4 active torsions:
REMARK  status: ('A' for Active; 'I' for Inactive)
REMARK    1  A    between atoms: C1_2  and  C2_3 
REMARK    2  A    between atoms: C2_3  and  C3_4 
REMARK    3  A    between atoms: C9_10  and  C10_11 
REMARK    4  A    between atoms: C20_22  and  O2_23 
ROOT
HETATM    1  C3  UNL     1      19.071  -0.509  52.771  1.00  0.00     0.012 C 
HETATM    2  C4  UNL     1      20.411  -0.533  52.964  1.00  0.00     0.036 C 
HETATM    3  C5  UNL     1      21.472   0.205  52.338  1.00  0.00    -0.033 A 
HETATM    4  C6  UNL     1      21.752   1.013  51.248  1.00  0.00     0.019 A 
HETATM    5  C7  UNL     1      22.643   1.765  50.533  1.00  0.00    -0.053 A 
HETATM    6  C8  UNL     1      23.788   1.633  51.266  1.00  0.00     0.021 A 
HETATM    7  C9  UNL     1      23.802   0.876  52.416  1.00  0.00    -0.006 A 
HETATM    8  C15 UNL     1      22.728   0.195  52.942  1.00  0.00     0.025 A 
HETATM    9  C16 UNL     1      21.979   2.397  49.293  1.00  0.00     0.065 C 
HETATM   10  C17 UNL     1      20.867   1.382  49.102  1.00  0.00    -0.022 C 
HETATM   11  C18 UNL     1      19.954   1.947  49.843  1.00  0.00    -0.001 C 
HETATM   12  C19 UNL     1      19.222   2.839  50.697  1.00  0.00     0.033 C 
HETATM   13  C20 UNL     1      18.054   2.608  51.251  1.00  0.00     0.060 C 
HETATM   14  C21 UNL     1      17.576   1.215  50.907  1.00  0.00     0.183 C 
HETATM   15  N2  UNL     1      18.335   0.341  51.850  1.00  0.00    -0.387 N 
HETATM   16  H20 UNL     1      18.809  -0.353  51.181  1.00  0.00     0.159 HD
ENDROOT
BRANCH   7  17
HETATM   17  C10 UNL     1      25.142   0.881  53.017  1.00  0.00     0.066 A 
HETATM   18  C11 UNL     1      25.793   2.098  53.174  1.00  0.00     0.032 A 
HETATM   19  C12 UNL     1      27.039   1.967  53.720  1.00  0.00     0.004 A 
HETATM   20  C13 UNL     1      27.753   0.877  54.132  1.00  0.00     0.019 A 
HETATM   21  C14 UNL     1      27.003  -0.292  53.928  1.00  0.00     0.117 A 
HETATM   22  N1  UNL     1      25.765  -0.249  53.394  1.00  0.00    -0.260 NA
ENDBRANCH   7  17
BRANCH   1  23
HETATM   23  C2  UNL     1      18.065  -1.318  53.478  1.00  0.00     0.126 C 
BRANCH  23  24
HETATM   24  C1  UNL     1      16.739  -1.292  52.754  1.00  0.00     0.237 C 
HETATM   25  O1  UNL     1      15.923  -1.764  51.991  1.00  0.00    -0.306 OA
ENDBRANCH  23  24
ENDBRANCH   1  23
BRANCH  13  26
HETATM   26  O2  UNL     1      17.782   3.767  51.932  1.00  0.00    -0.363 OA
HETATM   27  H17 UNL     1      17.057   3.890  52.610  1.00  0.00     0.217 HD
ENDBRANCH  13  26
TORSDOF 4
ENDMDL
