MODEL 1
REMARK VINA RESULT:      -8.9      0.000      0.000
REMARK  4 active torsions:
REMARK  status: ('A' for Active; 'I' for Inactive)
REMARK    1  A    between atoms: C5_5  and  C6_6 
REMARK    2  A    between atoms: C11_12  and  C12_13 
REMARK    3  A    between atoms: N1_16  and  C15_17 
REMARK    4  A    between atoms: C16_19  and  O1_20 
ROOT
HETATM    1  C6  UNL     1      22.529   2.490  51.574  1.00  0.00    -0.012 A 
HETATM    2  C7  UNL     1      21.174   2.508  51.312  1.00  0.00     0.037 A 
HETATM    3  C8  UNL     1      20.245   1.756  52.002  1.00  0.00     0.035 A 
HETATM    4 CL1  UNL     1      18.543   1.808  51.640  1.00  0.00    -0.084 Cl
HETATM    5  C9  UNL     1      20.667   0.924  53.024  1.00  0.00     0.025 A 
HETATM    6  C10 UNL     1      22.023   0.917  53.274  1.00  0.00     0.016 A 
HETATM    7  C11 UNL     1      23.000   1.662  52.600  1.00  0.00     0.006 A 
ENDROOT
BRANCH   7   8
HETATM    8  C12 UNL     1      24.397   1.520  53.009  1.00  0.00     0.090 A 
HETATM    9  C13 UNL     1      25.186   2.518  53.586  1.00  0.00     0.053 A 
HETATM   10  C14 UNL     1      26.449   2.008  53.835  1.00  0.00     0.123 A 
HETATM   11  N1  UNL     1      26.415   0.752  53.420  1.00  0.00    -0.220 N 
HETATM   12  N3  UNL     1      25.228   0.454  52.938  1.00  0.00    -0.165 NA
BRANCH  11  13
HETATM   13  C15 UNL     1      27.474  -0.315  53.425  1.00  0.00     0.195 A 
HETATM   14  N2  UNL     1      27.626  -1.478  53.329  1.00  0.00    -0.198 NA
HETATM   15  C16 UNL     1      28.803  -2.080  53.389  1.00  0.00     0.171 A 
HETATM   16  C17 UNL     1      29.974  -1.174  53.595  1.00  0.00     0.111 A 
HETATM   17  S1  UNL     1      29.073   0.492  53.664  1.00  0.00    -0.058 SA
BRANCH  15  18
HETATM   18  O1  UNL     1      28.669  -3.476  53.242  1.00  0.00    -0.344 OA
HETATM   19  H11 UNL     1      29.010  -4.011  54.057  1.00  0.00     0.219 HD
ENDBRANCH  15  18
ENDBRANCH  11  13
ENDBRANCH   7   8
BRANCH   1  20
HETATM   20  C5  UNL     1      23.536   3.248  50.888  1.00  0.00    -0.025 A 
HETATM   21  C4  UNL     1      23.547   4.614  51.180  1.00  0.00     0.013 A 
HETATM   22  C3  UNL     1      24.478   5.431  50.571  1.00  0.00     0.007 A 
HETATM   23  C2  UNL     1      25.397   4.903  49.675  1.00  0.00    -0.062 A 
HETATM   24  C1  UNL     1      26.387   5.818  49.039  1.00  0.00     0.048 C 
HETATM   25  C19 UNL     1      25.410   3.550  49.368  1.00  0.00     0.007 A 
HETATM   26  C18 UNL     1      24.473   2.745  49.984  1.00  0.00     0.013 A 
ENDBRANCH   1  20
TORSDOF 4
ENDMDL
MODEL 2
REMARK VINA RESULT:      -8.6      1.674      2.297
REMARK  4 active torsions:
REMARK  status: ('A' for Active; 'I' for Inactive)
REMARK    1  A    between atoms: C5_5  and  C6_6 
REMARK    2  A    between atoms: C11_12  and  C12_13 
REMARK    3  A    between atoms: N1_16  and  C15_17 
REMARK    4  A    between atoms: C16_19  and  O1_20 
ROOT
HETATM    1  C6  UNL     1      20.906   0.569  52.159  1.00  0.00    -0.012 A 
HETATM    2  C7  UNL     1      19.574   0.209  52.230  1.00  0.00     0.037 A 
HETATM    3  C8  UNL     1      19.070  -0.708  53.130  1.00  0.00     0.035 A 
HETATM    4 CL1  UNL     1      17.384  -1.133  53.188  1.00  0.00    -0.084 Cl
HETATM    5  C9  UNL     1      19.927  -1.321  54.028  1.00  0.00     0.025 A 
HETATM    6  C10 UNL     1      21.253  -0.952  53.944  1.00  0.00     0.016 A 
HETATM    7  C11 UNL     1      21.807  -0.027  53.048  1.00  0.00     0.006 A 
ENDROOT
BRANCH   7   8
HETATM    8  C12 UNL     1      23.244   0.235  53.110  1.00  0.00     0.090 A 
HETATM    9  C13 UNL     1      23.844   1.495  53.179  1.00  0.00     0.053 A 
HETATM   10  C14 UNL     1      25.219   1.338  53.224  1.00  0.00     0.123 A 
HETATM   11  N1  UNL     1      25.432   0.033  53.183  1.00  0.00    -0.220 N 
HETATM   12  N3  UNL     1      24.293  -0.621  53.117  1.00  0.00    -0.165 NA
BRANCH  11  13
HETATM   13  C15 UNL     1      26.711  -0.756  53.202  1.00  0.00     0.195 A 
HETATM   14  N2  UNL     1      27.131  -1.852  53.120  1.00  0.00    -0.198 NA
HETATM   15  C16 UNL     1      28.416  -2.163  53.189  1.00  0.00     0.171 A 
HETATM   16  C17 UNL     1      29.342  -1.005  53.387  1.00  0.00     0.111 A 
HETATM   17  S1  UNL     1      28.076   0.404  53.434  1.00  0.00    -0.058 SA
BRANCH  15  18
HETATM   18  O1  UNL     1      28.613  -3.553  53.059  1.00  0.00    -0.344 OA
HETATM   19  H11 UNL     1      28.704  -3.865  52.079  1.00  0.00     0.219 HD
ENDBRANCH  15  18
ENDBRANCH  11  13
ENDBRANCH   7   8
BRANCH   1  20
HETATM   20  C5  UNL     1      21.481   1.513  51.244  1.00  0.00    -0.025 A 
HETATM   21  C4  UNL     1      21.362   2.851  51.625  1.00  0.00     0.013 A 
HETATM   22  C3  UNL     1      21.884   3.837  50.812  1.00  0.00     0.007 A 
HETATM   23  C2  UNL     1      22.521   3.505  49.625  1.00  0.00    -0.062 A 
HETATM   24  C1  UNL     1      23.072   4.599  48.775  1.00  0.00     0.048 C 
HETATM   25  C19 UNL     1      22.655   2.184  49.222  1.00  0.00     0.007 A 
HETATM   26  C18 UNL     1      22.129   1.208  50.045  1.00  0.00     0.013 A 
ENDBRANCH   1  20
TORSDOF 4
ENDMDL
MODEL 3
REMARK VINA RESULT:      -8.6      1.696      4.225
REMARK  4 active torsions:
REMARK  status: ('A' for Active; 'I' for Inactive)
REMARK    1  A    between atoms: C5_5  and  C6_6 
REMARK    2  A    between atoms: C11_12  and  C12_13 
REMARK    3  A    between atoms: N1_16  and  C15_17 
REMARK    4  A    between atoms: C16_19  and  O1_20 
ROOT
HETATM    1  C6  UNL     1      22.702   2.283  50.823  1.00  0.00    -0.012 A 
HETATM    2  C7  UNL     1      21.977   2.861  49.800  1.00  0.00     0.037 A 
HETATM    3  C8  UNL     1      22.514   3.720  48.863  1.00  0.00     0.035 A 
HETATM    4 CL1  UNL     1      21.564   4.428  47.589  1.00  0.00    -0.084 Cl
HETATM    5  C9  UNL     1      23.859   4.041  48.926  1.00  0.00     0.025 A 
HETATM    6  C10 UNL     1      24.570   3.456  49.953  1.00  0.00     0.016 A 
HETATM    7  C11 UNL     1      24.066   2.580  50.925  1.00  0.00     0.006 A 
ENDROOT
BRANCH   7   8
HETATM    8  C12 UNL     1      24.980   2.059  51.941  1.00  0.00     0.090 A 
HETATM    9  C13 UNL     1      25.137   2.560  53.235  1.00  0.00     0.053 A 
HETATM   10  C14 UNL     1      26.089   1.807  53.899  1.00  0.00     0.123 A 
HETATM   11  N1  UNL     1      26.487   0.889  53.033  1.00  0.00    -0.220 N 
HETATM   12  N3  UNL     1      25.850   1.024  51.889  1.00  0.00    -0.165 NA
BRANCH  11  13
HETATM   13  C15 UNL     1      27.498  -0.215  53.164  1.00  0.00     0.195 A 
HETATM   14  N2  UNL     1      27.630  -1.378  53.041  1.00  0.00    -0.198 NA
HETATM   15  C16 UNL     1      28.762  -2.026  53.267  1.00  0.00     0.171 A 
HETATM   16  C17 UNL     1      29.908  -1.172  53.705  1.00  0.00     0.111 A 
HETATM   17  S1  UNL     1      29.059   0.522  53.700  1.00  0.00    -0.058 SA
BRANCH  15  18
HETATM   18  O1  UNL     1      28.612  -3.409  53.036  1.00  0.00    -0.344 OA
HETATM   19  H11 UNL     1      29.495  -3.882  52.787  1.00  0.00     0.219 HD
ENDBRANCH  15  18
ENDBRANCH  11  13
ENDBRANCH   7   8
BRANCH   1  20
HETATM   20  C5  UNL     1      22.194   1.387  51.822  1.00  0.00    -0.025 A 
HETATM   21  C4  UNL     1      22.569   0.052  51.662  1.00  0.00     0.013 A 
HETATM   22  C3  UNL     1      22.132  -0.890  52.572  1.00  0.00     0.007 A 
HETATM   23  C2  UNL     1      21.325  -0.516  53.637  1.00  0.00    -0.062 A 
HETATM   24  C1  UNL     1      20.874  -1.562  54.598  1.00  0.00     0.048 C 
HETATM   25  C19 UNL     1      20.937   0.804  53.821  1.00  0.00     0.007 A 
HETATM   26  C18 UNL     1      21.383   1.734  52.904  1.00  0.00     0.013 A 
ENDBRANCH   1  20
TORSDOF 4
ENDMDL
MODEL 4
REMARK VINA RESULT:      -8.5      3.734      6.318
REMARK  4 active torsions:
REMARK  status: ('A' for Active; 'I' for Inactive)
REMARK    1  A    between atoms: C5_5  and  C6_6 
REMARK    2  A    between atoms: C11_12  and  C12_13 
REMARK    3  A    between atoms: N1_16  and  C15_17 
REMARK    4  A    between atoms: C16_19  and  O1_20 
ROOT
HETATM    1  C6  UNL     1      24.251  -0.027  53.300  1.00  0.00    -0.012 A 
HETATM    2  C7  UNL     1      23.305  -0.834  53.898  1.00  0.00     0.037 A 
HETATM    3  C8  UNL     1      21.946  -0.717  53.686  1.00  0.00     0.035 A 
HETATM    4 CL1  UNL     1      20.784  -1.756  54.461  1.00  0.00    -0.084 Cl
HETATM    5  C9  UNL     1      21.473   0.259  52.827  1.00  0.00     0.025 A 
HETATM    6  C10 UNL     1      22.431   1.058  52.237  1.00  0.00     0.016 A 
HETATM    7  C11 UNL     1      23.818   0.975  52.423  1.00  0.00     0.006 A 
ENDROOT
BRANCH   7   8
HETATM    8  C12 UNL     1      24.679   1.914  51.707  1.00  0.00     0.090 A 
HETATM    9  C13 UNL     1      25.916   1.615  51.131  1.00  0.00     0.053 A 
HETATM   10  C14 UNL     1      26.429   2.759  50.544  1.00  0.00     0.123 A 
HETATM   11  N1  UNL     1      25.532   3.707  50.763  1.00  0.00    -0.220 N 
HETATM   12  N3  UNL     1      24.509   3.230  51.438  1.00  0.00    -0.165 NA
BRANCH  11  13
HETATM   13  C15 UNL     1      25.518   5.157  50.371  1.00  0.00     0.195 A 
HETATM   14  N2  UNL     1      25.075   6.202  50.680  1.00  0.00    -0.198 NA
HETATM   15  C16 UNL     1      25.315   7.333  50.034  1.00  0.00     0.171 A 
HETATM   16  C17 UNL     1      26.212   7.209  48.845  1.00  0.00     0.111 A 
HETATM   17  S1  UNL     1      26.555   5.346  48.903  1.00  0.00    -0.058 SA
BRANCH  15  18
HETATM   18  O1  UNL     1      24.646   8.417  50.639  1.00  0.00    -0.344 OA
HETATM   19  H11 UNL     1      25.225   8.926  51.326  1.00  0.00     0.219 HD
ENDBRANCH  15  18
ENDBRANCH  11  13
ENDBRANCH   7   8
BRANCH   1  20
HETATM   20  C5  UNL     1      25.672  -0.104  53.486  1.00  0.00    -0.025 A 
HETATM   21  C4  UNL     1      26.310  -1.103  52.748  1.00  0.00     0.013 A 
HETATM   22  C3  UNL     1      27.677  -1.260  52.857  1.00  0.00     0.007 A 
HETATM   23  C2  UNL     1      28.415  -0.434  53.694  1.00  0.00    -0.062 A 
HETATM   24  C1  UNL     1      29.889  -0.634  53.783  1.00  0.00     0.048 C 
HETATM   25  C19 UNL     1      27.807   0.568  54.438  1.00  0.00     0.007 A 
HETATM   26  C18 UNL     1      26.439   0.713  54.319  1.00  0.00     0.013 A 
ENDBRANCH   1  20
TORSDOF 4
ENDMDL
MODEL 5
REMARK VINA RESULT:      -8.1      2.549      2.966
REMARK  4 active torsions:
REMARK  status: ('A' for Active; 'I' for Inactive)
REMARK    1  A    between atoms: C5_5  and  C6_6 
REMARK    2  A    between atoms: C11_12  and  C12_13 
REMARK    3  A    between atoms: N1_16  and  C15_17 
REMARK    4  A    between atoms: C16_19  and  O1_20 
ROOT
HETATM    1  C6  UNL     1      20.844   1.058  51.625  1.00  0.00    -0.012 A 
HETATM    2  C7  UNL     1      19.669   0.333  51.651  1.00  0.00     0.037 A 
HETATM    3  C8  UNL     1      19.268  -0.448  52.716  1.00  0.00     0.035 A 
HETATM    4 CL1  UNL     1      17.778  -1.347  52.709  1.00  0.00    -0.084 Cl
HETATM    5  C9  UNL     1      20.072  -0.530  53.840  1.00  0.00     0.025 A 
HETATM    6  C10 UNL     1      21.242   0.199  53.798  1.00  0.00     0.016 A 
HETATM    7  C11 UNL     1      21.687   1.004  52.741  1.00  0.00     0.006 A 
ENDROOT
BRANCH   7   8
HETATM    8  C12 UNL     1      22.963   1.705  52.882  1.00  0.00     0.090 A 
HETATM    9  C13 UNL     1      23.156   3.084  52.772  1.00  0.00     0.053 A 
HETATM   10  C14 UNL     1      24.496   3.370  52.967  1.00  0.00     0.123 A 
HETATM   11  N1  UNL     1      25.083   2.203  53.184  1.00  0.00    -0.220 N 
HETATM   12  N3  UNL     1      24.203   1.226  53.138  1.00  0.00    -0.165 NA
BRANCH  11  13
HETATM   13  C15 UNL     1      26.519   1.861  53.461  1.00  0.00     0.195 A 
HETATM   14  N2  UNL     1      27.506   2.292  53.937  1.00  0.00    -0.198 NA
HETATM   15  C16 UNL     1      28.653   1.633  53.994  1.00  0.00     0.171 A 
HETATM   16  C17 UNL     1      28.631   0.262  53.399  1.00  0.00     0.111 A 
HETATM   17  S1  UNL     1      26.823   0.193  52.836  1.00  0.00    -0.058 SA
BRANCH  15  18
HETATM   18  O1  UNL     1      29.653   2.405  54.620  1.00  0.00    -0.344 OA
HETATM   19  H11 UNL     1      29.279   3.111  55.274  1.00  0.00     0.219 HD
ENDBRANCH  15  18
ENDBRANCH  11  13
ENDBRANCH   7   8
BRANCH   1  20
HETATM   20  C5  UNL     1      21.308   1.882  50.546  1.00  0.00    -0.025 A 
HETATM   21  C4  UNL     1      20.672   3.120  50.434  1.00  0.00     0.013 A 
HETATM   22  C3  UNL     1      21.047   3.988  49.427  1.00  0.00     0.007 A 
HETATM   23  C2  UNL     1      22.046   3.635  48.532  1.00  0.00    -0.062 A 
HETATM   24  C1  UNL     1      22.423   4.600  47.460  1.00  0.00     0.048 C 
HETATM   25  C19 UNL     1      22.696   2.412  48.621  1.00  0.00     0.007 A 
HETATM   26  C18 UNL     1      22.312   1.555  49.632  1.00  0.00     0.013 A 
ENDBRANCH   1  20
TORSDOF 4
ENDMDL
MODEL 6
REMARK VINA RESULT:      -7.9      4.582      7.436
REMARK  4 active torsions:
REMARK  status: ('A' for Active; 'I' for Inactive)
REMARK    1  A    between atoms: C5_5  and  C6_6 
REMARK    2  A    between atoms: C11_12  and  C12_13 
REMARK    3  A    between atoms: N1_16  and  C15_17 
REMARK    4  A    between atoms: C16_19  and  O1_20 
ROOT
HETATM    1  C6  UNL     1      25.201   0.338  52.840  1.00  0.00    -0.012 A 
HETATM    2  C7  UNL     1      26.166  -0.627  53.051  1.00  0.00     0.037 A 
HETATM    3  C8  UNL     1      27.523  -0.387  52.990  1.00  0.00     0.035 A 
HETATM    4 CL1  UNL     1      28.708  -1.633  53.262  1.00  0.00    -0.084 Cl
HETATM    5  C9  UNL     1      27.976   0.889  52.703  1.00  0.00     0.025 A 
HETATM    6  C10 UNL     1      27.001   1.842  52.495  1.00  0.00     0.016 A 
HETATM    7  C11 UNL     1      25.615   1.643  52.546  1.00  0.00     0.006 A 
ENDROOT
BRANCH   7   8
HETATM    8  C12 UNL     1      24.733   2.782  52.296  1.00  0.00     0.090 A 
HETATM    9  C13 UNL     1      24.096   3.554  53.271  1.00  0.00     0.053 A 
HETATM   10  C14 UNL     1      23.348   4.539  52.650  1.00  0.00     0.123 A 
HETATM   11  N1  UNL     1      23.531   4.361  51.351  1.00  0.00    -0.220 N 
HETATM   12  N3  UNL     1      24.334   3.343  51.131  1.00  0.00    -0.165 NA
BRANCH  11  13
HETATM   13  C15 UNL     1      22.987   5.113  50.169  1.00  0.00     0.195 A 
HETATM   14  N2  UNL     1      23.044   5.173  48.995  1.00  0.00    -0.198 NA
HETATM   15  C16 UNL     1      22.360   6.035  48.260  1.00  0.00     0.171 A 
HETATM   16  C17 UNL     1      21.477   6.966  49.027  1.00  0.00     0.111 A 
HETATM   17  S1  UNL     1      21.838   6.363  50.787  1.00  0.00    -0.058 SA
BRANCH  15  18
HETATM   18  O1  UNL     1      22.636   5.867  46.888  1.00  0.00    -0.344 OA
HETATM   19  H11 UNL     1      23.578   5.488  46.701  1.00  0.00     0.219 HD
ENDBRANCH  15  18
ENDBRANCH  11  13
ENDBRANCH   7   8
BRANCH   1  20
HETATM   20  C5  UNL     1      23.781   0.143  52.890  1.00  0.00    -0.025 A 
HETATM   21  C4  UNL     1      23.294  -0.335  54.108  1.00  0.00     0.013 A 
HETATM   22  C3  UNL     1      21.939  -0.557  54.258  1.00  0.00     0.007 A 
HETATM   23  C2  UNL     1      21.066  -0.308  53.208  1.00  0.00    -0.062 A 
HETATM   24  C1  UNL     1      19.611  -0.559  53.410  1.00  0.00     0.048 C 
HETATM   25  C19 UNL     1      21.522   0.168  51.987  1.00  0.00     0.007 A 
HETATM   26  C18 UNL     1      22.879   0.385  51.852  1.00  0.00     0.013 A 
ENDBRANCH   1  20
TORSDOF 4
ENDMDL
MODEL 7
REMARK VINA RESULT:      -7.9      5.126      7.375
REMARK  4 active torsions:
REMARK  status: ('A' for Active; 'I' for Inactive)
REMARK    1  A    between atoms: C5_5  and  C6_6 
REMARK    2  A    between atoms: C11_12  and  C12_13 
REMARK    3  A    between atoms: N1_16  and  C15_17 
REMARK    4  A    between atoms: C16_19  and  O1_20 
ROOT
HETATM    1  C6  UNL     1      24.108   1.877  52.295  1.00  0.00    -0.012 A 
HETATM    2  C7  UNL     1      25.199   1.475  53.041  1.00  0.00     0.037 A 
HETATM    3  C8  UNL     1      25.231   0.324  53.801  1.00  0.00     0.035 A 
HETATM    4 CL1  UNL     1      26.626  -0.147  54.728  1.00  0.00    -0.084 Cl
HETATM    5  C9  UNL     1      24.118  -0.497  53.839  1.00  0.00     0.025 A 
HETATM    6  C10 UNL     1      23.037  -0.083  53.089  1.00  0.00     0.016 A 
HETATM    7  C11 UNL     1      22.961   1.076  52.304  1.00  0.00     0.006 A 
ENDROOT
BRANCH   7   8
HETATM    8  C12 UNL     1      21.723   1.350  51.576  1.00  0.00     0.090 A 
HETATM    9  C13 UNL     1      21.396   0.869  50.306  1.00  0.00     0.053 A 
HETATM   10  C14 UNL     1      20.144   1.341  49.952  1.00  0.00     0.123 A 
HETATM   11  N1  UNL     1      19.738   2.079  50.973  1.00  0.00    -0.220 N 
HETATM   12  N3  UNL     1      20.646   2.093  51.925  1.00  0.00    -0.165 NA
BRANCH  11  13
HETATM   13  C15 UNL     1      18.466   2.850  51.185  1.00  0.00     0.195 A 
HETATM   14  N2  UNL     1      17.853   3.430  52.005  1.00  0.00    -0.198 NA
HETATM   15  C16 UNL     1      16.688   4.019  51.785  1.00  0.00     0.171 A 
HETATM   16  C17 UNL     1      16.170   3.905  50.387  1.00  0.00     0.111 A 
HETATM   17  S1  UNL     1      17.576   2.896  49.613  1.00  0.00    -0.058 SA
BRANCH  15  18
HETATM   18  O1  UNL     1      16.197   4.631  52.957  1.00  0.00    -0.344 OA
HETATM   19  H11 UNL     1      16.899   4.703  53.709  1.00  0.00     0.219 HD
ENDBRANCH  15  18
ENDBRANCH  11  13
ENDBRANCH   7   8
BRANCH   1  20
HETATM   20  C5  UNL     1      24.022   3.062  51.490  1.00  0.00    -0.025 A 
HETATM   21  C4  UNL     1      24.499   2.924  50.184  1.00  0.00     0.013 A 
HETATM   22  C3  UNL     1      24.459   4.007  49.329  1.00  0.00     0.007 A 
HETATM   23  C2  UNL     1      23.951   5.225  49.760  1.00  0.00    -0.062 A 
HETATM   24  C1  UNL     1      23.925   6.370  48.807  1.00  0.00     0.048 C 
HETATM   25  C19 UNL     1      23.470   5.390  51.052  1.00  0.00     0.007 A 
HETATM   26  C18 UNL     1      23.516   4.298  51.895  1.00  0.00     0.013 A 
ENDBRANCH   1  20
TORSDOF 4
ENDMDL
MODEL 8
REMARK VINA RESULT:      -7.8      4.545      6.727
REMARK  4 active torsions:
REMARK  status: ('A' for Active; 'I' for Inactive)
REMARK    1  A    between atoms: C5_5  and  C6_6 
REMARK    2  A    between atoms: C11_12  and  C12_13 
REMARK    3  A    between atoms: N1_16  and  C15_17 
REMARK    4  A    between atoms: C16_19  and  O1_20 
ROOT
HETATM    1  C6  UNL     1      25.362   1.321  52.541  1.00  0.00    -0.012 A 
HETATM    2  C7  UNL     1      26.739   1.225  52.594  1.00  0.00     0.037 A 
HETATM    3  C8  UNL     1      27.418   0.109  53.040  1.00  0.00     0.035 A 
HETATM    4 CL1  UNL     1      29.155   0.028  53.090  1.00  0.00    -0.084 Cl
HETATM    5  C9  UNL     1      26.703  -0.996  53.466  1.00  0.00     0.025 A 
HETATM    6  C10 UNL     1      25.329  -0.885  53.407  1.00  0.00     0.016 A 
HETATM    7  C11 UNL     1      24.599   0.226  52.963  1.00  0.00     0.006 A 
ENDROOT
BRANCH   7   8
HETATM    8  C12 UNL     1      23.139   0.157  52.975  1.00  0.00     0.090 A 
HETATM    9  C13 UNL     1      22.346  -0.217  54.062  1.00  0.00     0.053 A 
HETATM   10  C14 UNL     1      21.014  -0.160  53.690  1.00  0.00     0.123 A 
HETATM   11  N1  UNL     1      21.012   0.232  52.426  1.00  0.00    -0.220 N 
HETATM   12  N3  UNL     1      22.241   0.421  51.997  1.00  0.00    -0.165 NA
BRANCH  11  13
HETATM   13  C15 UNL     1      19.875   0.479  51.475  1.00  0.00     0.195 A 
HETATM   14  N2  UNL     1      19.607   1.014  50.461  1.00  0.00    -0.198 NA
HETATM   15  C16 UNL     1      18.404   1.000  49.909  1.00  0.00     0.171 A 
HETATM   16  C17 UNL     1      17.363   0.242  50.667  1.00  0.00     0.111 A 
HETATM   17  S1  UNL     1      18.409  -0.344  52.136  1.00  0.00    -0.058 SA
BRANCH  15  18
HETATM   18  O1  UNL     1      18.390   1.727  48.700  1.00  0.00    -0.344 OA
HETATM   19  H11 UNL     1      17.449   2.051  48.426  1.00  0.00     0.219 HD
ENDBRANCH  15  18
ENDBRANCH  11  13
ENDBRANCH   7   8
BRANCH   1  20
HETATM   20  C5  UNL     1      24.608   2.455  52.089  1.00  0.00    -0.025 A 
HETATM   21  C4  UNL     1      24.186   3.323  53.098  1.00  0.00     0.013 A 
HETATM   22  C3  UNL     1      23.454   4.446  52.766  1.00  0.00     0.007 A 
HETATM   23  C2  UNL     1      23.137   4.712  51.442  1.00  0.00    -0.062 A 
HETATM   24  C1  UNL     1      22.346   5.934  51.124  1.00  0.00     0.048 C 
HETATM   25  C19 UNL     1      23.545   3.867  50.419  1.00  0.00     0.007 A 
HETATM   26  C18 UNL     1      24.276   2.749  50.765  1.00  0.00     0.013 A 
ENDBRANCH   1  20
TORSDOF 4
ENDMDL
MODEL 9
REMARK VINA RESULT:      -7.7      4.450      6.262
REMARK  4 active torsions:
REMARK  status: ('A' for Active; 'I' for Inactive)
REMARK    1  A    between atoms: C5_5  and  C6_6 
REMARK    2  A    between atoms: C11_12  and  C12_13 
REMARK    3  A    between atoms: N1_16  and  C15_17 
REMARK    4  A    between atoms: C16_19  and  O1_20 
ROOT
HETATM    1  C6  UNL     1      22.578   1.274  51.418  1.00  0.00    -0.012 A 
HETATM    2  C7  UNL     1      22.030   0.228  52.134  1.00  0.00     0.037 A 
HETATM    3  C8  UNL     1      22.668  -0.408  53.180  1.00  0.00     0.035 A 
HETATM    4 CL1  UNL     1      21.942  -1.724  54.058  1.00  0.00    -0.084 Cl
HETATM    5  C9  UNL     1      23.933   0.006  53.557  1.00  0.00     0.025 A 
HETATM    6  C10 UNL     1      24.466   1.051  52.833  1.00  0.00     0.016 A 
HETATM    7  C11 UNL     1      23.856   1.724  51.765  1.00  0.00     0.006 A 
ENDROOT
BRANCH   7   8
HETATM    8  C12 UNL     1      24.583   2.815  51.116  1.00  0.00     0.090 A 
HETATM    9  C13 UNL     1      25.747   2.684  50.355  1.00  0.00     0.053 A 
HETATM   10  C14 UNL     1      26.136   3.934  49.907  1.00  0.00     0.123 A 
HETATM   11  N1  UNL     1      25.238   4.781  50.384  1.00  0.00    -0.220 N 
HETATM   12  N3  UNL     1      24.328   4.144  51.089  1.00  0.00    -0.165 NA
BRANCH  11  13
HETATM   13  C15 UNL     1      25.118   6.272  50.241  1.00  0.00     0.195 A 
HETATM   14  N2  UNL     1      25.697   7.278  50.440  1.00  0.00    -0.198 NA
HETATM   15  C16 UNL     1      25.220   8.479  50.153  1.00  0.00     0.171 A 
HETATM   16  C17 UNL     1      23.856   8.494  49.542  1.00  0.00     0.111 A 
HETATM   17  S1  UNL     1      23.510   6.631  49.499  1.00  0.00    -0.058 SA
BRANCH  15  18
HETATM   18  O1  UNL     1      26.139   9.489  50.504  1.00  0.00    -0.344 OA
HETATM   19  H11 UNL     1      25.694  10.396  50.714  1.00  0.00     0.219 HD
ENDBRANCH  15  18
ENDBRANCH  11  13
ENDBRANCH   7   8
BRANCH   1  20
HETATM   20  C5  UNL     1      21.960   1.967  50.324  1.00  0.00    -0.025 A 
HETATM   21  C4  UNL     1      21.029   2.941  50.693  1.00  0.00     0.013 A 
HETATM   22  C3  UNL     1      20.380   3.665  49.713  1.00  0.00     0.007 A 
HETATM   23  C2  UNL     1      20.646   3.428  48.372  1.00  0.00    -0.062 A 
HETATM   24  C1  UNL     1      19.925   4.231  47.344  1.00  0.00     0.048 C 
HETATM   25  C19 UNL     1      21.567   2.468  47.977  1.00  0.00     0.007 A 
HETATM   26  C18 UNL     1      22.209   1.752  48.967  1.00  0.00     0.013 A 
ENDBRANCH   1  20
TORSDOF 4
ENDMDL
