MODEL 1
REMARK VINA RESULT:      -7.2      0.000      0.000
REMARK  9 active torsions:
REMARK  status: ('A' for Active; 'I' for Inactive)
REMARK    1  A    between atoms: C2_2  and  N1_3 
REMARK    2  A    between atoms: N1_3  and  C3_4 
REMARK    3  A    between atoms: N1_3  and  S1_26 
REMARK    4  A    between atoms: C3_4  and  C4_5 
REMARK    5  A    between atoms: N2_6  and  C5_7 
REMARK    6  A    between atoms: C7_10  and  C8_11 
REMARK    7  A    between atoms: C8_11  and  C9_13 
REMARK    8  A    between atoms: C10_14  and  O2_15 
REMARK    9  A    between atoms: C16_23  and  N4_24 
ROOT
HETATM    1  C5  UNL     1      26.812   4.145  49.522  1.00  0.00     0.749 A 
HETATM    2  N3  UNL     1      25.615   4.777  49.645  1.00  0.00    -0.072 NA
HETATM    3  C6  UNL     1      24.706   4.351  50.542  1.00  0.00     0.156 A 
HETATM    4  C7  UNL     1      24.922   3.278  51.369  1.00  0.00     0.079 A 
HETATM    5  C16 UNL     1      26.136   2.650  51.233  1.00  0.00     0.156 A 
HETATM    6  N5  UNL     1      27.052   3.093  50.318  1.00  0.00    -0.043 NA
ENDROOT
BRANCH   4   7
HETATM    7  C8  UNL     1      23.999   2.810  52.367  1.00  0.00     0.203 C 
HETATM    8  O1  UNL     1      24.397   3.160  53.534  1.00  0.00    -0.286 OA
BRANCH   7   9
HETATM    9  C9  UNL     1      22.777   2.076  52.438  1.00  0.00     0.090 A 
HETATM   10  C10 UNL     1      22.858   0.707  52.636  1.00  0.00     0.085 A 
HETATM   11  C12 UNL     1      21.709  -0.088  52.687  1.00  0.00     0.041 A 
HETATM   12  C13 UNL     1      20.473   0.487  52.539  1.00  0.00     0.048 A 
HETATM   13  C14 UNL     1      20.334   1.842  52.339  1.00  0.00     0.156 A 
HETATM   14  F1  UNL     1      19.097   2.342  52.202  1.00  0.00    -0.203 F 
HETATM   15  C15 UNL     1      21.506   2.562  52.300  1.00  0.00     0.171 A 
HETATM   16  F2  UNL     1      21.267   3.869  52.055  1.00  0.00    -0.202 F 
BRANCH  10  17
HETATM   17  O2  UNL     1      24.068   0.050  52.795  1.00  0.00    -0.355 OA
HETATM   18  C11 UNL     1      24.443  -0.558  54.001  1.00  0.00     0.210 C 
ENDBRANCH  10  17
ENDBRANCH   7   9
ENDBRANCH   4   7
BRANCH   5  19
HETATM   19  N4  UNL     1      26.576   1.523  51.982  1.00  0.00    -0.383 N 
HETATM   20  H15 UNL     1      26.202   1.021  52.799  1.00  0.00     0.157 HD
HETATM   21  H16 UNL     1      27.470   1.006  51.735  1.00  0.00     0.157 HD
ENDBRANCH   5  19
BRANCH   1  22
HETATM   22  N2  UNL     1      27.772   4.592  48.577  1.00  0.00    -0.076 NA
HETATM   23  C4  UNL     1      28.040   5.874  48.535  1.00  0.00     0.130 C 
BRANCH  23  24
HETATM   24  C3  UNL     1      28.999   6.509  47.628  1.00  0.00     0.182 C 
BRANCH  24  25
HETATM   25  N1  UNL     1      30.133   6.975  48.382  1.00  0.00    -0.307 N 
BRANCH  25  26
HETATM   26  C2  UNL     1      30.517   8.306  48.180  1.00  0.00     0.131 C 
HETATM   27  C1  UNL     1      30.465   9.250  49.335  1.00  0.00     0.027 C 
ENDBRANCH  25  26
BRANCH  25  28
HETATM   28  S1  UNL     1      31.384   5.833  48.546  1.00  0.00     0.225 S 
HETATM   29  C17 UNL     1      32.902   6.578  47.992  1.00  0.00     0.186 C 
HETATM   30  O3  UNL     1      31.579   5.567  50.028  1.00  0.00    -0.206 OA
HETATM   31  O4  UNL     1      31.168   4.594  47.759  1.00  0.00    -0.206 OA
ENDBRANCH  25  28
ENDBRANCH  24  25
ENDBRANCH  23  24
ENDBRANCH   1  22
TORSDOF 9
ENDMDL
MODEL 2
REMARK VINA RESULT:      -7.1      1.640      2.537
REMARK  9 active torsions:
REMARK  status: ('A' for Active; 'I' for Inactive)
REMARK    1  A    between atoms: C2_2  and  N1_3 
REMARK    2  A    between atoms: N1_3  and  C3_4 
REMARK    3  A    between atoms: N1_3  and  S1_26 
REMARK    4  A    between atoms: C3_4  and  C4_5 
REMARK    5  A    between atoms: N2_6  and  C5_7 
REMARK    6  A    between atoms: C7_10  and  C8_11 
REMARK    7  A    between atoms: C8_11  and  C9_13 
REMARK    8  A    between atoms: C10_14  and  O2_15 
REMARK    9  A    between atoms: C16_23  and  N4_24 
ROOT
HETATM    1  C5  UNL     1      26.819   4.135  49.519  1.00  0.00     0.749 A 
HETATM    2  N3  UNL     1      27.021   2.965  50.181  1.00  0.00    -0.072 NA
HETATM    3  C6  UNL     1      26.122   2.523  51.080  1.00  0.00     0.156 A 
HETATM    4  C7  UNL     1      24.972   3.208  51.381  1.00  0.00     0.079 A 
HETATM    5  C16 UNL     1      24.781   4.389  50.705  1.00  0.00     0.156 A 
HETATM    6  N5  UNL     1      25.702   4.826  49.792  1.00  0.00    -0.043 NA
ENDROOT
BRANCH   4   7
HETATM    7  C8  UNL     1      23.965   2.759  52.303  1.00  0.00     0.203 C 
HETATM    8  O1  UNL     1      24.012   3.454  53.379  1.00  0.00    -0.286 OA
BRANCH   7   9
HETATM    9  C9  UNL     1      22.935   1.773  52.371  1.00  0.00     0.090 A 
HETATM   10  C10 UNL     1      21.666   2.136  51.950  1.00  0.00     0.085 A 
HETATM   11  C12 UNL     1      20.597   1.238  52.013  1.00  0.00     0.041 A 
HETATM   12  C13 UNL     1      20.795  -0.029  52.500  1.00  0.00     0.048 A 
HETATM   13  C14 UNL     1      22.035  -0.442  52.933  1.00  0.00     0.156 A 
HETATM   14  F1  UNL     1      22.162  -1.694  53.398  1.00  0.00    -0.203 F 
HETATM   15  C15 UNL     1      23.040   0.493  52.842  1.00  0.00     0.171 A 
HETATM   16  F2  UNL     1      24.202   0.007  53.332  1.00  0.00    -0.202 F 
BRANCH  10  17
HETATM   17  O2  UNL     1      21.384   3.395  51.446  1.00  0.00    -0.355 OA
HETATM   18  C11 UNL     1      20.103   3.963  51.510  1.00  0.00     0.210 C 
ENDBRANCH  10  17
ENDBRANCH   7   9
ENDBRANCH   4   7
BRANCH   5  19
HETATM   19  N4  UNL     1      23.666   5.260  50.854  1.00  0.00    -0.383 N 
HETATM   20  H15 UNL     1      23.385   6.140  50.400  1.00  0.00     0.157 HD
HETATM   21  H16 UNL     1      22.894   5.060  51.554  1.00  0.00     0.157 HD
ENDBRANCH   5  19
BRANCH   1  22
HETATM   22  N2  UNL     1      27.765   4.603  48.571  1.00  0.00    -0.076 NA
HETATM   23  C4  UNL     1      28.017   5.889  48.541  1.00  0.00     0.130 C 
BRANCH  23  24
HETATM   24  C3  UNL     1      28.960   6.546  47.633  1.00  0.00     0.182 C 
BRANCH  24  25
HETATM   25  N1  UNL     1      30.107   6.997  48.379  1.00  0.00    -0.307 N 
BRANCH  25  26
HETATM   26  C2  UNL     1      30.505   8.323  48.175  1.00  0.00     0.131 C 
HETATM   27  C1  UNL     1      30.584   9.237  49.353  1.00  0.00     0.027 C 
ENDBRANCH  25  26
BRANCH  25  28
HETATM   28  S1  UNL     1      31.344   5.839  48.533  1.00  0.00     0.225 S 
HETATM   29  C17 UNL     1      32.868   6.566  47.972  1.00  0.00     0.186 C 
HETATM   30  O3  UNL     1      31.544   5.567  50.013  1.00  0.00    -0.206 OA
HETATM   31  O4  UNL     1      31.108   4.605  47.744  1.00  0.00    -0.206 OA
ENDBRANCH  25  28
ENDBRANCH  24  25
ENDBRANCH  23  24
ENDBRANCH   1  22
TORSDOF 9
ENDMDL
MODEL 3
REMARK VINA RESULT:      -7.1      4.093      9.202
REMARK  9 active torsions:
REMARK  status: ('A' for Active; 'I' for Inactive)
REMARK    1  A    between atoms: C2_2  and  N1_3 
REMARK    2  A    between atoms: N1_3  and  C3_4 
REMARK    3  A    between atoms: N1_3  and  S1_26 
REMARK    4  A    between atoms: C3_4  and  C4_5 
REMARK    5  A    between atoms: N2_6  and  C5_7 
REMARK    6  A    between atoms: C7_10  and  C8_11 
REMARK    7  A    between atoms: C8_11  and  C9_13 
REMARK    8  A    between atoms: C10_14  and  O2_15 
REMARK    9  A    between atoms: C16_23  and  N4_24 
ROOT
HETATM    1  C5  UNL     1      26.341   4.320  49.575  1.00  0.00     0.749 A 
HETATM    2  N3  UNL     1      25.685   5.510  49.613  1.00  0.00    -0.072 NA
HETATM    3  C6  UNL     1      26.249   6.619  49.099  1.00  0.00     0.156 A 
HETATM    4  C7  UNL     1      27.492   6.622  48.518  1.00  0.00     0.079 A 
HETATM    5  C16 UNL     1      28.143   5.413  48.486  1.00  0.00     0.156 A 
HETATM    6  N5  UNL     1      27.559   4.293  49.012  1.00  0.00    -0.043 NA
ENDROOT
BRANCH   4   7
HETATM    7  C8  UNL     1      28.117   7.770  47.922  1.00  0.00     0.203 C 
HETATM    8  O1  UNL     1      28.114   7.661  46.645  1.00  0.00    -0.286 OA
BRANCH   7   9
HETATM    9  C9  UNL     1      28.737   8.989  48.333  1.00  0.00     0.090 A 
HETATM   10  C10 UNL     1      30.075   8.945  48.685  1.00  0.00     0.085 A 
HETATM   11  C12 UNL     1      30.747  10.089  49.128  1.00  0.00     0.041 A 
HETATM   12  C13 UNL     1      30.078  11.282  49.220  1.00  0.00     0.048 A 
HETATM   13  C14 UNL     1      28.747  11.383  48.883  1.00  0.00     0.156 A 
HETATM   14  F1  UNL     1      28.151  12.579  48.995  1.00  0.00    -0.203 F 
HETATM   15  C15 UNL     1      28.150  10.219  48.456  1.00  0.00     0.171 A 
HETATM   16  F2  UNL     1      26.838  10.412  48.195  1.00  0.00    -0.202 F 
BRANCH  10  17
HETATM   17  O2  UNL     1      30.822   7.780  48.621  1.00  0.00    -0.355 OA
HETATM   18  C11 UNL     1      31.814   7.466  49.561  1.00  0.00     0.210 C 
ENDBRANCH  10  17
ENDBRANCH   7   9
ENDBRANCH   4   7
BRANCH   5  19
HETATM   19  N4  UNL     1      29.433   5.180  47.935  1.00  0.00    -0.383 N 
HETATM   20  H15 UNL     1      30.372   5.074  48.342  1.00  0.00     0.157 HD
HETATM   21  H16 UNL     1      29.580   5.074  46.889  1.00  0.00     0.157 HD
ENDBRANCH   5  19
BRANCH   1  22
HETATM   22  N2  UNL     1      25.750   3.149  50.117  1.00  0.00    -0.076 NA
HETATM   23  C4  UNL     1      26.350   2.575  51.131  1.00  0.00     0.130 C 
BRANCH  23  24
HETATM   24  C3  UNL     1      25.885   1.365  51.814  1.00  0.00     0.182 C 
BRANCH  24  25
HETATM   25  N1  UNL     1      26.685   1.143  52.990  1.00  0.00    -0.307 N 
BRANCH  25  26
HETATM   26  C2  UNL     1      28.056   1.397  52.874  1.00  0.00     0.131 C 
HETATM   27  C1  UNL     1      28.689   2.365  53.817  1.00  0.00     0.027 C 
ENDBRANCH  25  26
BRANCH  25  28
HETATM   28  S1  UNL     1      26.232  -0.223  53.899  1.00  0.00     0.225 S 
HETATM   29  C17 UNL     1      24.497  -0.521  53.640  1.00  0.00     0.186 C 
HETATM   30  O3  UNL     1      26.944  -1.429  53.312  1.00  0.00    -0.206 OA
HETATM   31  O4  UNL     1      26.458  -0.072  55.358  1.00  0.00    -0.206 OA
ENDBRANCH  25  28
ENDBRANCH  24  25
ENDBRANCH  23  24
ENDBRANCH   1  22
TORSDOF 9
ENDMDL
MODEL 4
REMARK VINA RESULT:      -6.8      1.940      2.235
REMARK  9 active torsions:
REMARK  status: ('A' for Active; 'I' for Inactive)
REMARK    1  A    between atoms: C2_2  and  N1_3 
REMARK    2  A    between atoms: N1_3  and  C3_4 
REMARK    3  A    between atoms: N1_3  and  S1_26 
REMARK    4  A    between atoms: C3_4  and  C4_5 
REMARK    5  A    between atoms: N2_6  and  C5_7 
REMARK    6  A    between atoms: C7_10  and  C8_11 
REMARK    7  A    between atoms: C8_11  and  C9_13 
REMARK    8  A    between atoms: C10_14  and  O2_15 
REMARK    9  A    between atoms: C16_23  and  N4_24 
ROOT
HETATM    1  C5  UNL     1      26.636   4.217  49.517  1.00  0.00     0.749 A 
HETATM    2  N3  UNL     1      25.394   4.721  49.739  1.00  0.00    -0.072 NA
HETATM    3  C6  UNL     1      24.596   4.185  50.681  1.00  0.00     0.156 A 
HETATM    4  C7  UNL     1      24.973   3.119  51.458  1.00  0.00     0.079 A 
HETATM    5  C16 UNL     1      26.230   2.619  51.222  1.00  0.00     0.156 A 
HETATM    6  N5  UNL     1      27.033   3.174  50.262  1.00  0.00    -0.043 NA
ENDROOT
BRANCH   4   7
HETATM    7  C8  UNL     1      24.172   2.537  52.500  1.00  0.00     0.203 C 
HETATM    8  O1  UNL     1      24.587   2.931  53.647  1.00  0.00    -0.286 OA
BRANCH   7   9
HETATM    9  C9  UNL     1      23.057   1.655  52.631  1.00  0.00     0.090 A 
HETATM   10  C10 UNL     1      23.317   0.322  52.901  1.00  0.00     0.085 A 
HETATM   11  C12 UNL     1      22.282  -0.611  53.013  1.00  0.00     0.041 A 
HETATM   12  C13 UNL     1      20.980  -0.210  52.854  1.00  0.00     0.048 A 
HETATM   13  C14 UNL     1      20.664   1.102  52.584  1.00  0.00     0.156 A 
HETATM   14  F1  UNL     1      19.372   1.429  52.440  1.00  0.00    -0.203 F 
HETATM   15  C15 UNL     1      21.732   1.965  52.487  1.00  0.00     0.171 A 
HETATM   16  F2  UNL     1      21.322   3.214  52.176  1.00  0.00    -0.202 F 
BRANCH  10  17
HETATM   17  O2  UNL     1      24.604  -0.163  53.075  1.00  0.00    -0.355 OA
HETATM   18  C11 UNL     1      25.070  -0.639  54.308  1.00  0.00     0.210 C 
ENDBRANCH  10  17
ENDBRANCH   7   9
ENDBRANCH   4   7
BRANCH   5  19
HETATM   19  N4  UNL     1      26.830   1.524  51.905  1.00  0.00    -0.383 N 
HETATM   20  H15 UNL     1      27.470   0.771  51.617  1.00  0.00     0.157 HD
HETATM   21  H16 UNL     1      26.652   1.347  52.936  1.00  0.00     0.157 HD
ENDBRANCH   5  19
BRANCH   1  22
HETATM   22  N2  UNL     1      27.480   4.780  48.524  1.00  0.00    -0.076 NA
HETATM   23  C4  UNL     1      27.714   6.068  48.580  1.00  0.00     0.130 C 
BRANCH  23  24
HETATM   24  C3  UNL     1      28.556   6.816  47.642  1.00  0.00     0.182 C 
BRANCH  24  25
HETATM   25  N1  UNL     1      28.110   8.184  47.586  1.00  0.00    -0.307 N 
BRANCH  25  26
HETATM   26  C2  UNL     1      27.894   8.721  46.313  1.00  0.00     0.131 C 
HETATM   27  C1  UNL     1      28.832   8.354  45.211  1.00  0.00     0.027 C 
ENDBRANCH  25  26
BRANCH  25  28
HETATM   28  S1  UNL     1      28.835   9.206  48.738  1.00  0.00     0.225 S 
HETATM   29  C17 UNL     1      30.461   8.581  49.100  1.00  0.00     0.186 C 
HETATM   30  O3  UNL     1      29.055  10.559  48.084  1.00  0.00    -0.206 OA
HETATM   31  O4  UNL     1      28.083   9.295  50.014  1.00  0.00    -0.206 OA
ENDBRANCH  25  28
ENDBRANCH  24  25
ENDBRANCH  23  24
ENDBRANCH   1  22
TORSDOF 9
ENDMDL
MODEL 5
REMARK VINA RESULT:      -6.7      4.555      9.336
REMARK  9 active torsions:
REMARK  status: ('A' for Active; 'I' for Inactive)
REMARK    1  A    between atoms: C2_2  and  N1_3 
REMARK    2  A    between atoms: N1_3  and  C3_4 
REMARK    3  A    between atoms: N1_3  and  S1_26 
REMARK    4  A    between atoms: C3_4  and  C4_5 
REMARK    5  A    between atoms: N2_6  and  C5_7 
REMARK    6  A    between atoms: C7_10  and  C8_11 
REMARK    7  A    between atoms: C8_11  and  C9_13 
REMARK    8  A    between atoms: C10_14  and  O2_15 
REMARK    9  A    between atoms: C16_23  and  N4_24 
ROOT
HETATM    1  C5  UNL     1      26.316   4.264  49.498  1.00  0.00     0.749 A 
HETATM    2  N3  UNL     1      25.599   5.419  49.461  1.00  0.00    -0.072 NA
HETATM    3  C6  UNL     1      26.136   6.542  48.950  1.00  0.00     0.156 A 
HETATM    4  C7  UNL     1      27.411   6.595  48.445  1.00  0.00     0.079 A 
HETATM    5  C16 UNL     1      28.123   5.422  48.489  1.00  0.00     0.156 A 
HETATM    6  N5  UNL     1      27.565   4.286  49.011  1.00  0.00    -0.043 NA
ENDROOT
BRANCH   4   7
HETATM    7  C8  UNL     1      28.013   7.759  47.855  1.00  0.00     0.203 C 
HETATM    8  O1  UNL     1      28.399   7.498  46.662  1.00  0.00    -0.286 OA
BRANCH   7   9
HETATM    9  C9  UNL     1      28.305   9.112  48.207  1.00  0.00     0.090 A 
HETATM   10  C10 UNL     1      27.334  10.067  47.955  1.00  0.00     0.085 A 
HETATM   11  C12 UNL     1      27.554  11.418  48.242  1.00  0.00     0.041 A 
HETATM   12  C13 UNL     1      28.749  11.816  48.783  1.00  0.00     0.048 A 
HETATM   13  C14 UNL     1      29.749  10.909  49.053  1.00  0.00     0.156 A 
HETATM   14  F1  UNL     1      30.894  11.364  49.582  1.00  0.00    -0.203 F 
HETATM   15  C15 UNL     1      29.464   9.599  48.745  1.00  0.00     0.171 A 
HETATM   16  F2  UNL     1      30.521   8.797  49.004  1.00  0.00    -0.202 F 
BRANCH  10  17
HETATM   17  O2  UNL     1      26.101   9.746  47.410  1.00  0.00    -0.355 OA
HETATM   18  C11 UNL     1      24.931  10.452  47.726  1.00  0.00     0.210 C 
ENDBRANCH  10  17
ENDBRANCH   7   9
ENDBRANCH   4   7
BRANCH   5  19
HETATM   19  N4  UNL     1      29.456   5.242  48.024  1.00  0.00    -0.383 N 
HETATM   20  H15 UNL     1      30.346   5.723  48.214  1.00  0.00     0.157 HD
HETATM   21  H16 UNL     1      29.705   4.478  47.331  1.00  0.00     0.157 HD
ENDBRANCH   5  19
BRANCH   1  22
HETATM   22  N2  UNL     1      25.752   3.079  50.037  1.00  0.00    -0.076 NA
HETATM   23  C4  UNL     1      26.347   2.533  51.070  1.00  0.00     0.130 C 
BRANCH  23  24
HETATM   24  C3  UNL     1      25.908   1.314  51.753  1.00  0.00     0.182 C 
BRANCH  24  25
HETATM   25  N1  UNL     1      26.690   1.127  52.947  1.00  0.00    -0.307 N 
BRANCH  25  26
HETATM   26  C2  UNL     1      28.059   1.400  52.849  1.00  0.00     0.131 C 
HETATM   27  C1  UNL     1      28.666   2.375  53.803  1.00  0.00     0.027 C 
ENDBRANCH  25  26
BRANCH  25  28
HETATM   28  S1  UNL     1      26.243  -0.228  53.874  1.00  0.00     0.225 S 
HETATM   29  C17 UNL     1      24.493  -0.488  53.683  1.00  0.00     0.186 C 
HETATM   30  O3  UNL     1      26.905  -1.450  53.260  1.00  0.00    -0.206 OA
HETATM   31  O4  UNL     1      26.529  -0.082  55.322  1.00  0.00    -0.206 OA
ENDBRANCH  25  28
ENDBRANCH  24  25
ENDBRANCH  23  24
ENDBRANCH   1  22
TORSDOF 9
ENDMDL
MODEL 6
REMARK VINA RESULT:      -6.6      3.541      4.552
REMARK  9 active torsions:
REMARK  status: ('A' for Active; 'I' for Inactive)
REMARK    1  A    between atoms: C2_2  and  N1_3 
REMARK    2  A    between atoms: N1_3  and  C3_4 
REMARK    3  A    between atoms: N1_3  and  S1_26 
REMARK    4  A    between atoms: C3_4  and  C4_5 
REMARK    5  A    between atoms: N2_6  and  C5_7 
REMARK    6  A    between atoms: C7_10  and  C8_11 
REMARK    7  A    between atoms: C8_11  and  C9_13 
REMARK    8  A    between atoms: C10_14  and  O2_15 
REMARK    9  A    between atoms: C16_23  and  N4_24 
ROOT
HETATM    1  C5  UNL     1      25.045   3.922  49.964  1.00  0.00     0.749 A 
HETATM    2  N3  UNL     1      24.092   2.955  50.036  1.00  0.00    -0.072 NA
HETATM    3  C6  UNL     1      24.288   1.855  50.787  1.00  0.00     0.156 A 
HETATM    4  C7  UNL     1      25.435   1.641  51.508  1.00  0.00     0.079 A 
HETATM    5  C16 UNL     1      26.389   2.625  51.425  1.00  0.00     0.156 A 
HETATM    6  N5  UNL     1      26.177   3.739  50.660  1.00  0.00    -0.043 NA
ENDROOT
BRANCH   4   7
HETATM    7  C8  UNL     1      25.674   0.502  52.352  1.00  0.00     0.203 C 
HETATM    8  O1  UNL     1      26.545  -0.269  51.816  1.00  0.00    -0.286 OA
BRANCH   7   9
HETATM    9  C9  UNL     1      25.229  -0.017  53.606  1.00  0.00     0.090 A 
HETATM   10  C10 UNL     1      26.052   0.159  54.705  1.00  0.00     0.085 A 
HETATM   11  C12 UNL     1      25.703  -0.346  55.962  1.00  0.00     0.041 A 
HETATM   12  C13 UNL     1      24.525  -1.031  56.120  1.00  0.00     0.048 A 
HETATM   13  C14 UNL     1      23.670  -1.235  55.061  1.00  0.00     0.156 A 
HETATM   14  F1  UNL     1      22.534  -1.913  55.282  1.00  0.00    -0.203 F 
HETATM   15  C15 UNL     1      24.077  -0.712  53.855  1.00  0.00     0.171 A 
HETATM   16  F2  UNL     1      23.195  -1.004  52.874  1.00  0.00    -0.202 F 
BRANCH  10  17
HETATM   17  O2  UNL     1      27.257   0.839  54.629  1.00  0.00    -0.355 OA
HETATM   18  C11 UNL     1      28.496   0.197  54.774  1.00  0.00     0.210 C 
ENDBRANCH  10  17
ENDBRANCH   7   9
ENDBRANCH   4   7
BRANCH   5  19
HETATM   19  N4  UNL     1      27.649   2.617  52.086  1.00  0.00    -0.383 N 
HETATM   20  H15 UNL     1      28.022   2.111  52.901  1.00  0.00     0.157 HD
HETATM   21  H16 UNL     1      28.456   3.223  51.753  1.00  0.00     0.157 HD
ENDBRANCH   5  19
BRANCH   1  22
HETATM   22  N2  UNL     1      24.841   5.082  49.173  1.00  0.00    -0.076 NA
HETATM   23  C4  UNL     1      25.831   5.936  49.073  1.00  0.00     0.130 C 
BRANCH  23  24
HETATM   24  C3  UNL     1      25.799   7.182  48.304  1.00  0.00     0.182 C 
BRANCH  24  25
HETATM   25  N1  UNL     1      25.463   8.275  49.179  1.00  0.00    -0.307 N 
BRANCH  25  26
HETATM   26  C2  UNL     1      24.142   8.734  49.131  1.00  0.00     0.131 C 
HETATM   27  C1  UNL     1      23.164   8.209  50.129  1.00  0.00     0.027 C 
ENDBRANCH  25  26
BRANCH  25  28
HETATM   28  S1  UNL     1      26.680   9.455  49.326  1.00  0.00     0.225 S 
HETATM   29  C17 UNL     1      27.923   9.138  48.094  1.00  0.00     0.186 C 
HETATM   30  O3  UNL     1      26.074  10.797  48.956  1.00  0.00    -0.206 OA
HETATM   31  O4  UNL     1      27.343   9.467  50.654  1.00  0.00    -0.206 OA
ENDBRANCH  25  28
ENDBRANCH  24  25
ENDBRANCH  23  24
ENDBRANCH   1  22
TORSDOF 9
ENDMDL
MODEL 7
REMARK VINA RESULT:      -6.5      3.632      4.576
REMARK  9 active torsions:
REMARK  status: ('A' for Active; 'I' for Inactive)
REMARK    1  A    between atoms: C2_2  and  N1_3 
REMARK    2  A    between atoms: N1_3  and  C3_4 
REMARK    3  A    between atoms: N1_3  and  S1_26 
REMARK    4  A    between atoms: C3_4  and  C4_5 
REMARK    5  A    between atoms: N2_6  and  C5_7 
REMARK    6  A    between atoms: C7_10  and  C8_11 
REMARK    7  A    between atoms: C8_11  and  C9_13 
REMARK    8  A    between atoms: C10_14  and  O2_15 
REMARK    9  A    between atoms: C16_23  and  N4_24 
ROOT
HETATM    1  C5  UNL     1      24.725   6.443  50.581  1.00  0.00     0.749 A 
HETATM    2  N3  UNL     1      25.578   5.558  49.999  1.00  0.00    -0.072 NA
HETATM    3  C6  UNL     1      25.430   4.235  50.196  1.00  0.00     0.156 A 
HETATM    4  C7  UNL     1      24.435   3.704  50.977  1.00  0.00     0.079 A 
HETATM    5  C16 UNL     1      23.581   4.610  51.558  1.00  0.00     0.156 A 
HETATM    6  N5  UNL     1      23.741   5.953  51.350  1.00  0.00    -0.043 NA
ENDROOT
BRANCH   4   7
HETATM    7  C8  UNL     1      24.213   2.300  51.186  1.00  0.00     0.203 C 
HETATM    8  O1  UNL     1      23.280   1.881  50.414  1.00  0.00    -0.286 OA
BRANCH   7   9
HETATM    9  C9  UNL     1      24.726   1.241  51.995  1.00  0.00     0.090 A 
HETATM   10  C10 UNL     1      23.893   0.711  52.967  1.00  0.00     0.085 A 
HETATM   11  C12 UNL     1      24.330  -0.306  53.820  1.00  0.00     0.041 A 
HETATM   12  C13 UNL     1      25.605  -0.796  53.704  1.00  0.00     0.048 A 
HETATM   13  C14 UNL     1      26.475  -0.305  52.757  1.00  0.00     0.156 A 
HETATM   14  F1  UNL     1      27.709  -0.827  52.695  1.00  0.00    -0.203 F 
HETATM   15  C15 UNL     1      25.979   0.694  51.952  1.00  0.00     0.171 A 
HETATM   16  F2  UNL     1      26.920   1.138  51.090  1.00  0.00    -0.202 F 
BRANCH  10  17
HETATM   17  O2  UNL     1      22.591   1.151  53.149  1.00  0.00    -0.355 OA
HETATM   18  C11 UNL     1      21.645   0.421  53.883  1.00  0.00     0.210 C 
ENDBRANCH  10  17
ENDBRANCH   7   9
ENDBRANCH   4   7
BRANCH   5  19
HETATM   19  N4  UNL     1      22.481   4.290  52.403  1.00  0.00    -0.383 N 
HETATM   20  H15 UNL     1      22.071   4.735  53.235  1.00  0.00     0.157 HD
HETATM   21  H16 UNL     1      21.881   3.431  52.233  1.00  0.00     0.157 HD
ENDBRANCH   5  19
BRANCH   1  22
HETATM   22  N2  UNL     1      24.879   7.838  50.376  1.00  0.00    -0.076 NA
HETATM   23  C4  UNL     1      26.031   8.267  49.921  1.00  0.00     0.130 C 
BRANCH  23  24
HETATM   24  C3  UNL     1      26.367   9.667  49.651  1.00  0.00     0.182 C 
BRANCH  24  25
HETATM   25  N1  UNL     1      27.089   9.755  48.408  1.00  0.00    -0.307 N 
BRANCH  25  26
HETATM   26  C2  UNL     1      27.269   8.560  47.703  1.00  0.00     0.131 C 
HETATM   27  C1  UNL     1      26.653   8.427  46.349  1.00  0.00     0.027 C 
ENDBRANCH  25  26
BRANCH  25  28
HETATM   28  S1  UNL     1      28.402  10.836  48.435  1.00  0.00     0.225 S 
HETATM   29  C17 UNL     1      29.797  10.009  49.167  1.00  0.00     0.186 C 
HETATM   30  O3  UNL     1      28.803  11.115  46.997  1.00  0.00    -0.206 OA
HETATM   31  O4  UNL     1      28.142  12.073  49.213  1.00  0.00    -0.206 OA
ENDBRANCH  25  28
ENDBRANCH  24  25
ENDBRANCH  23  24
ENDBRANCH   1  22
TORSDOF 9
ENDMDL
MODEL 8
REMARK VINA RESULT:      -6.5      4.249      9.819
REMARK  9 active torsions:
REMARK  status: ('A' for Active; 'I' for Inactive)
REMARK    1  A    between atoms: C2_2  and  N1_3 
REMARK    2  A    between atoms: N1_3  and  C3_4 
REMARK    3  A    between atoms: N1_3  and  S1_26 
REMARK    4  A    between atoms: C3_4  and  C4_5 
REMARK    5  A    between atoms: N2_6  and  C5_7 
REMARK    6  A    between atoms: C7_10  and  C8_11 
REMARK    7  A    between atoms: C8_11  and  C9_13 
REMARK    8  A    between atoms: C10_14  and  O2_15 
REMARK    9  A    between atoms: C16_23  and  N4_24 
ROOT
HETATM    1  C5  UNL     1      25.321   5.236  49.805  1.00  0.00     0.749 A 
HETATM    2  N3  UNL     1      26.204   4.309  49.347  1.00  0.00    -0.072 NA
HETATM    3  C6  UNL     1      27.353   4.690  48.760  1.00  0.00     0.156 A 
HETATM    4  C7  UNL     1      27.700   6.006  48.587  1.00  0.00     0.079 A 
HETATM    5  C16 UNL     1      26.799   6.932  49.054  1.00  0.00     0.156 A 
HETATM    6  N5  UNL     1      25.634   6.531  49.651  1.00  0.00    -0.043 NA
ENDROOT
BRANCH   4   7
HETATM    7  C8  UNL     1      28.931   6.462  48.001  1.00  0.00     0.203 C 
HETATM    8  O1  UNL     1      28.693   7.090  46.909  1.00  0.00    -0.286 OA
BRANCH   7   9
HETATM    9  C9  UNL     1      30.331   6.421  48.277  1.00  0.00     0.090 A 
HETATM   10  C10 UNL     1      30.900   7.526  48.886  1.00  0.00     0.085 A 
HETATM   11  C12 UNL     1      32.270   7.577  49.163  1.00  0.00     0.041 A 
HETATM   12  C13 UNL     1      33.075   6.518  48.829  1.00  0.00     0.048 A 
HETATM   13  C14 UNL     1      32.562   5.395  48.221  1.00  0.00     0.156 A 
HETATM   14  F1  UNL     1      33.402   4.394  47.920  1.00  0.00    -0.203 F 
HETATM   15  C15 UNL     1      31.207   5.413  47.979  1.00  0.00     0.171 A 
HETATM   16  F2  UNL     1      30.811   4.290  47.341  1.00  0.00    -0.202 F 
BRANCH  10  17
HETATM   17  O2  UNL     1      30.157   8.636  49.255  1.00  0.00    -0.355 OA
HETATM   18  C11 UNL     1      30.399   9.914  48.732  1.00  0.00     0.210 C 
ENDBRANCH  10  17
ENDBRANCH   7   9
ENDBRANCH   4   7
BRANCH   5  19
HETATM   19  N4  UNL     1      26.948   8.345  48.984  1.00  0.00    -0.383 N 
HETATM   20  H15 UNL     1      26.481   9.084  48.441  1.00  0.00     0.157 HD
HETATM   21  H16 UNL     1      27.665   8.858  49.576  1.00  0.00     0.157 HD
ENDBRANCH   5  19
BRANCH   1  22
HETATM   22  N2  UNL     1      24.108   4.836  50.425  1.00  0.00    -0.076 NA
HETATM   23  C4  UNL     1      24.187   4.180  51.557  1.00  0.00     0.130 C 
BRANCH  23  24
HETATM   24  C3  UNL     1      23.044   3.692  52.333  1.00  0.00     0.182 C 
BRANCH  24  25
HETATM   25  N1  UNL     1      22.916   2.269  52.151  1.00  0.00    -0.307 N 
BRANCH  25  26
HETATM   26  C2  UNL     1      24.083   1.572  51.820  1.00  0.00     0.131 C 
HETATM   27  C1  UNL     1      24.574   0.513  52.750  1.00  0.00     0.027 C 
ENDBRANCH  25  26
BRANCH  25  28
HETATM   28  S1  UNL     1      21.485   1.788  51.366  1.00  0.00     0.225 S 
HETATM   29  C17 UNL     1      20.139   1.912  52.523  1.00  0.00     0.186 C 
HETATM   30  O3  UNL     1      21.184   2.808  50.282  1.00  0.00    -0.206 OA
HETATM   31  O4  UNL     1      21.524   0.396  50.855  1.00  0.00    -0.206 OA
ENDBRANCH  25  28
ENDBRANCH  24  25
ENDBRANCH  23  24
ENDBRANCH   1  22
TORSDOF 9
ENDMDL
MODEL 9
REMARK VINA RESULT:      -6.5      2.423      3.268
REMARK  9 active torsions:
REMARK  status: ('A' for Active; 'I' for Inactive)
REMARK    1  A    between atoms: C2_2  and  N1_3 
REMARK    2  A    between atoms: N1_3  and  C3_4 
REMARK    3  A    between atoms: N1_3  and  S1_26 
REMARK    4  A    between atoms: C3_4  and  C4_5 
REMARK    5  A    between atoms: N2_6  and  C5_7 
REMARK    6  A    between atoms: C7_10  and  C8_11 
REMARK    7  A    between atoms: C8_11  and  C9_13 
REMARK    8  A    between atoms: C10_14  and  O2_15 
REMARK    9  A    between atoms: C16_23  and  N4_24 
ROOT
HETATM    1  C5  UNL     1      27.206   5.633  48.742  1.00  0.00     0.749 A 
HETATM    2  N3  UNL     1      27.512   4.349  49.066  1.00  0.00    -0.072 NA
HETATM    3  C6  UNL     1      26.544   3.484  49.421  1.00  0.00     0.156 A 
HETATM    4  C7  UNL     1      25.218   3.833  49.482  1.00  0.00     0.079 A 
HETATM    5  C16 UNL     1      24.924   5.134  49.152  1.00  0.00     0.156 A 
HETATM    6  N5  UNL     1      25.918   6.003  48.791  1.00  0.00    -0.043 NA
ENDROOT
BRANCH   4   7
HETATM    7  C8  UNL     1      24.146   2.937  49.819  1.00  0.00     0.203 C 
HETATM    8  O1  UNL     1      23.485   2.625  48.766  1.00  0.00    -0.286 OA
BRANCH   7   9
HETATM    9  C9  UNL     1      23.607   2.296  50.975  1.00  0.00     0.090 A 
HETATM   10  C10 UNL     1      22.353   2.695  51.407  1.00  0.00     0.085 A 
HETATM   11  C12 UNL     1      21.767   2.138  52.548  1.00  0.00     0.041 A 
HETATM   12  C13 UNL     1      22.439   1.179  53.262  1.00  0.00     0.048 A 
HETATM   13  C14 UNL     1      23.688   0.746  52.878  1.00  0.00     0.156 A 
HETATM   14  F1  UNL     1      24.291  -0.195  53.620  1.00  0.00    -0.203 F 
HETATM   15  C15 UNL     1      24.203   1.337  51.747  1.00  0.00     0.171 A 
HETATM   16  F2  UNL     1      25.446   0.879  51.481  1.00  0.00    -0.202 F 
BRANCH  10  17
HETATM   17  O2  UNL     1      21.610   3.657  50.742  1.00  0.00    -0.355 OA
HETATM   18  C11 UNL     1      20.383   4.132  51.227  1.00  0.00     0.210 C 
ENDBRANCH  10  17
ENDBRANCH   7   9
ENDBRANCH   4   7
BRANCH   5  19
HETATM   19  N4  UNL     1      23.626   5.715  49.143  1.00  0.00    -0.383 N 
HETATM   20  H15 UNL     1      23.266   6.657  49.350  1.00  0.00     0.157 HD
HETATM   21  H16 UNL     1      22.765   5.150  48.882  1.00  0.00     0.157 HD
ENDBRANCH   5  19
BRANCH   1  22
HETATM   22  N2  UNL     1      28.225   6.547  48.367  1.00  0.00    -0.076 NA
HETATM   23  C4  UNL     1      29.358   6.055  47.929  1.00  0.00     0.130 C 
BRANCH  23  24
HETATM   24  C3  UNL     1      30.514   6.846  47.500  1.00  0.00     0.182 C 
BRANCH  24  25
HETATM   25  N1  UNL     1      31.610   6.619  48.406  1.00  0.00    -0.307 N 
BRANCH  25  26
HETATM   26  C2  UNL     1      32.207   7.755  48.964  1.00  0.00     0.131 C 
HETATM   27  C1  UNL     1      31.335   8.776  49.619  1.00  0.00     0.027 C 
ENDBRANCH  25  26
BRANCH  25  28
HETATM   28  S1  UNL     1      32.651   5.353  47.947  1.00  0.00     0.225 S 
HETATM   29  C17 UNL     1      32.832   5.389  46.178  1.00  0.00     0.186 C 
HETATM   30  O3  UNL     1      34.030   5.660  48.504  1.00  0.00    -0.206 OA
HETATM   31  O4  UNL     1      32.158   4.007  48.331  1.00  0.00    -0.206 OA
ENDBRANCH  25  28
ENDBRANCH  24  25
ENDBRANCH  23  24
ENDBRANCH   1  22
TORSDOF 9
ENDMDL
