MODEL 1
REMARK VINA RESULT:      -9.5      0.000      0.000
REMARK  0 active torsions:
REMARK  status: ('A' for Active; 'I' for Inactive)
ROOT
HETATM    1  O1  UNL     1      26.264   2.160  54.563  1.00  0.00    -0.269 OA
HETATM    2  C1  UNL     1      26.594   2.367  53.396  1.00  0.00     0.260 C 
HETATM    3  C2  UNL     1      28.034   2.309  53.240  1.00  0.00     0.220 C 
HETATM    4  N1  UNL     1      28.718   1.836  54.372  1.00  0.00    -0.398 N 
HETATM    5  C3  UNL     1      28.851   0.499  54.686  1.00  0.00     0.234 C 
HETATM    6  N2  UNL     1      27.803  -0.450  54.864  1.00  0.00    -0.395 N 
HETATM    7  C4  UNL     1      26.724  -0.753  53.896  1.00  0.00     0.046 A 
HETATM    8  C5  UNL     1      27.518  -0.804  52.803  1.00  0.00    -0.014 A 
HETATM    9  C6  UNL     1      26.262  -0.543  52.329  1.00  0.00     0.055 A 
HETATM   10  C7  UNL     1      25.210  -0.428  53.162  1.00  0.00     0.024 A 
HETATM   11  C8  UNL     1      24.351  -0.365  54.187  1.00  0.00    -0.028 A 
HETATM   12  C9  UNL     1      25.612  -0.623  54.662  1.00  0.00     0.054 A 
HETATM   13  C10 UNL     1      24.351   0.234  52.148  1.00  0.00     0.017 C 
HETATM   14  C11 UNL     1      24.544   1.568  52.140  1.00  0.00     0.045 C 
HETATM   15  C12 UNL     1      23.823   2.470  51.225  1.00  0.00     0.092 A 
HETATM   16  C13 UNL     1      22.733   1.914  50.409  1.00  0.00     0.044 A 
HETATM   17  C14 UNL     1      21.431   2.625  50.585  1.00  0.00    -0.026 A 
HETATM   18  C15 UNL     1      21.151   3.632  51.383  1.00  0.00    -0.002 A 
HETATM   19  C16 UNL     1      22.222   4.174  52.232  1.00  0.00     0.027 A 
HETATM   20  C17 UNL     1      23.400   3.590  52.104  1.00  0.00     0.036 A 
HETATM   21  N3  UNL     1      24.628   3.803  52.783  1.00  0.00    -0.295 N 
HETATM   22  N4  UNL     1      25.317   2.559  52.797  1.00  0.00    -0.226 N 
HETATM   23  H3  UNL     1      29.090   2.556  55.015  1.00  0.00     0.155 HD
HETATM   24  H6  UNL     1      27.796  -1.005  55.765  1.00  0.00     0.155 HD
HETATM   25  H18 UNL     1      24.965   4.711  53.203  1.00  0.00     0.187 HD
ENDROOT
TORSDOF 0
ENDMDL
MODEL 2
REMARK VINA RESULT:      -8.7      2.893      6.009
REMARK  0 active torsions:
REMARK  status: ('A' for Active; 'I' for Inactive)
ROOT
HETATM    1  O1  UNL     1      21.944   0.203  54.588  1.00  0.00    -0.269 OA
HETATM    2  C1  UNL     1      22.356  -0.749  53.927  1.00  0.00     0.260 C 
HETATM    3  C2  UNL     1      21.282  -1.668  53.606  1.00  0.00     0.220 C 
HETATM    4  N1  UNL     1      20.000  -1.190  53.925  1.00  0.00    -0.398 N 
HETATM    5  C3  UNL     1      19.286  -0.317  53.129  1.00  0.00     0.234 C 
HETATM    6  N2  UNL     1      19.703   0.967  52.674  1.00  0.00    -0.395 N 
HETATM    7  C4  UNL     1      20.952   1.270  51.939  1.00  0.00     0.046 A 
HETATM    8  C5  UNL     1      20.873   0.230  51.080  1.00  0.00    -0.014 A 
HETATM    9  C6  UNL     1      22.195   0.577  51.110  1.00  0.00     0.055 A 
HETATM   10  C7  UNL     1      22.634   1.595  51.875  1.00  0.00     0.024 A 
HETATM   11  C8  UNL     1      22.803   2.632  52.706  1.00  0.00    -0.028 A 
HETATM   12  C9  UNL     1      21.477   2.280  52.678  1.00  0.00     0.054 A 
HETATM   13  C10 UNL     1      24.056   1.176  51.796  1.00  0.00     0.017 C 
HETATM   14  C11 UNL     1      24.354   0.275  52.752  1.00  0.00     0.045 C 
HETATM   15  C12 UNL     1      25.696  -0.315  52.898  1.00  0.00     0.092 A 
HETATM   16  C13 UNL     1      26.791   0.226  52.078  1.00  0.00     0.044 A 
HETATM   17  C14 UNL     1      27.964   0.690  52.878  1.00  0.00    -0.026 A 
HETATM   18  C15 UNL     1      28.110   0.701  54.184  1.00  0.00    -0.002 A 
HETATM   19  C16 UNL     1      27.009   0.198  55.019  1.00  0.00     0.027 A 
HETATM   20  C17 UNL     1      25.951  -0.240  54.360  1.00  0.00     0.036 A 
HETATM   21  N3  UNL     1      24.703  -0.737  54.818  1.00  0.00    -0.295 N 
HETATM   22  N4  UNL     1      23.737  -0.416  53.826  1.00  0.00    -0.226 N 
HETATM   23  H3  UNL     1      19.615  -1.487  54.838  1.00  0.00     0.155 HD
HETATM   24  H6  UNL     1      19.058   1.784  52.862  1.00  0.00     0.155 HD
HETATM   25  H18 UNL     1      24.524  -1.244  55.727  1.00  0.00     0.187 HD
ENDROOT
TORSDOF 0
ENDMDL
MODEL 3
REMARK VINA RESULT:      -8.3      2.017      5.902
REMARK  0 active torsions:
REMARK  status: ('A' for Active; 'I' for Inactive)
ROOT
HETATM    1  O1  UNL     1      23.824   4.123  50.757  1.00  0.00    -0.269 OA
HETATM    2  C1  UNL     1      23.786   4.081  51.986  1.00  0.00     0.260 C 
HETATM    3  C2  UNL     1      23.122   5.248  52.531  1.00  0.00     0.220 C 
HETATM    4  N1  UNL     1      22.493   6.056  51.568  1.00  0.00    -0.398 N 
HETATM    5  C3  UNL     1      21.250   5.786  51.034  1.00  0.00     0.234 C 
HETATM    6  N2  UNL     1      20.840   4.593  50.370  1.00  0.00    -0.395 N 
HETATM    7  C4  UNL     1      20.943   3.216  50.904  1.00  0.00     0.046 A 
HETATM    8  C5  UNL     1      20.483   3.505  52.143  1.00  0.00    -0.014 A 
HETATM    9  C6  UNL     1      21.207   2.354  52.282  1.00  0.00     0.055 A 
HETATM   10  C7  UNL     1      21.813   1.776  51.228  1.00  0.00     0.024 A 
HETATM   11  C8  UNL     1      22.305   1.411  50.037  1.00  0.00    -0.028 A 
HETATM   12  C9  UNL     1      21.581   2.569  49.898  1.00  0.00     0.054 A 
HETATM   13  C10 UNL     1      22.694   0.928  52.069  1.00  0.00     0.017 C 
HETATM   14  C11 UNL     1      23.821   1.583  52.410  1.00  0.00     0.045 C 
HETATM   15  C12 UNL     1      24.870   0.977  53.249  1.00  0.00     0.092 A 
HETATM   16  C13 UNL     1      24.759  -0.451  53.586  1.00  0.00     0.044 A 
HETATM   17  C14 UNL     1      25.959  -1.252  53.198  1.00  0.00    -0.026 A 
HETATM   18  C15 UNL     1      27.048  -0.847  52.583  1.00  0.00    -0.002 A 
HETATM   19  C16 UNL     1      27.157   0.570  52.206  1.00  0.00     0.027 A 
HETATM   20  C17 UNL     1      26.128   1.328  52.540  1.00  0.00     0.036 A 
HETATM   21  N3  UNL     1      25.860   2.700  52.300  1.00  0.00    -0.295 N 
HETATM   22  N4  UNL     1      24.447   2.842  52.223  1.00  0.00    -0.226 N 
HETATM   23  H3  UNL     1      23.039   6.864  51.223  1.00  0.00     0.155 HD
HETATM   24  H6  UNL     1      20.408   4.694  49.410  1.00  0.00     0.155 HD
HETATM   25  H18 UNL     1      26.574   3.471  52.192  1.00  0.00     0.187 HD
ENDROOT
TORSDOF 0
ENDMDL
MODEL 4
REMARK VINA RESULT:      -8.2      2.467      6.035
REMARK  0 active torsions:
REMARK  status: ('A' for Active; 'I' for Inactive)
ROOT
HETATM    1  O1  UNL     1      21.879   1.003  53.741  1.00  0.00    -0.269 OA
HETATM    2  C1  UNL     1      22.262   0.096  53.003  1.00  0.00     0.260 C 
HETATM    3  C2  UNL     1      21.147  -0.542  52.334  1.00  0.00     0.220 C 
HETATM    4  N1  UNL     1      19.920   0.122  52.497  1.00  0.00    -0.398 N 
HETATM    5  C3  UNL     1      19.538   1.222  51.756  1.00  0.00     0.234 C 
HETATM    6  N2  UNL     1      20.242   2.454  51.622  1.00  0.00    -0.395 N 
HETATM    7  C4  UNL     1      21.650   2.614  51.192  1.00  0.00     0.046 A 
HETATM    8  C5  UNL     1      21.588   1.744  50.159  1.00  0.00    -0.014 A 
HETATM    9  C6  UNL     1      22.912   1.822  50.491  1.00  0.00     0.055 A 
HETATM   10  C7  UNL     1      23.337   2.614  51.493  1.00  0.00     0.024 A 
HETATM   11  C8  UNL     1      23.492   3.467  52.513  1.00  0.00    -0.028 A 
HETATM   12  C9  UNL     1      22.163   3.386  52.183  1.00  0.00     0.054 A 
HETATM   13  C10 UNL     1      24.658   1.945  51.597  1.00  0.00     0.017 C 
HETATM   14  C11 UNL     1      24.600   0.874  52.413  1.00  0.00     0.045 C 
HETATM   15  C12 UNL     1      25.770   0.022  52.691  1.00  0.00     0.092 A 
HETATM   16  C13 UNL     1      27.085   0.454  52.193  1.00  0.00     0.044 A 
HETATM   17  C14 UNL     1      28.122   0.562  53.261  1.00  0.00    -0.026 A 
HETATM   18  C15 UNL     1      27.991   0.355  54.553  1.00  0.00    -0.002 A 
HETATM   19  C16 UNL     1      26.673  -0.041  55.070  1.00  0.00     0.027 A 
HETATM   20  C17 UNL     1      25.720  -0.166  54.163  1.00  0.00     0.036 A 
HETATM   21  N3  UNL     1      24.341  -0.475  54.292  1.00  0.00    -0.295 N 
HETATM   22  N4  UNL     1      23.669   0.167  53.216  1.00  0.00    -0.226 N 
HETATM   23  H3  UNL     1      19.310  -0.224  53.257  1.00  0.00     0.155 HD
HETATM   24  H6  UNL     1      19.712   3.344  51.836  1.00  0.00     0.155 HD
HETATM   25  H18 UNL     1      23.896  -1.064  55.047  1.00  0.00     0.187 HD
ENDROOT
TORSDOF 0
ENDMDL
MODEL 5
REMARK VINA RESULT:      -8.2      3.028      5.833
REMARK  0 active torsions:
REMARK  status: ('A' for Active; 'I' for Inactive)
ROOT
HETATM    1  O1  UNL     1      21.590   2.531  51.146  1.00  0.00    -0.269 OA
HETATM    2  C1  UNL     1      22.211   1.602  50.631  1.00  0.00     0.260 C 
HETATM    3  C2  UNL     1      22.201   1.702  49.186  1.00  0.00     0.220 C 
HETATM    4  N1  UNL     1      21.681   2.911  48.695  1.00  0.00    -0.398 N 
HETATM    5  C3  UNL     1      22.405   4.084  48.618  1.00  0.00     0.234 C 
HETATM    6  N2  UNL     1      23.077   4.750  49.684  1.00  0.00    -0.395 N 
HETATM    7  C4  UNL     1      24.081   4.152  50.593  1.00  0.00     0.046 A 
HETATM    8  C5  UNL     1      24.785   3.511  49.633  1.00  0.00    -0.014 A 
HETATM    9  C6  UNL     1      25.065   2.847  50.795  1.00  0.00     0.055 A 
HETATM   10  C7  UNL     1      24.524   3.229  51.968  1.00  0.00     0.024 A 
HETATM   11  C8  UNL     1      23.867   3.807  52.981  1.00  0.00    -0.028 A 
HETATM   12  C9  UNL     1      23.583   4.471  51.814  1.00  0.00     0.054 A 
HETATM   13  C10 UNL     1      24.847   1.950  52.649  1.00  0.00     0.017 C 
HETATM   14  C11 UNL     1      23.878   1.035  52.454  1.00  0.00     0.045 C 
HETATM   15  C12 UNL     1      23.945  -0.326  53.014  1.00  0.00     0.092 A 
HETATM   16  C13 UNL     1      25.027  -0.641  53.960  1.00  0.00     0.044 A 
HETATM   17  C14 UNL     1      24.543  -1.167  55.271  1.00  0.00    -0.026 A 
HETATM   18  C15 UNL     1      23.303  -1.343  55.673  1.00  0.00    -0.002 A 
HETATM   19  C16 UNL     1      22.210  -0.997  54.753  1.00  0.00     0.027 A 
HETATM   20  C17 UNL     1      22.585  -0.540  53.571  1.00  0.00     0.036 A 
HETATM   21  N3  UNL     1      21.827  -0.067  52.468  1.00  0.00    -0.295 N 
HETATM   22  N4  UNL     1      22.630   0.895  51.794  1.00  0.00    -0.226 N 
HETATM   23  H3  UNL     1      20.681   2.905  48.430  1.00  0.00     0.155 HD
HETATM   24  H6  UNL     1      22.852   5.772  49.838  1.00  0.00     0.155 HD
HETATM   25  H18 UNL     1      20.850  -0.366  52.201  1.00  0.00     0.187 HD
ENDROOT
TORSDOF 0
ENDMDL
MODEL 6
REMARK VINA RESULT:      -8.0      2.141      3.429
REMARK  0 active torsions:
REMARK  status: ('A' for Active; 'I' for Inactive)
ROOT
HETATM    1  O1  UNL     1      24.990  -0.562  52.358  1.00  0.00    -0.269 OA
HETATM    2  C1  UNL     1      24.444  -0.276  53.423  1.00  0.00     0.260 C 
HETATM    3  C2  UNL     1      25.288  -0.608  54.553  1.00  0.00     0.220 C 
HETATM    4  N1  UNL     1      26.597  -0.980  54.204  1.00  0.00    -0.398 N 
HETATM    5  C3  UNL     1      27.600  -0.077  53.914  1.00  0.00     0.234 C 
HETATM    6  N2  UNL     1      27.575   0.945  52.921  1.00  0.00    -0.395 N 
HETATM    7  C4  UNL     1      26.544   1.997  52.776  1.00  0.00     0.046 A 
HETATM    8  C5  UNL     1      26.472   2.313  54.089  1.00  0.00    -0.014 A 
HETATM    9  C6  UNL     1      25.284   2.723  53.549  1.00  0.00     0.055 A 
HETATM   10  C7  UNL     1      25.017   2.561  52.239  1.00  0.00     0.024 A 
HETATM   11  C8  UNL     1      25.006   2.289  50.928  1.00  0.00    -0.028 A 
HETATM   12  C9  UNL     1      26.196   1.875  51.471  1.00  0.00     0.054 A 
HETATM   13  C10 UNL     1      23.558   2.777  52.406  1.00  0.00     0.017 C 
HETATM   14  C11 UNL     1      22.927   1.628  52.718  1.00  0.00     0.045 C 
HETATM   15  C12 UNL     1      21.473   1.555  52.946  1.00  0.00     0.092 A 
HETATM   16  C13 UNL     1      20.659   2.746  52.657  1.00  0.00     0.044 A 
HETATM   17  C14 UNL     1      19.546   2.491  51.695  1.00  0.00    -0.026 A 
HETATM   18  C15 UNL     1      19.242   1.372  51.074  1.00  0.00    -0.002 A 
HETATM   19  C16 UNL     1      20.070   0.183  51.325  1.00  0.00     0.027 A 
HETATM   20  C17 UNL     1      21.062   0.351  52.181  1.00  0.00     0.036 A 
HETATM   21  N3  UNL     1      22.078  -0.537  52.620  1.00  0.00    -0.295 N 
HETATM   22  N4  UNL     1      23.212   0.257  52.945  1.00  0.00    -0.226 N 
HETATM   23  H3  UNL     1      26.777  -1.995  54.119  1.00  0.00     0.155 HD
HETATM   24  H6  UNL     1      28.373   0.969  52.227  1.00  0.00     0.155 HD
HETATM   25  H18 UNL     1      22.009  -1.589  52.687  1.00  0.00     0.187 HD
ENDROOT
TORSDOF 0
ENDMDL
MODEL 7
REMARK VINA RESULT:      -7.9      8.826     11.319
REMARK  0 active torsions:
REMARK  status: ('A' for Active; 'I' for Inactive)
ROOT
HETATM    1  O1  UNL     1      30.827   6.496  49.010  1.00  0.00    -0.269 OA
HETATM    2  C1  UNL     1      30.317   5.821  48.117  1.00  0.00     0.260 C 
HETATM    3  C2  UNL     1      28.871   5.912  48.151  1.00  0.00     0.220 C 
HETATM    4  N1  UNL     1      28.375   6.885  49.034  1.00  0.00    -0.398 N 
HETATM    5  C3  UNL     1      28.300   8.230  48.732  1.00  0.00     0.234 C 
HETATM    6  N2  UNL     1      29.369   9.079  48.320  1.00  0.00    -0.395 N 
HETATM    7  C4  UNL     1      30.284   8.842  47.181  1.00  0.00     0.046 A 
HETATM    8  C5  UNL     1      29.329   8.465  46.301  1.00  0.00    -0.014 A 
HETATM    9  C6  UNL     1      30.494   7.928  45.827  1.00  0.00     0.055 A 
HETATM   10  C7  UNL     1      31.663   8.114  46.469  1.00  0.00     0.024 A 
HETATM   11  C8  UNL     1      32.671   8.445  47.285  1.00  0.00    -0.028 A 
HETATM   12  C9  UNL     1      31.501   8.980  47.763  1.00  0.00     0.054 A 
HETATM   13  C10 UNL     1      32.348   7.010  45.751  1.00  0.00     0.017 C 
HETATM   14  C11 UNL     1      32.150   5.829  46.367  1.00  0.00     0.045 C 
HETATM   15  C12 UNL     1      32.713   4.564  45.863  1.00  0.00     0.092 A 
HETATM   16  C13 UNL     1      33.665   4.620  44.742  1.00  0.00     0.044 A 
HETATM   17  C14 UNL     1      34.974   3.965  45.037  1.00  0.00    -0.026 A 
HETATM   18  C15 UNL     1      35.371   3.394  46.153  1.00  0.00    -0.002 A 
HETATM   19  C16 UNL     1      34.443   3.364  47.294  1.00  0.00     0.027 A 
HETATM   20  C17 UNL     1      33.263   3.918  47.082  1.00  0.00     0.036 A 
HETATM   21  N3  UNL     1      32.155   4.118  47.946  1.00  0.00    -0.295 N 
HETATM   22  N4  UNL     1      31.484   5.289  47.497  1.00  0.00    -0.226 N 
HETATM   23  H3  UNL     1      28.105   6.553  49.976  1.00  0.00     0.155 HD
HETATM   24  H6  UNL     1      29.520   9.971  48.867  1.00  0.00     0.155 HD
HETATM   25  H18 UNL     1      31.884   3.517  48.770  1.00  0.00     0.187 HD
ENDROOT
TORSDOF 0
ENDMDL
MODEL 8
REMARK VINA RESULT:      -7.7      3.042      6.387
REMARK  0 active torsions:
REMARK  status: ('A' for Active; 'I' for Inactive)
ROOT
HETATM    1  O1  UNL     1      25.415   4.722  48.964  1.00  0.00    -0.269 OA
HETATM    2  C1  UNL     1      25.286   5.083  50.134  1.00  0.00     0.260 C 
HETATM    3  C2  UNL     1      25.135   6.521  50.226  1.00  0.00     0.220 C 
HETATM    4  N1  UNL     1      24.961   7.163  48.988  1.00  0.00    -0.398 N 
HETATM    5  C3  UNL     1      23.754   7.231  48.321  1.00  0.00     0.234 C 
HETATM    6  N2  UNL     1      22.928   6.139  47.925  1.00  0.00    -0.395 N 
HETATM    7  C4  UNL     1      22.415   5.067  48.807  1.00  0.00     0.046 A 
HETATM    8  C5  UNL     1      22.041   5.878  49.822  1.00  0.00    -0.014 A 
HETATM    9  C6  UNL     1      22.210   4.644  50.386  1.00  0.00     0.055 A 
HETATM   10  C7  UNL     1      22.585   3.582  49.647  1.00  0.00     0.024 A 
HETATM   11  C8  UNL     1      22.955   2.708  48.703  1.00  0.00    -0.028 A 
HETATM   12  C9  UNL     1      22.788   3.948  48.138  1.00  0.00     0.054 A 
HETATM   13  C10 UNL     1      22.979   2.772  50.827  1.00  0.00     0.017 C 
HETATM   14  C11 UNL     1      24.253   3.023  51.188  1.00  0.00     0.045 C 
HETATM   15  C12 UNL     1      24.900   2.360  52.334  1.00  0.00     0.092 A 
HETATM   16  C13 UNL     1      24.184   1.262  53.002  1.00  0.00     0.044 A 
HETATM   17  C14 UNL     1      24.963  -0.011  53.063  1.00  0.00    -0.026 A 
HETATM   18  C15 UNL     1      26.159  -0.262  52.576  1.00  0.00    -0.002 A 
HETATM   19  C16 UNL     1      26.871   0.816  51.872  1.00  0.00     0.027 A 
HETATM   20  C17 UNL     1      26.231   1.969  51.803  1.00  0.00     0.036 A 
HETATM   21  N3  UNL     1      26.574   3.192  51.171  1.00  0.00    -0.295 N 
HETATM   22  N4  UNL     1      25.356   3.826  50.801  1.00  0.00    -0.226 N 
HETATM   23  H3  UNL     1      25.814   7.553  48.552  1.00  0.00     0.155 HD
HETATM   24  H6  UNL     1      22.639   6.091  46.909  1.00  0.00     0.155 HD
HETATM   25  H18 UNL     1      27.549   3.561  51.000  1.00  0.00     0.187 HD
ENDROOT
TORSDOF 0
ENDMDL
MODEL 9
REMARK VINA RESULT:      -7.5      2.295      3.522
REMARK  0 active torsions:
REMARK  status: ('A' for Active; 'I' for Inactive)
ROOT
HETATM    1  O1  UNL     1      23.517  -1.076  52.799  1.00  0.00    -0.269 OA
HETATM    2  C1  UNL     1      22.991  -0.037  53.195  1.00  0.00     0.260 C 
HETATM    3  C2  UNL     1      22.726  -0.092  54.619  1.00  0.00     0.220 C 
HETATM    4  N1  UNL     1      23.298  -1.199  55.269  1.00  0.00    -0.398 N 
HETATM    5  C3  UNL     1      24.618  -1.259  55.666  1.00  0.00     0.234 C 
HETATM    6  N2  UNL     1      25.771  -1.085  54.846  1.00  0.00    -0.395 N 
HETATM    7  C4  UNL     1      26.054   0.076  53.972  1.00  0.00     0.046 A 
HETATM    8  C5  UNL     1      25.699   1.025  54.868  1.00  0.00    -0.014 A 
HETATM    9  C6  UNL     1      25.592   1.622  53.642  1.00  0.00     0.055 A 
HETATM   10  C7  UNL     1      25.877   0.953  52.510  1.00  0.00     0.024 A 
HETATM   11  C8  UNL     1      26.219   0.078  51.555  1.00  0.00    -0.028 A 
HETATM   12  C9  UNL     1      26.323  -0.523  52.785  1.00  0.00     0.054 A 
HETATM   13  C10 UNL     1      25.187   1.934  51.636  1.00  0.00     0.017 C 
HETATM   14  C11 UNL     1      23.875   1.649  51.522  1.00  0.00     0.045 C 
HETATM   15  C12 UNL     1      22.950   2.466  50.717  1.00  0.00     0.092 A 
HETATM   16  C13 UNL     1      23.511   3.532  49.873  1.00  0.00     0.044 A 
HETATM   17  C14 UNL     1      23.131   3.418  48.434  1.00  0.00    -0.026 A 
HETATM   18  C15 UNL     1      22.405   2.489  47.851  1.00  0.00    -0.002 A 
HETATM   19  C16 UNL     1      21.868   1.397  48.676  1.00  0.00     0.027 A 
HETATM   20  C17 UNL     1      22.163   1.458  49.962  1.00  0.00     0.036 A 
HETATM   21  N3  UNL     1      21.870   0.572  51.031  1.00  0.00    -0.295 N 
HETATM   22  N4  UNL     1      22.924   0.699  51.978  1.00  0.00    -0.226 N 
HETATM   23  H3  UNL     1      22.683  -2.021  55.398  1.00  0.00     0.155 HD
HETATM   24  H6  UNL     1      26.504  -1.846  54.869  1.00  0.00     0.155 HD
HETATM   25  H18 UNL     1      21.033  -0.066  51.108  1.00  0.00     0.187 HD
ENDROOT
TORSDOF 0
ENDMDL
