MODEL 1
REMARK VINA RESULT:      -7.8      0.000      0.000
REMARK  8 active torsions:
REMARK  status: ('A' for Active; 'I' for Inactive)
REMARK    1  A    between atoms: N1_1  and  C1_2 
REMARK    2  A    between atoms: C1_2  and  C2_3 
REMARK    3  A    between atoms: C2_3  and  C3_4 
REMARK    4  A    between atoms: C3_4  and  N2_5 
REMARK       I    between atoms: N2_5  and  C4_6 
REMARK    5  A    between atoms: C4_6  and  C5_8 
REMARK    6  A    between atoms: C8_12  and  N3_13 
REMARK    7  A    between atoms: N3_13  and  C9_14 
REMARK    8  A    between atoms: C12_18  and  C13_19 
ROOT
HETATM    1  C5  UNL     1      29.444   6.236  48.173  1.00  0.00     0.107 A 
HETATM    2  C6  UNL     1      29.635   7.764  47.861  1.00  0.00     0.078 A 
HETATM    3  S1  UNL     1      28.502   6.864  48.205  1.00  0.00    -0.190 SA
HETATM    4  C7  UNL     1      27.552   6.076  48.499  1.00  0.00    -0.010 A 
HETATM    5  C8  UNL     1      26.718   5.351  48.763  1.00  0.00     0.125 A 
HETATM    6  C18 UNL     1      28.279   5.080  48.569  1.00  0.00     0.117 A 
ENDROOT
BRANCH   5   7
HETATM    7  N3  UNL     1      26.655   4.015  49.019  1.00  0.00    -0.204 N 
HETATM    8  H11 UNL     1      27.031   3.445  48.209  1.00  0.00     0.179 HD
BRANCH   7   9
HETATM    9  C9  UNL     1      26.144   3.497  50.240  1.00  0.00     0.723 A 
HETATM   10  N4  UNL     1      24.870   3.810  50.532  1.00  0.00    -0.075 NA
HETATM   11  C10 UNL     1      24.278   3.359  51.677  1.00  0.00     0.139 A 
HETATM   12  C11 UNL     1      25.021   2.558  52.552  1.00  0.00     0.053 A 
HETATM   13  C12 UNL     1      26.321   2.253  52.233  1.00  0.00     0.089 A 
HETATM   14  N6  UNL     1      26.822   2.742  51.082  1.00  0.00    -0.062 NA
BRANCH  13  15
HETATM   15  C13 UNL     1      27.188   1.430  53.065  1.00  0.00     0.011 A 
HETATM   16  C14 UNL     1      28.348   1.974  53.574  1.00  0.00     0.017 A 
HETATM   17  C15 UNL     1      29.218   1.255  54.372  1.00  0.00     0.020 A 
HETATM   18  C16 UNL     1      28.901  -0.056  54.661  1.00  0.00     0.116 A 
HETATM   19  N5  UNL     1      27.759  -0.619  54.172  1.00  0.00    -0.272 NA
HETATM   20  C17 UNL     1      26.923   0.117  53.388  1.00  0.00     0.130 A 
ENDBRANCH  13  15
ENDBRANCH   7   9
ENDBRANCH   5   7
BRANCH   1  21
HETATM   21  C4  UNL     1      30.853   5.558  48.076  1.00  0.00     0.238 C 
HETATM   22  N2  UNL     1      31.794   5.098  47.075  1.00  0.00    -0.360 N 
HETATM   23  H9  UNL     1      31.301   5.341  46.155  1.00  0.00     0.162 HD
HETATM   24  O1  UNL     1      31.735   5.140  48.907  1.00  0.00    -0.272 OA
BRANCH  22  25
HETATM   25  C3  UNL     1      33.047   4.485  47.222  1.00  0.00     0.124 C 
BRANCH  25  26
HETATM   26  C2  UNL     1      33.361   3.281  46.402  1.00  0.00     0.038 C 
BRANCH  26  27
HETATM   27  C1  UNL     1      32.654   2.034  46.933  1.00  0.00     0.112 C 
BRANCH  27  28
HETATM   28  N1  UNL     1      31.425   1.768  46.252  1.00  0.00    -0.430 N 
HETATM   29  H1  UNL     1      30.735   1.198  46.755  1.00  0.00     0.149 HD
HETATM   30  H2  UNL     1      31.074   2.506  45.634  1.00  0.00     0.149 HD
ENDBRANCH  27  28
ENDBRANCH  26  27
ENDBRANCH  25  26
ENDBRANCH  22  25
ENDBRANCH   1  21
TORSDOF 8
ENDMDL
MODEL 2
REMARK VINA RESULT:      -7.8      2.905      4.565
REMARK  8 active torsions:
REMARK  status: ('A' for Active; 'I' for Inactive)
REMARK    1  A    between atoms: N1_1  and  C1_2 
REMARK    2  A    between atoms: C1_2  and  C2_3 
REMARK    3  A    between atoms: C2_3  and  C3_4 
REMARK    4  A    between atoms: C3_4  and  N2_5 
REMARK       I    between atoms: N2_5  and  C4_6 
REMARK    5  A    between atoms: C4_6  and  C5_8 
REMARK    6  A    between atoms: C8_12  and  N3_13 
REMARK    7  A    between atoms: N3_13  and  C9_14 
REMARK    8  A    between atoms: C12_18  and  C13_19 
ROOT
HETATM    1  C5  UNL     1      26.380   5.433  49.053  1.00  0.00     0.107 A 
HETATM    2  C6  UNL     1      25.300   6.455  48.549  1.00  0.00     0.078 A 
HETATM    3  S1  UNL     1      25.306   5.170  49.298  1.00  0.00    -0.190 SA
HETATM    4  C7  UNL     1      25.339   4.074  49.935  1.00  0.00    -0.010 A 
HETATM    5  C8  UNL     1      25.392   3.091  50.503  1.00  0.00     0.125 A 
HETATM    6  C18 UNL     1      26.568   3.976  49.886  1.00  0.00     0.117 A 
ENDROOT
BRANCH   5   7
HETATM    7  N3  UNL     1      26.401   2.266  50.897  1.00  0.00    -0.204 N 
HETATM    8  H11 UNL     1      27.263   2.388  50.292  1.00  0.00     0.179 HD
BRANCH   7   9
HETATM    9  C9  UNL     1      26.271   1.373  51.996  1.00  0.00     0.723 A 
HETATM   10  N4  UNL     1      27.406   1.054  52.639  1.00  0.00    -0.075 NA
HETATM   11  C10 UNL     1      27.394   0.209  53.712  1.00  0.00     0.139 A 
HETATM   12  C11 UNL     1      26.173  -0.325  54.138  1.00  0.00     0.053 A 
HETATM   13  C12 UNL     1      25.026   0.016  53.464  1.00  0.00     0.089 A 
HETATM   14  N6  UNL     1      25.134   0.856  52.417  1.00  0.00    -0.062 NA
BRANCH  13  15
HETATM   15  C13 UNL     1      23.702  -0.477  53.817  1.00  0.00     0.011 A 
HETATM   16  C14 UNL     1      22.640  -0.217  52.976  1.00  0.00     0.017 A 
HETATM   17  C15 UNL     1      21.356  -0.653  53.245  1.00  0.00     0.020 A 
HETATM   18  C16 UNL     1      21.144  -1.374  54.402  1.00  0.00     0.116 A 
HETATM   19  N5  UNL     1      22.176  -1.645  55.251  1.00  0.00    -0.272 NA
HETATM   20  C17 UNL     1      23.430  -1.201  54.957  1.00  0.00     0.130 A 
ENDBRANCH  13  15
ENDBRANCH   7   9
ENDBRANCH   5   7
BRANCH   1  21
HETATM   21  C4  UNL     1      27.783   5.978  48.615  1.00  0.00     0.238 C 
HETATM   22  N2  UNL     1      28.668   7.095  48.877  1.00  0.00    -0.360 N 
HETATM   23  H9  UNL     1      28.125   7.663  49.606  1.00  0.00     0.162 HD
HETATM   24  O1  UNL     1      28.708   5.604  47.811  1.00  0.00    -0.272 OA
BRANCH  22  25
HETATM   25  C3  UNL     1      29.926   7.400  48.339  1.00  0.00     0.124 C 
BRANCH  25  26
HETATM   26  C2  UNL     1      31.078   7.596  49.263  1.00  0.00     0.038 C 
BRANCH  26  27
HETATM   27  C1  UNL     1      31.830   6.288  49.515  1.00  0.00     0.112 C 
BRANCH  27  28
HETATM   28  N1  UNL     1      31.601   5.768  50.827  1.00  0.00    -0.430 N 
HETATM   29  H1  UNL     1      30.844   5.080  50.922  1.00  0.00     0.149 HD
HETATM   30  H2  UNL     1      32.424   5.655  51.426  1.00  0.00     0.149 HD
ENDBRANCH  27  28
ENDBRANCH  26  27
ENDBRANCH  25  26
ENDBRANCH  22  25
ENDBRANCH   1  21
TORSDOF 8
ENDMDL
MODEL 3
REMARK VINA RESULT:      -7.8      1.539      1.815
REMARK  8 active torsions:
REMARK  status: ('A' for Active; 'I' for Inactive)
REMARK    1  A    between atoms: N1_1  and  C1_2 
REMARK    2  A    between atoms: C1_2  and  C2_3 
REMARK    3  A    between atoms: C2_3  and  C3_4 
REMARK    4  A    between atoms: C3_4  and  N2_5 
REMARK       I    between atoms: N2_5  and  C4_6 
REMARK    5  A    between atoms: C4_6  and  C5_8 
REMARK    6  A    between atoms: C8_12  and  N3_13 
REMARK    7  A    between atoms: N3_13  and  C9_14 
REMARK    8  A    between atoms: C12_18  and  C13_19 
ROOT
HETATM    1  C5  UNL     1      30.010   7.024  47.646  1.00  0.00     0.107 A 
HETATM    2  C6  UNL     1      29.996   8.541  47.241  1.00  0.00     0.078 A 
HETATM    3  S1  UNL     1      29.008   7.544  47.733  1.00  0.00    -0.190 SA
HETATM    4  C7  UNL     1      28.185   6.675  48.152  1.00  0.00    -0.010 A 
HETATM    5  C8  UNL     1      27.465   5.880  48.528  1.00  0.00     0.125 A 
HETATM    6  C18 UNL     1      29.025   5.772  48.205  1.00  0.00     0.117 A 
ENDROOT
BRANCH   5   7
HETATM    7  N3  UNL     1      27.580   4.563  48.856  1.00  0.00    -0.204 N 
HETATM    8  H11 UNL     1      28.476   4.144  48.476  1.00  0.00     0.179 HD
BRANCH   7   9
HETATM    9  C9  UNL     1      26.595   3.881  49.621  1.00  0.00     0.723 A 
HETATM   10  N4  UNL     1      25.317   4.068  49.248  1.00  0.00    -0.075 NA
HETATM   11  C10 UNL     1      24.293   3.455  49.910  1.00  0.00     0.139 A 
HETATM   12  C11 UNL     1      24.591   2.619  50.993  1.00  0.00     0.053 A 
HETATM   13  C12 UNL     1      25.905   2.444  51.355  1.00  0.00     0.089 A 
HETATM   14  N6  UNL     1      26.848   3.089  50.644  1.00  0.00    -0.062 NA
BRANCH  13  15
HETATM   15  C13 UNL     1      26.333   1.600  52.462  1.00  0.00     0.011 A 
HETATM   16  C14 UNL     1      26.735   0.306  52.206  1.00  0.00     0.017 A 
HETATM   17  C15 UNL     1      27.155  -0.553  53.204  1.00  0.00     0.020 A 
HETATM   18  C16 UNL     1      27.167  -0.084  54.502  1.00  0.00     0.116 A 
HETATM   19  N5  UNL     1      26.775   1.192  54.783  1.00  0.00    -0.272 NA
HETATM   20  C17 UNL     1      26.366   2.013  53.776  1.00  0.00     0.130 A 
ENDBRANCH  13  15
ENDBRANCH   7   9
ENDBRANCH   5   7
BRANCH   1  21
HETATM   21  C4  UNL     1      31.475   6.501  47.454  1.00  0.00     0.238 C 
HETATM   22  N2  UNL     1      32.258   5.717  46.520  1.00  0.00    -0.360 N 
HETATM   23  H9  UNL     1      31.543   5.468  45.761  1.00  0.00     0.162 HD
HETATM   24  O1  UNL     1      32.578   6.587  48.102  1.00  0.00    -0.272 OA
BRANCH  22  25
HETATM   25  C3  UNL     1      33.611   5.349  46.556  1.00  0.00     0.124 C 
BRANCH  25  26
HETATM   26  C2  UNL     1      33.970   3.908  46.441  1.00  0.00     0.038 C 
BRANCH  26  27
HETATM   27  C1  UNL     1      34.791   3.431  47.640  1.00  0.00     0.112 C 
BRANCH  27  28
HETATM   28  N1  UNL     1      34.798   4.378  48.711  1.00  0.00    -0.430 N 
HETATM   29  H1  UNL     1      34.119   4.222  49.466  1.00  0.00     0.149 HD
HETATM   30  H2  UNL     1      35.706   4.779  48.963  1.00  0.00     0.149 HD
ENDBRANCH  27  28
ENDBRANCH  26  27
ENDBRANCH  25  26
ENDBRANCH  22  25
ENDBRANCH   1  21
TORSDOF 8
ENDMDL
MODEL 4
REMARK VINA RESULT:      -7.7      2.460      2.852
REMARK  8 active torsions:
REMARK  status: ('A' for Active; 'I' for Inactive)
REMARK    1  A    between atoms: N1_1  and  C1_2 
REMARK    2  A    between atoms: C1_2  and  C2_3 
REMARK    3  A    between atoms: C2_3  and  C3_4 
REMARK    4  A    between atoms: C3_4  and  N2_5 
REMARK       I    between atoms: N2_5  and  C4_6 
REMARK    5  A    between atoms: C4_6  and  C5_8 
REMARK    6  A    between atoms: C8_12  and  N3_13 
REMARK    7  A    between atoms: N3_13  and  C9_14 
REMARK    8  A    between atoms: C12_18  and  C13_19 
ROOT
HETATM    1  C5  UNL     1      26.825   6.920  48.458  1.00  0.00     0.107 A 
HETATM    2  C6  UNL     1      25.982   8.194  48.098  1.00  0.00     0.078 A 
HETATM    3  S1  UNL     1      25.704   6.812  48.570  1.00  0.00    -0.190 SA
HETATM    4  C7  UNL     1      25.493   5.627  48.972  1.00  0.00    -0.010 A 
HETATM    5  C8  UNL     1      25.329   4.561  49.331  1.00  0.00     0.125 A 
HETATM    6  C18 UNL     1      26.689   5.323  48.989  1.00  0.00     0.117 A 
ENDROOT
BRANCH   5   7
HETATM    7  N3  UNL     1      26.146   3.511  49.618  1.00  0.00    -0.204 N 
HETATM    8  H11 UNL     1      27.008   3.508  49.001  1.00  0.00     0.179 HD
BRANCH   7   9
HETATM    9  C9  UNL     1      25.841   2.564  50.634  1.00  0.00     0.723 A 
HETATM   10  N4  UNL     1      24.551   2.485  51.005  1.00  0.00    -0.075 NA
HETATM   11  C10 UNL     1      24.148   1.605  51.967  1.00  0.00     0.139 A 
HETATM   12  C11 UNL     1      25.102   0.777  52.570  1.00  0.00     0.053 A 
HETATM   13  C12 UNL     1      26.414   0.877  52.174  1.00  0.00     0.089 A 
HETATM   14  N6  UNL     1      26.720   1.774  51.218  1.00  0.00    -0.062 NA
BRANCH  13  15
HETATM   15  C13 UNL     1      27.491   0.069  52.729  1.00  0.00     0.011 A 
HETATM   16  C14 UNL     1      28.628   0.692  53.199  1.00  0.00     0.017 A 
HETATM   17  C15 UNL     1      29.689  -0.009  53.739  1.00  0.00     0.020 A 
HETATM   18  C16 UNL     1      29.594  -1.384  53.805  1.00  0.00     0.116 A 
HETATM   19  N5  UNL     1      28.481  -2.026  53.349  1.00  0.00    -0.272 NA
HETATM   20  C17 UNL     1      27.452  -1.306  52.821  1.00  0.00     0.130 A 
ENDBRANCH  13  15
ENDBRANCH   7   9
ENDBRANCH   5   7
BRANCH   1  21
HETATM   21  C4  UNL     1      28.335   7.279  48.236  1.00  0.00     0.238 C 
HETATM   22  N2  UNL     1      29.487   7.732  48.989  1.00  0.00    -0.360 N 
HETATM   23  H9  UNL     1      29.104   7.811  49.986  1.00  0.00     0.162 HD
HETATM   24  O1  UNL     1      29.142   7.302  47.240  1.00  0.00    -0.272 OA
BRANCH  22  25
HETATM   25  C3  UNL     1      30.794   8.010  48.565  1.00  0.00     0.124 C 
BRANCH  25  26
HETATM   26  C2  UNL     1      31.936   7.387  49.291  1.00  0.00     0.038 C 
BRANCH  26  27
HETATM   27  C1  UNL     1      31.722   5.888  49.504  1.00  0.00     0.112 C 
BRANCH  27  28
HETATM   28  N1  UNL     1      31.623   5.538  50.886  1.00  0.00    -0.430 N 
HETATM   29  H1  UNL     1      32.498   5.284  51.360  1.00  0.00     0.149 HD
HETATM   30  H2  UNL     1      30.912   6.031  51.434  1.00  0.00     0.149 HD
ENDBRANCH  27  28
ENDBRANCH  26  27
ENDBRANCH  25  26
ENDBRANCH  22  25
ENDBRANCH   1  21
TORSDOF 8
ENDMDL
MODEL 5
REMARK VINA RESULT:      -7.5      4.068      5.679
REMARK  8 active torsions:
REMARK  status: ('A' for Active; 'I' for Inactive)
REMARK    1  A    between atoms: N1_1  and  C1_2 
REMARK    2  A    between atoms: C1_2  and  C2_3 
REMARK    3  A    between atoms: C2_3  and  C3_4 
REMARK    4  A    between atoms: C3_4  and  N2_5 
REMARK       I    between atoms: N2_5  and  C4_6 
REMARK    5  A    between atoms: C4_6  and  C5_8 
REMARK    6  A    between atoms: C8_12  and  N3_13 
REMARK    7  A    between atoms: N3_13  and  C9_14 
REMARK    8  A    between atoms: C12_18  and  C13_19 
ROOT
HETATM    1  C5  UNL     1      24.989   5.963  49.379  1.00  0.00     0.107 A 
HETATM    2  C6  UNL     1      23.990   6.290  48.213  1.00  0.00     0.078 A 
HETATM    3  S1  UNL     1      24.403   5.082  48.975  1.00  0.00    -0.190 SA
HETATM    4  C7  UNL     1      24.772   4.067  49.640  1.00  0.00    -0.010 A 
HETATM    5  C8  UNL     1      25.119   3.172  50.248  1.00  0.00     0.125 A 
HETATM    6  C18 UNL     1      25.571   4.700  50.337  1.00  0.00     0.117 A 
ENDROOT
BRANCH   5   7
HETATM    7  N3  UNL     1      26.011   2.989  51.260  1.00  0.00    -0.204 N 
HETATM    8  H11 UNL     1      26.678   3.809  51.344  1.00  0.00     0.179 HD
BRANCH   7   9
HETATM    9  C9  UNL     1      26.006   1.828  52.080  1.00  0.00     0.723 A 
HETATM   10  N4  UNL     1      27.209   1.325  52.404  1.00  0.00    -0.075 NA
HETATM   11  C10 UNL     1      27.319   0.215  53.193  1.00  0.00     0.139 A 
HETATM   12  C11 UNL     1      26.153  -0.397  53.665  1.00  0.00     0.053 A 
HETATM   13  C12 UNL     1      24.935   0.136  53.320  1.00  0.00     0.089 A 
HETATM   14  N6  UNL     1      24.923   1.232  52.538  1.00  0.00    -0.062 NA
BRANCH  13  15
HETATM   15  C13 UNL     1      23.658  -0.415  53.752  1.00  0.00     0.011 A 
HETATM   16  C14 UNL     1      22.527  -0.162  53.004  1.00  0.00     0.017 A 
HETATM   17  C15 UNL     1      21.282  -0.652  53.351  1.00  0.00     0.020 A 
HETATM   18  C16 UNL     1      21.182  -1.421  54.492  1.00  0.00     0.116 A 
HETATM   19  N5  UNL     1      22.284  -1.688  55.249  1.00  0.00    -0.272 NA
HETATM   20  C17 UNL     1      23.497  -1.190  54.880  1.00  0.00     0.130 A 
ENDBRANCH  13  15
ENDBRANCH   7   9
ENDBRANCH   5   7
BRANCH   1  21
HETATM   21  C4  UNL     1      25.691   7.304  49.785  1.00  0.00     0.238 C 
HETATM   22  N2  UNL     1      27.003   7.920  49.758  1.00  0.00    -0.360 N 
HETATM   23  H9  UNL     1      27.611   7.165  49.300  1.00  0.00     0.162 HD
HETATM   24  O1  UNL     1      25.329   8.409  50.324  1.00  0.00    -0.272 OA
BRANCH  22  25
HETATM   25  C3  UNL     1      27.421   9.181  50.205  1.00  0.00     0.124 C 
BRANCH  25  26
HETATM   26  C2  UNL     1      28.259  10.023  49.306  1.00  0.00     0.038 C 
BRANCH  26  27
HETATM   27  C1  UNL     1      29.692   9.498  49.211  1.00  0.00     0.112 C 
BRANCH  27  28
HETATM   28  N1  UNL     1      30.519   9.962  50.281  1.00  0.00    -0.430 N 
HETATM   29  H1  UNL     1      30.536  10.977  50.440  1.00  0.00     0.149 HD
HETATM   30  H2  UNL     1      30.597   9.351  51.099  1.00  0.00     0.149 HD
ENDBRANCH  27  28
ENDBRANCH  26  27
ENDBRANCH  25  26
ENDBRANCH  22  25
ENDBRANCH   1  21
TORSDOF 8
ENDMDL
MODEL 6
REMARK VINA RESULT:      -7.5      3.763      7.713
REMARK  8 active torsions:
REMARK  status: ('A' for Active; 'I' for Inactive)
REMARK    1  A    between atoms: N1_1  and  C1_2 
REMARK    2  A    between atoms: C1_2  and  C2_3 
REMARK    3  A    between atoms: C2_3  and  C3_4 
REMARK    4  A    between atoms: C3_4  and  N2_5 
REMARK       I    between atoms: N2_5  and  C4_6 
REMARK    5  A    between atoms: C4_6  and  C5_8 
REMARK    6  A    between atoms: C8_12  and  N3_13 
REMARK    7  A    between atoms: N3_13  and  C9_14 
REMARK    8  A    between atoms: C12_18  and  C13_19 
ROOT
HETATM    1  C5  UNL     1      24.592   1.206  53.252  1.00  0.00     0.107 A 
HETATM    2  C6  UNL     1      23.747  -0.106  53.425  1.00  0.00     0.078 A 
HETATM    3  S1  UNL     1      23.531   1.252  52.859  1.00  0.00    -0.190 SA
HETATM    4  C7  UNL     1      23.371   2.417  52.384  1.00  0.00    -0.010 A 
HETATM    5  C8  UNL     1      23.252   3.466  51.964  1.00  0.00     0.125 A 
HETATM    6  C18 UNL     1      24.517   2.785  52.657  1.00  0.00     0.117 A 
ENDROOT
BRANCH   5   7
HETATM    7  N3  UNL     1      24.063   4.554  51.860  1.00  0.00    -0.204 N 
HETATM    8  H11 UNL     1      24.477   4.823  52.798  1.00  0.00     0.179 HD
BRANCH   7   9
HETATM    9  C9  UNL     1      24.302   5.212  50.622  1.00  0.00     0.723 A 
HETATM   10  N4  UNL     1      23.253   5.304  49.787  1.00  0.00    -0.075 NA
HETATM   11  C10 UNL     1      23.370   5.921  48.575  1.00  0.00     0.139 A 
HETATM   12  C11 UNL     1      24.607   6.462  48.208  1.00  0.00     0.053 A 
HETATM   13  C12 UNL     1      25.665   6.355  49.079  1.00  0.00     0.089 A 
HETATM   14  N6  UNL     1      25.456   5.729  50.252  1.00  0.00    -0.062 NA
BRANCH  13  15
HETATM   15  C13 UNL     1      26.995   6.880  48.805  1.00  0.00     0.011 A 
HETATM   16  C14 UNL     1      27.913   6.082  48.154  1.00  0.00     0.017 A 
HETATM   17  C15 UNL     1      29.193   6.511  47.860  1.00  0.00     0.020 A 
HETATM   18  C16 UNL     1      29.553   7.789  48.238  1.00  0.00     0.116 A 
HETATM   19  N5  UNL     1      28.665   8.599  48.881  1.00  0.00    -0.272 NA
HETATM   20  C17 UNL     1      27.410   8.146  49.157  1.00  0.00     0.130 A 
ENDBRANCH  13  15
ENDBRANCH   7   9
ENDBRANCH   5   7
BRANCH   1  21
HETATM   21  C4  UNL     1      26.012   0.932  53.854  1.00  0.00     0.238 C 
HETATM   22  N2  UNL     1      26.993  -0.132  53.938  1.00  0.00    -0.360 N 
HETATM   23  H9  UNL     1      26.528  -0.928  53.392  1.00  0.00     0.162 HD
HETATM   24  O1  UNL     1      26.871   1.597  54.534  1.00  0.00    -0.272 OA
BRANCH  22  25
HETATM   25  C3  UNL     1      28.247  -0.161  54.564  1.00  0.00     0.124 C 
BRANCH  25  26
HETATM   26  C2  UNL     1      29.372  -0.871  53.893  1.00  0.00     0.038 C 
BRANCH  26  27
HETATM   27  C1  UNL     1      28.870  -1.858  52.838  1.00  0.00     0.112 C 
BRANCH  27  28
HETATM   28  N1  UNL     1      28.736  -3.186  53.350  1.00  0.00    -0.430 N 
HETATM   29  H1  UNL     1      29.183  -3.377  54.255  1.00  0.00     0.149 HD
HETATM   30  H2  UNL     1      27.859  -3.672  53.140  1.00  0.00     0.149 HD
ENDBRANCH  27  28
ENDBRANCH  26  27
ENDBRANCH  25  26
ENDBRANCH  22  25
ENDBRANCH   1  21
TORSDOF 8
ENDMDL
MODEL 7
REMARK VINA RESULT:      -7.5      2.628      7.702
REMARK  8 active torsions:
REMARK  status: ('A' for Active; 'I' for Inactive)
REMARK    1  A    between atoms: N1_1  and  C1_2 
REMARK    2  A    between atoms: C1_2  and  C2_3 
REMARK    3  A    between atoms: C2_3  and  C3_4 
REMARK    4  A    between atoms: C3_4  and  N2_5 
REMARK       I    between atoms: N2_5  and  C4_6 
REMARK    5  A    between atoms: C4_6  and  C5_8 
REMARK    6  A    between atoms: C8_12  and  N3_13 
REMARK    7  A    between atoms: N3_13  and  C9_14 
REMARK    8  A    between atoms: C12_18  and  C13_19 
ROOT
HETATM    1  C5  UNL     1      25.079   2.378  51.818  1.00  0.00     0.107 A 
HETATM    2  C6  UNL     1      23.575   2.392  52.272  1.00  0.00     0.078 A 
HETATM    3  S1  UNL     1      24.404   3.092  51.254  1.00  0.00    -0.190 SA
HETATM    4  C7  UNL     1      25.131   3.675  50.395  1.00  0.00    -0.010 A 
HETATM    5  C8  UNL     1      25.803   4.186  49.633  1.00  0.00     0.125 A 
HETATM    6  C18 UNL     1      26.159   3.077  50.725  1.00  0.00     0.117 A 
ENDROOT
BRANCH   5   7
HETATM    7  N3  UNL     1      27.124   4.102  49.313  1.00  0.00    -0.204 N 
HETATM    8  H11 UNL     1      27.538   3.172  49.608  1.00  0.00     0.179 HD
BRANCH   7   9
HETATM    9  C9  UNL     1      27.818   5.156  48.658  1.00  0.00     0.723 A 
HETATM   10  N4  UNL     1      27.087   6.237  48.335  1.00  0.00    -0.075 NA
HETATM   11  C10 UNL     1      27.656   7.309  47.709  1.00  0.00     0.139 A 
HETATM   12  C11 UNL     1      29.021   7.269  47.406  1.00  0.00     0.053 A 
HETATM   13  C12 UNL     1      29.746   6.153  47.746  1.00  0.00     0.089 A 
HETATM   14  N6  UNL     1      29.102   5.144  48.361  1.00  0.00    -0.062 NA
BRANCH  13  15
HETATM   15  C13 UNL     1      31.170   6.001  47.480  1.00  0.00     0.011 A 
HETATM   16  C14 UNL     1      31.699   4.734  47.348  1.00  0.00     0.017 A 
HETATM   17  C15 UNL     1      33.039   4.512  47.096  1.00  0.00     0.020 A 
HETATM   18  C16 UNL     1      33.868   5.608  46.974  1.00  0.00     0.116 A 
HETATM   19  N5  UNL     1      33.371   6.872  47.099  1.00  0.00    -0.272 NA
HETATM   20  C17 UNL     1      32.045   7.057  47.348  1.00  0.00     0.130 A 
ENDBRANCH  13  15
ENDBRANCH   7   9
ENDBRANCH   5   7
BRANCH   1  21
HETATM   21  C4  UNL     1      25.830   1.336  52.715  1.00  0.00     0.238 C 
HETATM   22  N2  UNL     1      26.543   1.270  53.975  1.00  0.00    -0.360 N 
HETATM   23  H9  UNL     1      26.482   2.277  54.336  1.00  0.00     0.162 HD
HETATM   24  O1  UNL     1      26.101   0.085  52.648  1.00  0.00    -0.272 OA
BRANCH  22  25
HETATM   25  C3  UNL     1      27.171   0.186  54.605  1.00  0.00     0.124 C 
BRANCH  25  26
HETATM   26  C2  UNL     1      28.639   0.244  54.847  1.00  0.00     0.038 C 
BRANCH  26  27
HETATM   27  C1  UNL     1      29.406  -0.686  53.907  1.00  0.00     0.112 C 
BRANCH  27  28
HETATM   28  N1  UNL     1      28.578  -1.713  53.356  1.00  0.00    -0.430 N 
HETATM   29  H1  UNL     1      28.919  -2.167  52.500  1.00  0.00     0.149 HD
HETATM   30  H2  UNL     1      28.054  -2.287  54.023  1.00  0.00     0.149 HD
ENDBRANCH  27  28
ENDBRANCH  26  27
ENDBRANCH  25  26
ENDBRANCH  22  25
ENDBRANCH   1  21
TORSDOF 8
ENDMDL
MODEL 8
REMARK VINA RESULT:      -7.5      2.624      7.712
REMARK  8 active torsions:
REMARK  status: ('A' for Active; 'I' for Inactive)
REMARK    1  A    between atoms: N1_1  and  C1_2 
REMARK    2  A    between atoms: C1_2  and  C2_3 
REMARK    3  A    between atoms: C2_3  and  C3_4 
REMARK    4  A    between atoms: C3_4  and  N2_5 
REMARK       I    between atoms: N2_5  and  C4_6 
REMARK    5  A    between atoms: C4_6  and  C5_8 
REMARK    6  A    between atoms: C8_12  and  N3_13 
REMARK    7  A    between atoms: N3_13  and  C9_14 
REMARK    8  A    between atoms: C12_18  and  C13_19 
ROOT
HETATM    1  C5  UNL     1      24.517   4.136  50.562  1.00  0.00     0.107 A 
HETATM    2  C6  UNL     1      23.023   4.610  50.466  1.00  0.00     0.078 A 
HETATM    3  S1  UNL     1      24.319   4.985  49.839  1.00  0.00    -0.190 SA
HETATM    4  C7  UNL     1      25.436   5.287  49.320  1.00  0.00    -0.010 A 
HETATM    5  C8  UNL     1      26.448   5.540  48.869  1.00  0.00     0.125 A 
HETATM    6  C18 UNL     1      26.063   4.432  49.952  1.00  0.00     0.117 A 
ENDROOT
BRANCH   5   7
HETATM    7  N3  UNL     1      27.712   5.058  49.023  1.00  0.00    -0.204 N 
HETATM    8  H11 UNL     1      27.739   4.243  49.699  1.00  0.00     0.179 HD
BRANCH   7   9
HETATM    9  C9  UNL     1      28.827   5.611  48.335  1.00  0.00     0.723 A 
HETATM   10  N4  UNL     1      28.621   6.787  47.718  1.00  0.00    -0.075 NA
HETATM   11  C10 UNL     1      29.625   7.409  47.034  1.00  0.00     0.139 A 
HETATM   12  C11 UNL     1      30.885   6.802  46.983  1.00  0.00     0.053 A 
HETATM   13  C12 UNL     1      31.071   5.600  47.621  1.00  0.00     0.089 A 
HETATM   14  N6  UNL     1      30.023   5.061  48.271  1.00  0.00    -0.062 NA
BRANCH  13  15
HETATM   15  C13 UNL     1      32.336   4.878  47.635  1.00  0.00     0.011 A 
HETATM   16  C14 UNL     1      32.382   3.591  47.143  1.00  0.00     0.017 A 
HETATM   17  C15 UNL     1      33.546   2.845  47.123  1.00  0.00     0.020 A 
HETATM   18  C16 UNL     1      34.696   3.423  47.618  1.00  0.00     0.116 A 
HETATM   19  N5  UNL     1      34.679   4.695  48.110  1.00  0.00    -0.272 NA
HETATM   20  C17 UNL     1      33.516   5.403  48.116  1.00  0.00     0.130 A 
ENDBRANCH  13  15
ENDBRANCH   7   9
ENDBRANCH   5   7
BRANCH   1  21
HETATM   21  C4  UNL     1      24.572   2.967  51.604  1.00  0.00     0.238 C 
HETATM   22  N2  UNL     1      24.682   1.523  51.644  1.00  0.00    -0.360 N 
HETATM   23  H9  UNL     1      24.749   1.261  50.607  1.00  0.00     0.162 HD
HETATM   24  O1  UNL     1      24.536   2.867  52.882  1.00  0.00    -0.272 OA
BRANCH  22  25
HETATM   25  C3  UNL     1      24.701   0.645  52.737  1.00  0.00     0.124 C 
BRANCH  25  26
HETATM   26  C2  UNL     1      25.935  -0.145  53.006  1.00  0.00     0.038 C 
BRANCH  26  27
HETATM   27  C1  UNL     1      26.529   0.180  54.377  1.00  0.00     0.112 C 
BRANCH  27  28
HETATM   28  N1  UNL     1      26.738   1.581  54.565  1.00  0.00    -0.430 N 
HETATM   29  H1  UNL     1      26.729   2.165  53.720  1.00  0.00     0.149 HD
HETATM   30  H2  UNL     1      26.367   1.989  55.429  1.00  0.00     0.149 HD
ENDBRANCH  27  28
ENDBRANCH  26  27
ENDBRANCH  25  26
ENDBRANCH  22  25
ENDBRANCH   1  21
TORSDOF 8
ENDMDL
MODEL 9
REMARK VINA RESULT:      -7.5      4.185      5.206
REMARK  8 active torsions:
REMARK  status: ('A' for Active; 'I' for Inactive)
REMARK    1  A    between atoms: N1_1  and  C1_2 
REMARK    2  A    between atoms: C1_2  and  C2_3 
REMARK    3  A    between atoms: C2_3  and  C3_4 
REMARK    4  A    between atoms: C3_4  and  N2_5 
REMARK       I    between atoms: N2_5  and  C4_6 
REMARK    5  A    between atoms: C4_6  and  C5_8 
REMARK    6  A    between atoms: C8_12  and  N3_13 
REMARK    7  A    between atoms: N3_13  and  C9_14 
REMARK    8  A    between atoms: C12_18  and  C13_19 
ROOT
HETATM    1  C5  UNL     1      23.984   6.461  50.393  1.00  0.00     0.107 A 
HETATM    2  C6  UNL     1      22.751   7.354  50.007  1.00  0.00     0.078 A 
HETATM    3  S1  UNL     1      22.990   6.139  50.831  1.00  0.00    -0.190 SA
HETATM    4  C7  UNL     1      23.220   5.104  51.527  1.00  0.00    -0.010 A 
HETATM    5  C8  UNL     1      23.450   4.178  52.144  1.00  0.00     0.125 A 
HETATM    6  C18 UNL     1      24.430   5.096  51.281  1.00  0.00     0.117 A 
ENDROOT
BRANCH   5   7
HETATM    7  N3  UNL     1      24.578   3.467  52.420  1.00  0.00    -0.204 N 
HETATM    8  H11 UNL     1      25.445   4.074  52.363  1.00  0.00     0.179 HD
BRANCH   7   9
HETATM    9  C9  UNL     1      24.546   2.084  52.746  1.00  0.00     0.723 A 
HETATM   10  N4  UNL     1      23.337   1.566  53.021  1.00  0.00    -0.075 NA
HETATM   11  C10 UNL     1      23.192   0.247  53.341  1.00  0.00     0.139 A 
HETATM   12  C11 UNL     1      24.328  -0.569  53.378  1.00  0.00     0.053 A 
HETATM   13  C12 UNL     1      25.553  -0.017  53.093  1.00  0.00     0.089 A 
HETATM   14  N6  UNL     1      25.600   1.294  52.789  1.00  0.00    -0.062 NA
BRANCH  13  15
HETATM   15  C13 UNL     1      26.801  -0.767  53.101  1.00  0.00     0.011 A 
HETATM   16  C14 UNL     1      27.969  -0.129  53.461  1.00  0.00     0.017 A 
HETATM   17  C15 UNL     1      29.190  -0.776  53.493  1.00  0.00     0.020 A 
HETATM   18  C16 UNL     1      29.227  -2.111  53.147  1.00  0.00     0.116 A 
HETATM   19  N5  UNL     1      28.087  -2.767  52.788  1.00  0.00    -0.272 NA
HETATM   20  C17 UNL     1      26.899  -2.101  52.767  1.00  0.00     0.130 A 
ENDBRANCH  13  15
ENDBRANCH   7   9
ENDBRANCH   5   7
BRANCH   1  21
HETATM   21  C4  UNL     1      25.244   7.073  49.690  1.00  0.00     0.238 C 
HETATM   22  N2  UNL     1      26.519   7.672  50.030  1.00  0.00    -0.360 N 
HETATM   23  H9  UNL     1      26.520   7.639  51.101  1.00  0.00     0.162 HD
HETATM   24  O1  UNL     1      25.620   7.276  48.482  1.00  0.00    -0.272 OA
BRANCH  22  25
HETATM   25  C3  UNL     1      27.530   8.181  49.202  1.00  0.00     0.124 C 
BRANCH  25  26
HETATM   26  C2  UNL     1      28.301   9.373  49.655  1.00  0.00     0.038 C 
BRANCH  26  27
HETATM   27  C1  UNL     1      29.793   9.231  49.352  1.00  0.00     0.112 C 
BRANCH  27  28
HETATM   28  N1  UNL     1      30.598  10.121  50.129  1.00  0.00    -0.430 N 
HETATM   29  H1  UNL     1      30.104  10.879  50.616  1.00  0.00     0.149 HD
HETATM   30  H2  UNL     1      31.418   9.715  50.589  1.00  0.00     0.149 HD
ENDBRANCH  27  28
ENDBRANCH  26  27
ENDBRANCH  25  26
ENDBRANCH  22  25
ENDBRANCH   1  21
TORSDOF 8
ENDMDL
