MODEL 1
REMARK VINA RESULT:      -7.4      0.000      0.000
REMARK  4 active torsions:
REMARK  status: ('A' for Active; 'I' for Inactive)
REMARK    1  A    between atoms: O1_2  and  C2_3 
REMARK    2  A    between atoms: C8_10  and  O2_11 
REMARK    3  A    between atoms: C10_13  and  O3_14 
REMARK    4  A    between atoms: C16_22  and  O4_23 
ROOT
HETATM    1  C2  UNL     1      23.006   4.734  48.563  1.00  0.00     0.068 C 
HETATM    2  C3  UNL     1      22.548   3.534  48.906  1.00  0.00     0.029 C 
HETATM    3  C4  UNL     1      22.996   2.307  49.645  1.00  0.00     0.144 C 
HETATM    4  N1  UNL     1      22.341   2.175  50.867  1.00  0.00    -0.414 N 
HETATM    5  C5  UNL     1      22.633   1.117  51.742  1.00  0.00     0.155 C 
HETATM    6  C6  UNL     1      23.982   1.064  52.340  1.00  0.00    -0.009 A 
HETATM    7  C7  UNL     1      23.885   0.095  53.361  1.00  0.00     0.050 A 
HETATM    8  C8  UNL     1      24.884  -0.343  54.242  1.00  0.00     0.102 A 
HETATM    9  C10 UNL     1      26.118   0.250  54.088  1.00  0.00     0.103 A 
HETATM   10  C12 UNL     1      26.269   1.201  53.108  1.00  0.00     0.071 A 
HETATM   11  C13 UNL     1      25.277   1.606  52.266  1.00  0.00     0.068 A 
HETATM   12  N2  UNL     1      25.662   2.560  51.342  1.00  0.00    -0.244 NA
HETATM   13  C14 UNL     1      26.769   2.847  50.802  1.00  0.00     0.203 C 
HETATM   14  N3  UNL     1      26.754   3.958  49.838  1.00  0.00    -0.378 N 
HETATM   15  C15 UNL     1      25.620   4.753  50.119  1.00  0.00     0.184 C 
HETATM   16  C16 UNL     1      25.247   5.861  49.243  1.00  0.00     0.066 C 
HETATM   17  C18 UNL     1      24.057   5.722  48.624  1.00  0.00     0.070 C 
HETATM   18  H7  UNL     1      21.424   2.618  50.896  1.00  0.00     0.153 HD
HETATM   19  H19 UNL     1      27.544   3.939  49.171  1.00  0.00     0.160 HD
ENDROOT
BRANCH   1  20
HETATM   20  O1  UNL     1      22.001   5.401  47.796  1.00  0.00    -0.356 OA
HETATM   21  C1  UNL     1      22.186   5.556  46.400  1.00  0.00     0.210 C 
ENDBRANCH   1  20
BRANCH  16  22
HETATM   22  O4  UNL     1      26.167   6.866  49.190  1.00  0.00    -0.358 OA
HETATM   23  C17 UNL     1      26.157   7.951  50.077  1.00  0.00     0.209 C 
ENDBRANCH  16  22
BRANCH   8  24
HETATM   24  O2  UNL     1      24.783  -1.293  55.242  1.00  0.00    -0.353 OA
HETATM   25  C9  UNL     1      23.507  -1.609  55.750  1.00  0.00     0.210 C 
ENDBRANCH   8  24
BRANCH   9  26
HETATM   26  O3  UNL     1      27.179  -0.107  54.902  1.00  0.00    -0.353 OA
HETATM   27  C11 UNL     1      28.479   0.302  54.550  1.00  0.00     0.210 C 
ENDBRANCH   9  26
TORSDOF 4
ENDMDL
MODEL 2
REMARK VINA RESULT:      -7.4      3.280      6.472
REMARK  4 active torsions:
REMARK  status: ('A' for Active; 'I' for Inactive)
REMARK    1  A    between atoms: O1_2  and  C2_3 
REMARK    2  A    between atoms: C8_10  and  O2_11 
REMARK    3  A    between atoms: C10_13  and  O3_14 
REMARK    4  A    between atoms: C16_22  and  O4_23 
ROOT
HETATM    1  C2  UNL     1      26.775   0.219  53.216  1.00  0.00     0.068 C 
HETATM    2  C3  UNL     1      25.794  -0.392  53.872  1.00  0.00     0.029 C 
HETATM    3  C4  UNL     1      24.323  -0.239  54.133  1.00  0.00     0.144 C 
HETATM    4  N1  UNL     1      23.578  -1.202  53.458  1.00  0.00    -0.414 N 
HETATM    5  C5  UNL     1      22.176  -1.224  53.529  1.00  0.00     0.155 C 
HETATM    6  C6  UNL     1      21.435  -0.089  52.944  1.00  0.00    -0.009 A 
HETATM    7  C7  UNL     1      20.091  -0.518  52.908  1.00  0.00     0.050 A 
HETATM    8  C8  UNL     1      18.968   0.181  52.441  1.00  0.00     0.102 A 
HETATM    9  C10 UNL     1      19.210   1.447  51.957  1.00  0.00     0.103 A 
HETATM   10  C12 UNL     1      20.502   1.915  51.969  1.00  0.00     0.071 A 
HETATM   11  C13 UNL     1      21.575   1.212  52.430  1.00  0.00     0.068 A 
HETATM   12  N2  UNL     1      22.778   1.891  52.365  1.00  0.00    -0.244 NA
HETATM   13  C14 UNL     1      23.082   3.117  52.384  1.00  0.00     0.203 C 
HETATM   14  N3  UNL     1      24.517   3.434  52.298  1.00  0.00    -0.378 N 
HETATM   15  C15 UNL     1      25.165   2.320  51.716  1.00  0.00     0.184 C 
HETATM   16  C16 UNL     1      26.622   2.267  51.623  1.00  0.00     0.066 C 
HETATM   17  C18 UNL     1      27.203   1.278  52.333  1.00  0.00     0.070 C 
HETATM   18  H7  UNL     1      24.089  -2.063  53.266  1.00  0.00     0.153 HD
HETATM   19  H19 UNL     1      24.759   4.368  52.666  1.00  0.00     0.160 HD
ENDROOT
BRANCH   1  20
HETATM   20  O1  UNL     1      27.990  -0.500  53.444  1.00  0.00    -0.356 OA
HETATM   21  C1  UNL     1      28.819  -0.128  54.530  1.00  0.00     0.210 C 
ENDBRANCH   1  20
BRANCH  16  22
HETATM   22  O4  UNL     1      27.167   3.233  50.829  1.00  0.00    -0.358 OA
HETATM   23  C17 UNL     1      26.651   3.556  49.567  1.00  0.00     0.209 C 
ENDBRANCH  16  22
BRANCH   8  24
HETATM   24  O2  UNL     1      17.653  -0.245  52.407  1.00  0.00    -0.353 OA
HETATM   25  C9  UNL     1      17.307  -1.434  53.083  1.00  0.00     0.210 C 
ENDBRANCH   8  24
BRANCH   9  26
HETATM   26  O3  UNL     1      18.176   2.228  51.472  1.00  0.00    -0.353 OA
HETATM   27  C11 UNL     1      18.351   3.621  51.389  1.00  0.00     0.210 C 
ENDBRANCH   9  26
TORSDOF 4
ENDMDL
MODEL 3
REMARK VINA RESULT:      -7.1      1.425      7.980
REMARK  4 active torsions:
REMARK  status: ('A' for Active; 'I' for Inactive)
REMARK    1  A    between atoms: O1_2  and  C2_3 
REMARK    2  A    between atoms: C8_10  and  O2_11 
REMARK    3  A    between atoms: C10_13  and  O3_14 
REMARK    4  A    between atoms: C16_22  and  O4_23 
ROOT
HETATM    1  C2  UNL     1      25.975  -0.036  53.448  1.00  0.00     0.068 C 
HETATM    2  C3  UNL     1      26.653   0.582  52.485  1.00  0.00     0.029 C 
HETATM    3  C4  UNL     1      26.400   1.376  51.236  1.00  0.00     0.144 C 
HETATM    4  N1  UNL     1      26.715   2.721  51.410  1.00  0.00    -0.414 N 
HETATM    5  C5  UNL     1      26.521   3.655  50.380  1.00  0.00     0.155 C 
HETATM    6  C6  UNL     1      25.137   3.927  49.944  1.00  0.00    -0.009 A 
HETATM    7  C7  UNL     1      25.235   5.079  49.134  1.00  0.00     0.050 A 
HETATM    8  C8  UNL     1      24.209   5.762  48.465  1.00  0.00     0.102 A 
HETATM    9  C10 UNL     1      22.944   5.241  48.621  1.00  0.00     0.103 A 
HETATM   10  C12 UNL     1      22.791   4.119  49.401  1.00  0.00     0.071 A 
HETATM   11  C13 UNL     1      23.809   3.477  50.038  1.00  0.00     0.068 A 
HETATM   12  N2  UNL     1      23.424   2.355  50.750  1.00  0.00    -0.244 NA
HETATM   13  C14 UNL     1      22.467   1.538  50.628  1.00  0.00     0.203 C 
HETATM   14  N3  UNL     1      22.414   0.446  51.613  1.00  0.00    -0.378 N 
HETATM   15  C15 UNL     1      23.153   0.856  52.747  1.00  0.00     0.184 C 
HETATM   16  C16 UNL     1      23.407  -0.068  53.849  1.00  0.00     0.066 C 
HETATM   17  C18 UNL     1      24.707  -0.368  54.051  1.00  0.00     0.070 C 
HETATM   18  H7  UNL     1      27.423   2.892  52.123  1.00  0.00     0.153 HD
HETATM   19  H19 UNL     1      21.872  -0.374  51.295  1.00  0.00     0.160 HD
ENDROOT
BRANCH   1  20
HETATM   20  O1  UNL     1      26.910  -0.643  54.343  1.00  0.00    -0.356 OA
HETATM   21  C1  UNL     1      28.075   0.072  54.714  1.00  0.00     0.210 C 
ENDBRANCH   1  20
BRANCH  16  22
HETATM   22  O4  UNL     1      22.285  -0.484  54.501  1.00  0.00    -0.358 OA
HETATM   23  C17 UNL     1      21.723  -1.754  54.310  1.00  0.00     0.209 C 
ENDBRANCH  16  22
BRANCH   8  24
HETATM   24  O2  UNL     1      24.312   6.891  47.673  1.00  0.00    -0.353 OA
HETATM   25  C9  UNL     1      25.535   7.591  47.645  1.00  0.00     0.210 C 
ENDBRANCH   8  24
BRANCH   9  26
HETATM   26  O3  UNL     1      21.855   5.833  48.006  1.00  0.00    -0.353 OA
HETATM   27  C11 UNL     1      20.727   6.162  48.780  1.00  0.00     0.210 C 
ENDBRANCH   9  26
TORSDOF 4
ENDMDL
MODEL 4
REMARK VINA RESULT:      -7.0      1.517      4.013
REMARK  4 active torsions:
REMARK  status: ('A' for Active; 'I' for Inactive)
REMARK    1  A    between atoms: O1_2  and  C2_3 
REMARK    2  A    between atoms: C8_10  and  O2_11 
REMARK    3  A    between atoms: C10_13  and  O3_14 
REMARK    4  A    between atoms: C16_22  and  O4_23 
ROOT
HETATM    1  C2  UNL     1      22.981   4.743  48.511  1.00  0.00     0.068 C 
HETATM    2  C3  UNL     1      24.186   4.777  49.072  1.00  0.00     0.029 C 
HETATM    3  C4  UNL     1      24.907   4.226  50.268  1.00  0.00     0.144 C 
HETATM    4  N1  UNL     1      25.831   3.250  49.906  1.00  0.00    -0.414 N 
HETATM    5  C5  UNL     1      26.594   2.573  50.871  1.00  0.00     0.155 C 
HETATM    6  C6  UNL     1      25.884   1.697  51.824  1.00  0.00    -0.009 A 
HETATM    7  C7  UNL     1      26.904   0.953  52.457  1.00  0.00     0.050 A 
HETATM    8  C8  UNL     1      26.776  -0.028  53.450  1.00  0.00     0.102 A 
HETATM    9  C10 UNL     1      25.489  -0.299  53.860  1.00  0.00     0.103 A 
HETATM   10  C12 UNL     1      24.457   0.397  53.277  1.00  0.00     0.071 A 
HETATM   11  C13 UNL     1      24.613   1.346  52.312  1.00  0.00     0.068 A 
HETATM   12  N2  UNL     1      23.435   1.932  51.886  1.00  0.00    -0.244 NA
HETATM   13  C14 UNL     1      22.313   2.121  52.437  1.00  0.00     0.203 C 
HETATM   14  N3  UNL     1      21.296   2.807  51.623  1.00  0.00    -0.378 N 
HETATM   15  C15 UNL     1      21.653   2.642  50.265  1.00  0.00     0.184 C 
HETATM   16  C16 UNL     1      20.915   3.330  49.209  1.00  0.00     0.066 C 
HETATM   17  C18 UNL     1      21.632   4.229  48.505  1.00  0.00     0.070 C 
HETATM   18  H7  UNL     1      26.187   3.348  48.956  1.00  0.00     0.153 HD
HETATM   19  H19 UNL     1      20.552   3.256  52.182  1.00  0.00     0.160 HD
ENDROOT
BRANCH   1  20
HETATM   20  O1  UNL     1      23.000   5.569  47.345  1.00  0.00    -0.356 OA
HETATM   21  C1  UNL     1      23.324   6.942  47.475  1.00  0.00     0.210 C 
ENDBRANCH   1  20
BRANCH  16  22
HETATM   22  O4  UNL     1      19.609   2.952  49.103  1.00  0.00    -0.358 OA
HETATM   23  C17 UNL     1      18.862   3.127  47.929  1.00  0.00     0.209 C 
ENDBRANCH  16  22
BRANCH   8  24
HETATM   24  O2  UNL     1      27.779  -0.754  54.066  1.00  0.00    -0.353 OA
HETATM   25  C9  UNL     1      28.880  -0.062  54.610  1.00  0.00     0.210 C 
ENDBRANCH   8  24
BRANCH   9  26
HETATM   26  O3  UNL     1      25.244  -1.248  54.837  1.00  0.00    -0.353 OA
HETATM   27  C11 UNL     1      23.981  -1.282  55.456  1.00  0.00     0.210 C 
ENDBRANCH   9  26
TORSDOF 4
ENDMDL
MODEL 5
REMARK VINA RESULT:      -6.8      2.025      7.195
REMARK  4 active torsions:
REMARK  status: ('A' for Active; 'I' for Inactive)
REMARK    1  A    between atoms: O1_2  and  C2_3 
REMARK    2  A    between atoms: C8_10  and  O2_11 
REMARK    3  A    between atoms: C10_13  and  O3_14 
REMARK    4  A    between atoms: C16_22  and  O4_23 
ROOT
HETATM    1  C2  UNL     1      24.886  -0.314  54.121  1.00  0.00     0.068 C 
HETATM    2  C3  UNL     1      23.594  -0.180  53.839  1.00  0.00     0.029 C 
HETATM    3  C4  UNL     1      22.691   0.650  52.973  1.00  0.00     0.144 C 
HETATM    4  N1  UNL     1      22.166  -0.092  51.919  1.00  0.00    -0.414 N 
HETATM    5  C5  UNL     1      21.323   0.495  50.961  1.00  0.00     0.155 C 
HETATM    6  C6  UNL     1      21.894   1.536  50.083  1.00  0.00    -0.009 A 
HETATM    7  C7  UNL     1      20.928   1.719  49.069  1.00  0.00     0.050 A 
HETATM    8  C8  UNL     1      20.971   2.596  47.976  1.00  0.00     0.102 A 
HETATM    9  C10 UNL     1      22.101   3.378  47.881  1.00  0.00     0.103 A 
HETATM   10  C12 UNL     1      23.075   3.239  48.841  1.00  0.00     0.071 A 
HETATM   11  C13 UNL     1      23.004   2.377  49.894  1.00  0.00     0.068 A 
HETATM   12  N2  UNL     1      24.090   2.423  50.748  1.00  0.00    -0.244 NA
HETATM   13  C14 UNL     1      24.921   3.328  51.045  1.00  0.00     0.203 C 
HETATM   14  N3  UNL     1      25.952   2.968  52.032  1.00  0.00    -0.378 N 
HETATM   15  C15 UNL     1      26.066   1.559  52.035  1.00  0.00     0.184 C 
HETATM   16  C16 UNL     1      26.912   0.880  53.013  1.00  0.00     0.066 C 
HETATM   17  C18 UNL     1      26.254   0.072  53.871  1.00  0.00     0.070 C 
HETATM   18  H7  UNL     1      22.099  -1.092  52.108  1.00  0.00     0.153 HD
HETATM   19  H19 UNL     1      26.371   3.783  52.510  1.00  0.00     0.160 HD
ENDROOT
BRANCH   1  20
HETATM   20  O1  UNL     1      25.031  -1.333  55.113  1.00  0.00    -0.356 OA
HETATM   21  C1  UNL     1      23.939  -1.626  55.967  1.00  0.00     0.210 C 
ENDBRANCH   1  20
BRANCH  16  22
HETATM   22  O4  UNL     1      28.239   1.172  52.905  1.00  0.00    -0.358 OA
HETATM   23  C17 UNL     1      29.101   1.206  54.010  1.00  0.00     0.209 C 
ENDBRANCH  16  22
BRANCH   8  24
HETATM   24  O2  UNL     1      20.022   2.771  46.986  1.00  0.00    -0.353 OA
HETATM   25  C9  UNL     1      18.801   3.392  47.319  1.00  0.00     0.210 C 
ENDBRANCH   8  24
BRANCH   9  26
HETATM   26  O3  UNL     1      22.250   4.280  46.842  1.00  0.00    -0.353 OA
HETATM   27  C11 UNL     1      22.458   5.639  47.142  1.00  0.00     0.210 C 
ENDBRANCH   9  26
TORSDOF 4
ENDMDL
MODEL 6
REMARK VINA RESULT:      -6.8      4.448      7.572
REMARK  4 active torsions:
REMARK  status: ('A' for Active; 'I' for Inactive)
REMARK    1  A    between atoms: O1_2  and  C2_3 
REMARK    2  A    between atoms: C8_10  and  O2_11 
REMARK    3  A    between atoms: C10_13  and  O3_14 
REMARK    4  A    between atoms: C16_22  and  O4_23 
ROOT
HETATM    1  C2  UNL     1      24.729  -0.274  53.836  1.00  0.00     0.068 C 
HETATM    2  C3  UNL     1      23.721  -0.798  54.526  1.00  0.00     0.029 C 
HETATM    3  C4  UNL     1      22.232  -0.665  54.655  1.00  0.00     0.144 C 
HETATM    4  N1  UNL     1      21.569  -1.767  54.121  1.00  0.00    -0.414 N 
HETATM    5  C5  UNL     1      20.167  -1.837  54.102  1.00  0.00     0.155 C 
HETATM    6  C6  UNL     1      19.436  -0.862  53.268  1.00  0.00    -0.009 A 
HETATM    7  C7  UNL     1      18.113  -1.349  53.222  1.00  0.00     0.050 A 
HETATM    8  C8  UNL     1      17.006  -0.798  52.560  1.00  0.00     0.102 A 
HETATM    9  C10 UNL     1      17.243   0.368  51.867  1.00  0.00     0.103 A 
HETATM   10  C12 UNL     1      18.516   0.887  51.879  1.00  0.00     0.071 A 
HETATM   11  C13 UNL     1      19.573   0.328  52.533  1.00  0.00     0.068 A 
HETATM   12  N2  UNL     1      20.755   1.037  52.425  1.00  0.00    -0.244 NA
HETATM   13  C14 UNL     1      21.019   2.258  52.237  1.00  0.00     0.203 C 
HETATM   14  N3  UNL     1      22.446   2.617  52.190  1.00  0.00    -0.378 N 
HETATM   15  C15 UNL     1      23.170   1.446  51.869  1.00  0.00     0.184 C 
HETATM   16  C16 UNL     1      24.631   1.442  51.885  1.00  0.00     0.066 C 
HETATM   17  C18 UNL     1      25.188   0.625  52.803  1.00  0.00     0.070 C 
HETATM   18  H7  UNL     1      22.120  -2.625  54.127  1.00  0.00     0.153 HD
HETATM   19  H19 UNL     1      22.630   3.613  52.394  1.00  0.00     0.160 HD
ENDROOT
BRANCH   1  20
HETATM   20  O1  UNL     1      25.945  -0.884  54.274  1.00  0.00    -0.356 OA
HETATM   21  C1  UNL     1      26.990  -0.066  54.769  1.00  0.00     0.210 C 
ENDBRANCH   1  20
BRANCH  16  22
HETATM   22  O4  UNL     1      25.203   2.269  50.965  1.00  0.00    -0.358 OA
HETATM   23  C17 UNL     1      26.589   2.449  50.866  1.00  0.00     0.209 C 
ENDBRANCH  16  22
BRANCH   8  24
HETATM   24  O2  UNL     1      15.711  -1.281  52.517  1.00  0.00    -0.353 OA
HETATM   25  C9  UNL     1      15.502  -2.633  52.176  1.00  0.00     0.210 C 
ENDBRANCH   8  24
BRANCH   9  26
HETATM   26  O3  UNL     1      16.224   1.000  51.178  1.00  0.00    -0.353 OA
HETATM   27  C11 UNL     1      16.042   0.715  49.812  1.00  0.00     0.210 C 
ENDBRANCH   9  26
TORSDOF 4
ENDMDL
MODEL 7
REMARK VINA RESULT:      -6.7      2.217      4.028
REMARK  4 active torsions:
REMARK  status: ('A' for Active; 'I' for Inactive)
REMARK    1  A    between atoms: O1_2  and  C2_3 
REMARK    2  A    between atoms: C8_10  and  O2_11 
REMARK    3  A    between atoms: C10_13  and  O3_14 
REMARK    4  A    between atoms: C16_22  and  O4_23 
ROOT
HETATM    1  C2  UNL     1      23.958   7.255  48.536  1.00  0.00     0.068 C 
HETATM    2  C3  UNL     1      25.143   6.697  48.765  1.00  0.00     0.029 C 
HETATM    3  C4  UNL     1      25.789   5.734  49.719  1.00  0.00     0.144 C 
HETATM    4  N1  UNL     1      26.073   4.516  49.107  1.00  0.00    -0.414 N 
HETATM    5  C5  UNL     1      26.647   3.455  49.824  1.00  0.00     0.155 C 
HETATM    6  C6  UNL     1      25.854   2.844  50.910  1.00  0.00    -0.009 A 
HETATM    7  C7  UNL     1      26.547   1.659  51.238  1.00  0.00     0.050 A 
HETATM    8  C8  UNL     1      26.220   0.702  52.209  1.00  0.00     0.102 A 
HETATM    9  C10 UNL     1      25.076   0.952  52.934  1.00  0.00     0.103 A 
HETATM   10  C12 UNL     1      24.362   2.093  52.655  1.00  0.00     0.071 A 
HETATM   11  C13 UNL     1      24.706   3.006  51.704  1.00  0.00     0.068 A 
HETATM   12  N2  UNL     1      23.851   4.089  51.613  1.00  0.00    -0.244 NA
HETATM   13  C14 UNL     1      23.087   4.662  52.441  1.00  0.00     0.203 C 
HETATM   14  N3  UNL     1      22.330   5.819  51.936  1.00  0.00    -0.378 N 
HETATM   15  C15 UNL     1      22.262   5.704  50.529  1.00  0.00     0.184 C 
HETATM   16  C16 UNL     1      21.693   6.777  49.717  1.00  0.00     0.066 C 
HETATM   17  C18 UNL     1      22.558   7.371  48.870  1.00  0.00     0.070 C 
HETATM   18  H7  UNL     1      26.212   4.581  48.099  1.00  0.00     0.153 HD
HETATM   19  H19 UNL     1      22.011   6.462  52.680  1.00  0.00     0.160 HD
ENDROOT
BRANCH   1  20
HETATM   20  O1  UNL     1      24.083   8.144  47.423  1.00  0.00    -0.356 OA
HETATM   21  C1  UNL     1      25.374   8.467  46.938  1.00  0.00     0.210 C 
ENDBRANCH   1  20
BRANCH  16  22
HETATM   22  O4  UNL     1      20.369   7.010  49.947  1.00  0.00    -0.358 OA
HETATM   23  C17 UNL     1      19.351   6.276  49.322  1.00  0.00     0.209 C 
ENDBRANCH  16  22
BRANCH   8  24
HETATM   24  O2  UNL     1      26.903  -0.458  52.526  1.00  0.00    -0.353 OA
HETATM   25  C9  UNL     1      28.103  -0.361  53.259  1.00  0.00     0.210 C 
ENDBRANCH   8  24
BRANCH   9  26
HETATM   26  O3  UNL     1      24.659   0.075  53.919  1.00  0.00    -0.353 OA
HETATM   27  C11 UNL     1      23.408  -0.557  53.788  1.00  0.00     0.210 C 
ENDBRANCH   9  26
TORSDOF 4
ENDMDL
MODEL 8
REMARK VINA RESULT:      -6.6      3.890      6.491
REMARK  4 active torsions:
REMARK  status: ('A' for Active; 'I' for Inactive)
REMARK    1  A    between atoms: O1_2  and  C2_3 
REMARK    2  A    between atoms: C8_10  and  O2_11 
REMARK    3  A    between atoms: C10_13  and  O3_14 
REMARK    4  A    between atoms: C16_22  and  O4_23 
ROOT
HETATM    1  C2  UNL     1      24.972   2.734  51.039  1.00  0.00     0.068 C 
HETATM    2  C3  UNL     1      23.940   2.663  50.204  1.00  0.00     0.029 C 
HETATM    3  C4  UNL     1      22.656   1.905  50.034  1.00  0.00     0.144 C 
HETATM    4  N1  UNL     1      21.547   2.709  50.284  1.00  0.00    -0.414 N 
HETATM    5  C5  UNL     1      20.242   2.196  50.219  1.00  0.00     0.155 C 
HETATM    6  C6  UNL     1      19.852   1.171  51.208  1.00  0.00    -0.009 A 
HETATM    7  C7  UNL     1      18.450   1.067  51.083  1.00  0.00     0.050 A 
HETATM    8  C8  UNL     1      17.574   0.234  51.794  1.00  0.00     0.102 A 
HETATM    9  C10 UNL     1      18.158  -0.586  52.734  1.00  0.00     0.103 A 
HETATM   10  C12 UNL     1      19.521  -0.525  52.896  1.00  0.00     0.071 A 
HETATM   11  C13 UNL     1      20.348   0.295  52.189  1.00  0.00     0.068 A 
HETATM   12  N2  UNL     1      21.688   0.171  52.505  1.00  0.00    -0.244 NA
HETATM   13  C14 UNL     1      22.386  -0.777  52.966  1.00  0.00     0.203 C 
HETATM   14  N3  UNL     1      23.818  -0.499  53.159  1.00  0.00    -0.378 N 
HETATM   15  C15 UNL     1      23.971   0.903  53.253  1.00  0.00     0.184 C 
HETATM   16  C16 UNL     1      25.300   1.508  53.308  1.00  0.00     0.066 C 
HETATM   17  C18 UNL     1      25.606   2.305  52.263  1.00  0.00     0.070 C 
HETATM   18  H7  UNL     1      21.710   3.702  50.119  1.00  0.00     0.153 HD
HETATM   19  H19 UNL     1      24.406  -1.348  53.184  1.00  0.00     0.160 HD
ENDROOT
BRANCH   1  20
HETATM   20  O1  UNL     1      25.895   3.705  50.539  1.00  0.00    -0.356 OA
HETATM   21  C1  UNL     1      25.514   4.521  49.446  1.00  0.00     0.210 C 
ENDBRANCH   1  20
BRANCH  16  22
HETATM   22  O4  UNL     1      26.024   1.169  54.412  1.00  0.00    -0.358 OA
HETATM   23  C17 UNL     1      27.229   0.456  54.339  1.00  0.00     0.209 C 
ENDBRANCH  16  22
BRANCH   8  24
HETATM   24  O2  UNL     1      16.200   0.137  51.668  1.00  0.00    -0.353 OA
HETATM   25  C9  UNL     1      15.398   1.188  52.159  1.00  0.00     0.210 C 
ENDBRANCH   8  24
BRANCH   9  26
HETATM   26  O3  UNL     1      17.389  -1.450  53.493  1.00  0.00    -0.353 OA
HETATM   27  C11 UNL     1      17.837  -2.769  53.693  1.00  0.00     0.210 C 
ENDBRANCH   9  26
TORSDOF 4
ENDMDL
MODEL 9
REMARK VINA RESULT:      -6.5      1.824      2.196
REMARK  4 active torsions:
REMARK  status: ('A' for Active; 'I' for Inactive)
REMARK    1  A    between atoms: O1_2  and  C2_3 
REMARK    2  A    between atoms: C8_10  and  O2_11 
REMARK    3  A    between atoms: C10_13  and  O3_14 
REMARK    4  A    between atoms: C16_22  and  O4_23 
ROOT
HETATM    1  C2  UNL     1      22.481   6.675  49.330  1.00  0.00     0.068 C 
HETATM    2  C3  UNL     1      21.747   5.568  49.279  1.00  0.00     0.029 C 
HETATM    3  C4  UNL     1      21.865   4.102  49.580  1.00  0.00     0.144 C 
HETATM    4  N1  UNL     1      21.128   3.747  50.707  1.00  0.00    -0.414 N 
HETATM    5  C5  UNL     1      21.124   2.430  51.192  1.00  0.00     0.155 C 
HETATM    6  C6  UNL     1      22.390   1.883  51.719  1.00  0.00    -0.009 A 
HETATM    7  C7  UNL     1      22.020   0.692  52.379  1.00  0.00     0.050 A 
HETATM    8  C8  UNL     1      22.843  -0.219  53.056  1.00  0.00     0.102 A 
HETATM    9  C10 UNL     1      24.185   0.090  53.080  1.00  0.00     0.103 A 
HETATM   10  C12 UNL     1      24.601   1.240  52.452  1.00  0.00     0.071 A 
HETATM   11  C13 UNL     1      23.776   2.107  51.801  1.00  0.00     0.068 A 
HETATM   12  N2  UNL     1      24.417   3.187  51.223  1.00  0.00    -0.244 NA
HETATM   13  C14 UNL     1      25.589   3.366  50.785  1.00  0.00     0.203 C 
HETATM   14  N3  UNL     1      25.880   4.696  50.227  1.00  0.00    -0.378 N 
HETATM   15  C15 UNL     1      24.938   5.601  50.767  1.00  0.00     0.184 C 
HETATM   16  C16 UNL     1      24.874   6.983  50.297  1.00  0.00     0.066 C 
HETATM   17  C18 UNL     1      23.721   7.324  49.686  1.00  0.00     0.070 C 
HETATM   18  H7  UNL     1      20.333   4.358  50.891  1.00  0.00     0.153 HD
HETATM   19  H19 UNL     1      26.682   4.706  49.575  1.00  0.00     0.160 HD
ENDROOT
BRANCH   1  20
HETATM   20  O1  UNL     1      21.697   7.763  48.834  1.00  0.00    -0.356 OA
HETATM   21  C1  UNL     1      20.821   8.442  49.716  1.00  0.00     0.210 C 
ENDBRANCH   1  20
BRANCH  16  22
HETATM   22  O4  UNL     1      25.997   7.713  50.552  1.00  0.00    -0.358 OA
HETATM   23  C17 UNL     1      26.855   8.162  49.539  1.00  0.00     0.209 C 
ENDBRANCH  16  22
BRANCH   8  24
HETATM   24  O2  UNL     1      22.474  -1.385  53.702  1.00  0.00    -0.353 OA
HETATM   25  C9  UNL     1      21.267  -1.404  54.431  1.00  0.00     0.210 C 
ENDBRANCH   8  24
BRANCH   9  26
HETATM   26  O3  UNL     1      25.090  -0.738  53.719  1.00  0.00    -0.353 OA
HETATM   27  C11 UNL     1      26.322  -1.014  53.097  1.00  0.00     0.210 C 
ENDBRANCH   9  26
TORSDOF 4
ENDMDL
