MODEL 1
REMARK VINA RESULT:      -7.8      0.000      0.000
REMARK  8 active torsions:
REMARK  status: ('A' for Active; 'I' for Inactive)
REMARK    1  A    between atoms: C2_2  and  C3_3 
REMARK    2  A    between atoms: C2_2  and  C8_10 
REMARK    3  A    between atoms: C3_3  and  N1_4 
REMARK       I    between atoms: C8_10  and  N2_12 
REMARK    4  A    between atoms: N2_12  and  C9_13 
REMARK    5  A    between atoms: C12_16  and  N3_17 
REMARK    6  A    between atoms: C13_18  and  C14_19 
REMARK    7  A    between atoms: C14_19  and  N5_22 
REMARK    8  A    between atoms: C16_23  and  C17_24 
ROOT
HETATM    1  C14 UNL     1      26.548   1.504  53.580  1.00  0.00     0.254 C 
HETATM    2  C15 UNL     1      26.855   2.140  52.295  1.00  0.00     0.092 C 
HETATM    3  N4  UNL     1      27.108   2.630  51.265  1.00  0.00    -0.195 NA
ENDROOT
BRANCH   1   4
HETATM    4  C13 UNL     1      25.166   0.988  53.605  1.00  0.00     0.132 C 
HETATM    5  N3  UNL     1      24.567  -0.121  53.930  1.00  0.00    -0.262 NA
BRANCH   5   6
HETATM    6  C12 UNL     1      23.156  -0.269  53.822  1.00  0.00     0.056 A 
HETATM    7  C11 UNL     1      22.378   0.612  53.100  1.00  0.00     0.034 A 
HETATM    8  C10 UNL     1      21.025   0.388  53.052  1.00  0.00     0.032 A 
HETATM    9  C9  UNL     1      20.357  -0.644  53.663  1.00  0.00     0.035 A 
HETATM   10  C20 UNL     1      21.163  -1.500  54.370  1.00  0.00     0.032 A 
HETATM   11  C19 UNL     1      22.526  -1.320  54.450  1.00  0.00     0.034 A 
BRANCH   9  12
HETATM   12  N2  UNL     1      18.979  -0.904  53.636  1.00  0.00    -0.323 N 
HETATM   13  C8  UNL     1      18.066  -0.804  52.568  1.00  0.00     0.253 C 
HETATM   14  O2  UNL     1      18.465  -0.434  51.439  1.00  0.00    -0.268 OA
HETATM   15  H13 UNL     1      18.478  -1.223  54.493  1.00  0.00     0.169 HD
BRANCH  13  16
HETATM   16  C2  UNL     1      16.648  -1.086  52.602  1.00  0.00     0.029 C 
HETATM   17  C1  UNL     1      17.033  -2.265  53.112  1.00  0.00     0.026 C 
BRANCH  16  18
HETATM   18  C3  UNL     1      15.220  -0.831  52.415  1.00  0.00     0.316 C 
BRANCH  18  19
HETATM   19  N1  UNL     1      14.851   0.387  53.066  1.00  0.00     0.096 N 
HETATM   20  C4  UNL     1      13.488   0.397  53.534  1.00  0.00     0.299 C 
HETATM   21  C5  UNL     1      12.588   1.237  52.693  1.00  0.00     0.198 C 
HETATM   22  O1  UNL     1      13.016   1.182  51.375  1.00  0.00    -0.388 OA
HETATM   23  C6  UNL     1      14.168   1.949  51.291  1.00  0.00     0.198 C 
HETATM   24  C7  UNL     1      15.198   1.568  52.316  1.00  0.00     0.299 C 
ENDBRANCH  18  19
ENDBRANCH  16  18
ENDBRANCH  13  16
ENDBRANCH   9  12
ENDBRANCH   5   6
ENDBRANCH   1   4
BRANCH   1  25
HETATM   25  N5  UNL     1      27.484   0.390  53.701  1.00  0.00    -0.277 NA
HETATM   26  C16 UNL     1      27.652  -0.373  52.679  1.00  0.00     0.111 C 
BRANCH  26  27
HETATM   27  C17 UNL     1      28.631  -1.225  53.387  1.00  0.00     0.031 C 
HETATM   28  C18 UNL     1      29.925  -1.043  53.627  1.00  0.00     0.443 C 
HETATM   29  F1  UNL     1      30.349   0.138  53.107  1.00  0.00    -0.452 F 
ENDBRANCH  26  27
ENDBRANCH   1  25
TORSDOF 8
ENDMDL
MODEL 2
REMARK VINA RESULT:      -7.7      2.186      3.100
REMARK  8 active torsions:
REMARK  status: ('A' for Active; 'I' for Inactive)
REMARK    1  A    between atoms: C2_2  and  C3_3 
REMARK    2  A    between atoms: C2_2  and  C8_10 
REMARK    3  A    between atoms: C3_3  and  N1_4 
REMARK       I    between atoms: C8_10  and  N2_12 
REMARK    4  A    between atoms: N2_12  and  C9_13 
REMARK    5  A    between atoms: C12_16  and  N3_17 
REMARK    6  A    between atoms: C13_18  and  C14_19 
REMARK    7  A    between atoms: C14_19  and  N5_22 
REMARK    8  A    between atoms: C16_23  and  C17_24 
ROOT
HETATM    1  C14 UNL     1      27.062   1.602  52.123  1.00  0.00     0.254 C 
HETATM    2  C15 UNL     1      27.758   2.140  53.297  1.00  0.00     0.092 C 
HETATM    3  N4  UNL     1      28.306   2.586  54.227  1.00  0.00    -0.195 NA
ENDROOT
BRANCH   1   4
HETATM    4  C13 UNL     1      25.690   1.178  52.461  1.00  0.00     0.132 C 
HETATM    5  N3  UNL     1      25.112   0.472  53.390  1.00  0.00    -0.262 NA
BRANCH   5   6
HETATM    6  C12 UNL     1      23.704   0.261  53.401  1.00  0.00     0.056 A 
HETATM    7  C11 UNL     1      22.826   1.134  52.794  1.00  0.00     0.034 A 
HETATM    8  C10 UNL     1      21.485   0.848  52.858  1.00  0.00     0.032 A 
HETATM    9  C9  UNL     1      20.922  -0.241  53.476  1.00  0.00     0.035 A 
HETATM   10  C20 UNL     1      21.827  -1.086  54.067  1.00  0.00     0.032 A 
HETATM   11  C19 UNL     1      23.182  -0.845  54.033  1.00  0.00     0.034 A 
BRANCH   9  12
HETATM   12  N2  UNL     1      19.561  -0.565  53.561  1.00  0.00    -0.323 N 
HETATM   13  C8  UNL     1      18.569  -0.553  52.560  1.00  0.00     0.253 C 
HETATM   14  O2  UNL     1      18.868  -0.214  51.391  1.00  0.00    -0.268 OA
HETATM   15  H13 UNL     1      19.138  -0.870  54.464  1.00  0.00     0.169 HD
BRANCH  13  16
HETATM   16  C2  UNL     1      17.173  -0.899  52.709  1.00  0.00     0.029 C 
HETATM   17  C1  UNL     1      17.638  -1.858  53.523  1.00  0.00     0.026 C 
BRANCH  16  18
HETATM   18  C3  UNL     1      15.730  -0.795  52.494  1.00  0.00     0.316 C 
BRANCH  18  19
HETATM   19  N1  UNL     1      15.439   0.335  51.667  1.00  0.00     0.096 N 
HETATM   20  C4  UNL     1      15.559   1.595  52.356  1.00  0.00     0.299 C 
HETATM   21  C5  UNL     1      14.241   2.209  52.683  1.00  0.00     0.198 C 
HETATM   22  O1  UNL     1      13.322   1.203  52.942  1.00  0.00    -0.388 OA
HETATM   23  C6  UNL     1      12.996   0.629  51.723  1.00  0.00     0.198 C 
HETATM   24  C7  UNL     1      14.204   0.207  50.935  1.00  0.00     0.299 C 
ENDBRANCH  18  19
ENDBRANCH  16  18
ENDBRANCH  13  16
ENDBRANCH   9  12
ENDBRANCH   5   6
ENDBRANCH   1   4
BRANCH   1  25
HETATM   25  N5  UNL     1      27.008   2.700  51.161  1.00  0.00    -0.277 NA
HETATM   26  C16 UNL     1      25.888   2.933  50.572  1.00  0.00     0.111 C 
BRANCH  26  27
HETATM   27  C17 UNL     1      26.449   4.060  49.798  1.00  0.00     0.031 C 
HETATM   28  C18 UNL     1      25.851   4.996  49.069  1.00  0.00     0.443 C 
HETATM   29  F1  UNL     1      24.503   4.827  49.083  1.00  0.00    -0.452 F 
ENDBRANCH  26  27
ENDBRANCH   1  25
TORSDOF 8
ENDMDL
MODEL 3
REMARK VINA RESULT:      -7.5      6.867     12.026
REMARK  8 active torsions:
REMARK  status: ('A' for Active; 'I' for Inactive)
REMARK    1  A    between atoms: C2_2  and  C3_3 
REMARK    2  A    between atoms: C2_2  and  C8_10 
REMARK    3  A    between atoms: C3_3  and  N1_4 
REMARK       I    between atoms: C8_10  and  N2_12 
REMARK    4  A    between atoms: N2_12  and  C9_13 
REMARK    5  A    between atoms: C12_16  and  N3_17 
REMARK    6  A    between atoms: C13_18  and  C14_19 
REMARK    7  A    between atoms: C14_19  and  N5_22 
REMARK    8  A    between atoms: C16_23  and  C17_24 
ROOT
HETATM    1  C14 UNL     1      25.099   0.315  53.679  1.00  0.00     0.254 C 
HETATM    2  C15 UNL     1      26.039  -0.786  53.444  1.00  0.00     0.092 C 
HETATM    3  N4  UNL     1      26.774  -1.673  53.246  1.00  0.00    -0.195 NA
ENDROOT
BRANCH   1   4
HETATM    4  C13 UNL     1      25.251   1.374  52.664  1.00  0.00     0.132 C 
HETATM    5  N3  UNL     1      24.655   1.734  51.564  1.00  0.00    -0.262 NA
BRANCH   5   6
HETATM    6  C12 UNL     1      25.093   2.859  50.809  1.00  0.00     0.056 A 
HETATM    7  C11 UNL     1      24.290   3.960  50.599  1.00  0.00     0.034 A 
HETATM    8  C10 UNL     1      24.799   4.997  49.857  1.00  0.00     0.032 A 
HETATM    9  C9  UNL     1      26.050   5.047  49.294  1.00  0.00     0.035 A 
HETATM   10  C20 UNL     1      26.819   3.934  49.526  1.00  0.00     0.032 A 
HETATM   11  C19 UNL     1      26.357   2.867  50.262  1.00  0.00     0.034 A 
BRANCH   9  12
HETATM   12  N2  UNL     1      26.603   6.086  48.532  1.00  0.00    -0.323 N 
HETATM   13  C8  UNL     1      26.833   7.432  48.881  1.00  0.00     0.253 C 
HETATM   14  O2  UNL     1      26.526   7.841  50.025  1.00  0.00    -0.268 OA
HETATM   15  H13 UNL     1      26.916   5.922  47.551  1.00  0.00     0.169 HD
BRANCH  13  16
HETATM   16  C2  UNL     1      27.409   8.463  48.047  1.00  0.00     0.029 C 
HETATM   17  C1  UNL     1      26.572   7.987  47.113  1.00  0.00     0.026 C 
BRANCH  16  18
HETATM   18  C3  UNL     1      28.280   9.587  47.705  1.00  0.00     0.316 C 
BRANCH  18  19
HETATM   19  N1  UNL     1      29.002  10.016  48.862  1.00  0.00     0.096 N 
HETATM   20  C4  UNL     1      29.402  11.400  48.808  1.00  0.00     0.299 C 
HETATM   21  C5  UNL     1      30.856  11.578  48.533  1.00  0.00     0.198 C 
HETATM   22  O1  UNL     1      31.291  10.553  47.706  1.00  0.00    -0.388 OA
HETATM   23  C6  UNL     1      31.356   9.406  48.483  1.00  0.00     0.198 C 
HETATM   24  C7  UNL     1      30.080   9.132  49.227  1.00  0.00     0.299 C 
ENDBRANCH  18  19
ENDBRANCH  16  18
ENDBRANCH  13  16
ENDBRANCH   9  12
ENDBRANCH   5   6
ENDBRANCH   1   4
BRANCH   1  25
HETATM   25  N5  UNL     1      23.768  -0.275  53.571  1.00  0.00    -0.277 NA
HETATM   26  C16 UNL     1      23.293  -0.889  54.598  1.00  0.00     0.111 C 
BRANCH  26  27
HETATM   27  C17 UNL     1      22.032  -1.222  53.902  1.00  0.00     0.031 C 
HETATM   28  C18 UNL     1      20.814  -0.705  54.019  1.00  0.00     0.443 C 
HETATM   29  F1  UNL     1      20.799   0.286  54.947  1.00  0.00    -0.452 F 
ENDBRANCH  26  27
ENDBRANCH   1  25
TORSDOF 8
ENDMDL
MODEL 4
REMARK VINA RESULT:      -7.4      6.178     11.520
REMARK  8 active torsions:
REMARK  status: ('A' for Active; 'I' for Inactive)
REMARK    1  A    between atoms: C2_2  and  C3_3 
REMARK    2  A    between atoms: C2_2  and  C8_10 
REMARK    3  A    between atoms: C3_3  and  N1_4 
REMARK       I    between atoms: C8_10  and  N2_12 
REMARK    4  A    between atoms: N2_12  and  C9_13 
REMARK    5  A    between atoms: C12_16  and  N3_17 
REMARK    6  A    between atoms: C13_18  and  C14_19 
REMARK    7  A    between atoms: C14_19  and  N5_22 
REMARK    8  A    between atoms: C16_23  and  C17_24 
ROOT
HETATM    1  C14 UNL     1      21.007   0.300  54.014  1.00  0.00     0.254 C 
HETATM    2  C15 UNL     1      21.591  -0.855  54.704  1.00  0.00     0.092 C 
HETATM    3  N4  UNL     1      22.049  -1.787  55.240  1.00  0.00    -0.195 NA
ENDROOT
BRANCH   1   4
HETATM    4  C13 UNL     1      21.977   0.919  53.090  1.00  0.00     0.132 C 
HETATM    5  N3  UNL     1      22.926   0.517  52.294  1.00  0.00    -0.262 NA
BRANCH   5   6
HETATM    6  C12 UNL     1      23.691   1.434  51.520  1.00  0.00     0.056 A 
HETATM    7  C11 UNL     1      23.143   2.151  50.478  1.00  0.00     0.034 A 
HETATM    8  C10 UNL     1      23.959   3.013  49.788  1.00  0.00     0.032 A 
HETATM    9  C9  UNL     1      25.291   3.235  50.037  1.00  0.00     0.035 A 
HETATM   10  C20 UNL     1      25.800   2.504  51.081  1.00  0.00     0.032 A 
HETATM   11  C19 UNL     1      25.025   1.627  51.805  1.00  0.00     0.034 A 
BRANCH   9  12
HETATM   12  N2  UNL     1      26.154   4.104  49.355  1.00  0.00    -0.323 N 
HETATM   13  C8  UNL     1      26.217   5.511  49.380  1.00  0.00     0.253 C 
HETATM   14  O2  UNL     1      25.415   6.158  50.095  1.00  0.00    -0.268 OA
HETATM   15  H13 UNL     1      26.889   3.735  48.714  1.00  0.00     0.169 HD
BRANCH  13  16
HETATM   16  C2  UNL     1      27.134   6.358  48.650  1.00  0.00     0.029 C 
HETATM   17  C1  UNL     1      27.841   5.228  48.497  1.00  0.00     0.026 C 
BRANCH  16  18
HETATM   18  C3  UNL     1      27.647   7.596  48.065  1.00  0.00     0.316 C 
BRANCH  18  19
HETATM   19  N1  UNL     1      28.426   8.308  49.030  1.00  0.00     0.096 N 
HETATM   20  C4  UNL     1      27.801   9.523  49.488  1.00  0.00     0.299 C 
HETATM   21  C5  UNL     1      28.424  10.751  48.917  1.00  0.00     0.198 C 
HETATM   22  O1  UNL     1      28.874  10.478  47.634  1.00  0.00    -0.388 OA
HETATM   23  C6  UNL     1      30.012   9.697  47.761  1.00  0.00     0.198 C 
HETATM   24  C7  UNL     1      29.800   8.494  48.636  1.00  0.00     0.299 C 
ENDBRANCH  18  19
ENDBRANCH  16  18
ENDBRANCH  13  16
ENDBRANCH   9  12
ENDBRANCH   5   6
ENDBRANCH   1   4
BRANCH   1  25
HETATM   25  N5  UNL     1      19.878  -0.226  53.252  1.00  0.00    -0.277 NA
HETATM   26  C16 UNL     1      19.318   0.548  52.389  1.00  0.00     0.111 C 
BRANCH  26  27
HETATM   27  C17 UNL     1      18.336  -0.486  51.997  1.00  0.00     0.031 C 
HETATM   28  C18 UNL     1      17.023  -0.409  51.811  1.00  0.00     0.443 C 
HETATM   29  F1  UNL     1      16.578   0.854  52.036  1.00  0.00    -0.452 F 
ENDBRANCH  26  27
ENDBRANCH   1  25
TORSDOF 8
ENDMDL
MODEL 5
REMARK VINA RESULT:      -7.3      6.987     13.103
REMARK  8 active torsions:
REMARK  status: ('A' for Active; 'I' for Inactive)
REMARK    1  A    between atoms: C2_2  and  C3_3 
REMARK    2  A    between atoms: C2_2  and  C8_10 
REMARK    3  A    between atoms: C3_3  and  N1_4 
REMARK       I    between atoms: C8_10  and  N2_12 
REMARK    4  A    between atoms: N2_12  and  C9_13 
REMARK    5  A    between atoms: C12_16  and  N3_17 
REMARK    6  A    between atoms: C13_18  and  C14_19 
REMARK    7  A    between atoms: C14_19  and  N5_22 
REMARK    8  A    between atoms: C16_23  and  C17_24 
ROOT
HETATM    1  C14 UNL     1      21.698   2.004  50.906  1.00  0.00     0.254 C 
HETATM    2  C15 UNL     1      20.798   2.856  51.690  1.00  0.00     0.092 C 
HETATM    3  N4  UNL     1      20.090   3.530  52.331  1.00  0.00    -0.195 NA
ENDROOT
BRANCH   1   4
HETATM    4  C13 UNL     1      22.884   2.753  50.449  1.00  0.00     0.132 C 
HETATM    5  N3  UNL     1      23.126   3.889  49.861  1.00  0.00    -0.262 NA
BRANCH   5   6
HETATM    6  C12 UNL     1      24.452   4.308  49.561  1.00  0.00     0.056 A 
HETATM    7  C11 UNL     1      24.747   5.604  49.193  1.00  0.00     0.034 A 
HETATM    8  C10 UNL     1      26.057   5.915  48.922  1.00  0.00     0.032 A 
HETATM    9  C9  UNL     1      27.120   5.049  48.982  1.00  0.00     0.035 A 
HETATM   10  C20 UNL     1      26.787   3.770  49.352  1.00  0.00     0.032 A 
HETATM   11  C19 UNL     1      25.490   3.406  49.634  1.00  0.00     0.034 A 
BRANCH   9  12
HETATM   12  N2  UNL     1      28.467   5.330  48.714  1.00  0.00    -0.323 N 
HETATM   13  C8  UNL     1      29.030   6.301  47.862  1.00  0.00     0.253 C 
HETATM   14  O2  UNL     1      28.283   7.069  47.212  1.00  0.00    -0.268 OA
HETATM   15  H13 UNL     1      29.229   4.785  49.171  1.00  0.00     0.169 HD
BRANCH  13  16
HETATM   16  C2  UNL     1      30.435   6.544  47.624  1.00  0.00     0.029 C 
HETATM   17  C1  UNL     1      30.025   7.769  47.266  1.00  0.00     0.026 C 
BRANCH  16  18
HETATM   18  C3  UNL     1      31.864   6.234  47.566  1.00  0.00     0.316 C 
BRANCH  18  19
HETATM   19  N1  UNL     1      32.063   4.950  46.969  1.00  0.00     0.096 N 
HETATM   20  C4  UNL     1      32.593   3.969  47.882  1.00  0.00     0.299 C 
HETATM   21  C5  UNL     1      34.035   3.673  47.647  1.00  0.00     0.198 C 
HETATM   22  O1  UNL     1      34.669   4.823  47.200  1.00  0.00    -0.388 OA
HETATM   23  C6  UNL     1      34.272   5.019  45.886  1.00  0.00     0.198 C 
HETATM   24  C7  UNL     1      32.779   5.003  45.719  1.00  0.00     0.299 C 
ENDBRANCH  18  19
ENDBRANCH  16  18
ENDBRANCH  13  16
ENDBRANCH   9  12
ENDBRANCH   5   6
ENDBRANCH   1   4
BRANCH   1  25
HETATM   25  N5  UNL     1      22.117   0.937  51.812  1.00  0.00    -0.277 NA
HETATM   26  C16 UNL     1      22.965   1.227  52.736  1.00  0.00     0.111 C 
BRANCH  26  27
HETATM   27  C17 UNL     1      22.973  -0.156  53.259  1.00  0.00     0.031 C 
HETATM   28  C18 UNL     1      22.302  -0.707  54.265  1.00  0.00     0.443 C 
HETATM   29  F1  UNL     1      21.498   0.209  54.865  1.00  0.00    -0.452 F 
ENDBRANCH  26  27
ENDBRANCH   1  25
TORSDOF 8
ENDMDL
MODEL 6
REMARK VINA RESULT:      -7.3      5.508      8.630
REMARK  8 active torsions:
REMARK  status: ('A' for Active; 'I' for Inactive)
REMARK    1  A    between atoms: C2_2  and  C3_3 
REMARK    2  A    between atoms: C2_2  and  C8_10 
REMARK    3  A    between atoms: C3_3  and  N1_4 
REMARK       I    between atoms: C8_10  and  N2_12 
REMARK    4  A    between atoms: N2_12  and  C9_13 
REMARK    5  A    between atoms: C12_16  and  N3_17 
REMARK    6  A    between atoms: C13_18  and  C14_19 
REMARK    7  A    between atoms: C14_19  and  N5_22 
REMARK    8  A    between atoms: C16_23  and  C17_24 
ROOT
HETATM    1  C14 UNL     1      31.437   6.784  47.882  1.00  0.00     0.254 C 
HETATM    2  C15 UNL     1      31.402   7.813  46.838  1.00  0.00     0.092 C 
HETATM    3  N4  UNL     1      31.376   8.619  45.992  1.00  0.00    -0.195 NA
ENDROOT
BRANCH   1   4
HETATM    4  C13 UNL     1      30.076   6.359  48.261  1.00  0.00     0.132 C 
HETATM    5  N3  UNL     1      28.854   6.679  47.947  1.00  0.00    -0.262 NA
BRANCH   5   6
HETATM    6  C12 UNL     1      27.735   6.030  48.538  1.00  0.00     0.056 A 
HETATM    7  C11 UNL     1      26.647   6.730  49.014  1.00  0.00     0.034 A 
HETATM    8  C10 UNL     1      25.613   6.017  49.569  1.00  0.00     0.032 A 
HETATM    9  C9  UNL     1      25.555   4.651  49.700  1.00  0.00     0.035 A 
HETATM   10  C20 UNL     1      26.655   3.990  49.214  1.00  0.00     0.032 A 
HETATM   11  C19 UNL     1      27.718   4.657  48.649  1.00  0.00     0.034 A 
BRANCH   9  12
HETATM   12  N2  UNL     1      24.519   3.890  50.259  1.00  0.00    -0.323 N 
HETATM   13  C8  UNL     1      24.556   2.966  51.322  1.00  0.00     0.253 C 
HETATM   14  O2  UNL     1      25.639   2.733  51.909  1.00  0.00    -0.268 OA
HETATM   15  H13 UNL     1      23.546   3.959  49.892  1.00  0.00     0.169 HD
BRANCH  13  16
HETATM   16  C2  UNL     1      23.448   2.206  51.857  1.00  0.00     0.029 C 
HETATM   17  C1  UNL     1      23.131   2.017  50.567  1.00  0.00     0.026 C 
BRANCH  16  18
HETATM   18  C3  UNL     1      22.598   1.609  52.886  1.00  0.00     0.316 C 
BRANCH  18  19
HETATM   19  N1  UNL     1      22.411   0.217  52.620  1.00  0.00     0.096 N 
HETATM   20  C4  UNL     1      21.042  -0.213  52.749  1.00  0.00     0.299 C 
HETATM   21  C5  UNL     1      20.790  -0.997  53.992  1.00  0.00     0.198 C 
HETATM   22  O1  UNL     1      21.612  -0.522  55.003  1.00  0.00    -0.388 OA
HETATM   23  C6  UNL     1      22.896  -0.967  54.723  1.00  0.00     0.198 C 
HETATM   24  C7  UNL     1      23.338  -0.632  53.327  1.00  0.00     0.299 C 
ENDBRANCH  18  19
ENDBRANCH  16  18
ENDBRANCH  13  16
ENDBRANCH   9  12
ENDBRANCH   5   6
ENDBRANCH   1   4
BRANCH   1  25
HETATM   25  N5  UNL     1      32.154   5.655  47.298  1.00  0.00    -0.277 NA
HETATM   26  C16 UNL     1      32.716   4.816  48.097  1.00  0.00     0.111 C 
BRANCH  26  27
HETATM   27  C17 UNL     1      33.225   3.989  46.982  1.00  0.00     0.031 C 
HETATM   28  C18 UNL     1      33.463   2.683  46.908  1.00  0.00     0.443 C 
HETATM   29  F1  UNL     1      33.168   2.074  48.086  1.00  0.00    -0.452 F 
ENDBRANCH  26  27
ENDBRANCH   1  25
TORSDOF 8
ENDMDL
MODEL 7
REMARK VINA RESULT:      -7.1      5.943      9.076
REMARK  8 active torsions:
REMARK  status: ('A' for Active; 'I' for Inactive)
REMARK    1  A    between atoms: C2_2  and  C3_3 
REMARK    2  A    between atoms: C2_2  and  C8_10 
REMARK    3  A    between atoms: C3_3  and  N1_4 
REMARK       I    between atoms: C8_10  and  N2_12 
REMARK    4  A    between atoms: N2_12  and  C9_13 
REMARK    5  A    between atoms: C12_16  and  N3_17 
REMARK    6  A    between atoms: C13_18  and  C14_19 
REMARK    7  A    between atoms: C14_19  and  N5_22 
REMARK    8  A    between atoms: C16_23  and  C17_24 
ROOT
HETATM    1  C14 UNL     1      31.130   7.968  47.552  1.00  0.00     0.254 C 
HETATM    2  C15 UNL     1      31.316   7.861  46.101  1.00  0.00     0.092 C 
HETATM    3  N4  UNL     1      31.476   7.761  44.947  1.00  0.00    -0.195 NA
ENDROOT
BRANCH   1   4
HETATM    4  C13 UNL     1      29.925   7.240  47.992  1.00  0.00     0.132 C 
HETATM    5  N3  UNL     1      28.659   7.221  47.692  1.00  0.00    -0.262 NA
BRANCH   5   6
HETATM    6  C12 UNL     1      27.747   6.351  48.351  1.00  0.00     0.056 A 
HETATM    7  C11 UNL     1      28.003   5.006  48.516  1.00  0.00     0.034 A 
HETATM    8  C10 UNL     1      27.064   4.244  49.165  1.00  0.00     0.032 A 
HETATM    9  C9  UNL     1      25.872   4.697  49.676  1.00  0.00     0.035 A 
HETATM   10  C20 UNL     1      25.653   6.040  49.494  1.00  0.00     0.032 A 
HETATM   11  C19 UNL     1      26.563   6.848  48.850  1.00  0.00     0.034 A 
BRANCH   9  12
HETATM   12  N2  UNL     1      24.891   3.952  50.343  1.00  0.00    -0.323 N 
HETATM   13  C8  UNL     1      23.781   3.256  49.823  1.00  0.00     0.253 C 
HETATM   14  O2  UNL     1      23.571   3.253  48.588  1.00  0.00    -0.268 OA
HETATM   15  H13 UNL     1      24.911   3.847  51.381  1.00  0.00     0.169 HD
BRANCH  13  16
HETATM   16  C2  UNL     1      22.797   2.501  50.566  1.00  0.00     0.029 C 
HETATM   17  C1  UNL     1      22.161   3.678  50.657  1.00  0.00     0.026 C 
BRANCH  16  18
HETATM   18  C3  UNL     1      22.193   1.324  51.189  1.00  0.00     0.316 C 
BRANCH  18  19
HETATM   19  N1  UNL     1      22.409   1.352  52.602  1.00  0.00     0.096 N 
HETATM   20  C4  UNL     1      23.693   0.828  52.996  1.00  0.00     0.299 C 
HETATM   21  C5  UNL     1      23.607  -0.528  53.608  1.00  0.00     0.198 C 
HETATM   22  O1  UNL     1      22.568  -1.230  53.014  1.00  0.00    -0.388 OA
HETATM   23  C6  UNL     1      21.386  -0.696  53.506  1.00  0.00     0.198 C 
HETATM   24  C7  UNL     1      21.316   0.797  53.361  1.00  0.00     0.299 C 
ENDBRANCH  18  19
ENDBRANCH  16  18
ENDBRANCH  13  16
ENDBRANCH   9  12
ENDBRANCH   5   6
ENDBRANCH   1   4
BRANCH   1  25
HETATM   25  N5  UNL     1      32.314   7.354  48.146  1.00  0.00    -0.277 NA
HETATM   26  C16 UNL     1      32.475   6.085  48.000  1.00  0.00     0.111 C 
BRANCH  26  27
HETATM   27  C17 UNL     1      33.741   6.087  48.762  1.00  0.00     0.031 C 
HETATM   28  C18 UNL     1      34.923   5.547  48.484  1.00  0.00     0.443 C 
HETATM   29  F1  UNL     1      34.887   4.902  47.289  1.00  0.00    -0.452 F 
ENDBRANCH  26  27
ENDBRANCH   1  25
TORSDOF 8
ENDMDL
MODEL 8
REMARK VINA RESULT:      -7.0      4.438     11.213
REMARK  8 active torsions:
REMARK  status: ('A' for Active; 'I' for Inactive)
REMARK    1  A    between atoms: C2_2  and  C3_3 
REMARK    2  A    between atoms: C2_2  and  C8_10 
REMARK    3  A    between atoms: C3_3  and  N1_4 
REMARK       I    between atoms: C8_10  and  N2_12 
REMARK    4  A    between atoms: N2_12  and  C9_13 
REMARK    5  A    between atoms: C12_16  and  N3_17 
REMARK    6  A    between atoms: C13_18  and  C14_19 
REMARK    7  A    between atoms: C14_19  and  N5_22 
REMARK    8  A    between atoms: C16_23  and  C17_24 
ROOT
HETATM    1  C14 UNL     1      13.911   0.084  52.938  1.00  0.00     0.254 C 
HETATM    2  C15 UNL     1      13.235  -0.703  51.901  1.00  0.00     0.092 C 
HETATM    3  N4  UNL     1      12.696  -1.314  51.064  1.00  0.00    -0.195 NA
ENDROOT
BRANCH   1   4
HETATM    4  C13 UNL     1      15.378  -0.029  52.825  1.00  0.00     0.132 C 
HETATM    5  N3  UNL     1      16.238  -0.924  52.435  1.00  0.00    -0.262 NA
BRANCH   5   6
HETATM    6  C12 UNL     1      17.640  -0.678  52.465  1.00  0.00     0.056 A 
HETATM    7  C11 UNL     1      18.452  -1.175  53.462  1.00  0.00     0.034 A 
HETATM    8  C10 UNL     1      19.792  -0.885  53.408  1.00  0.00     0.032 A 
HETATM    9  C9  UNL     1      20.416  -0.134  52.441  1.00  0.00     0.035 A 
HETATM   10  C20 UNL     1      19.576   0.342  51.466  1.00  0.00     0.032 A 
HETATM   11  C19 UNL     1      18.224   0.080  51.474  1.00  0.00     0.034 A 
BRANCH   9  12
HETATM   12  N2  UNL     1      21.778   0.182  52.353  1.00  0.00    -0.323 N 
HETATM   13  C8  UNL     1      22.411   1.442  52.358  1.00  0.00     0.253 C 
HETATM   14  O2  UNL     1      21.722   2.484  52.454  1.00  0.00    -0.268 OA
HETATM   15  H13 UNL     1      22.498  -0.568  52.268  1.00  0.00     0.169 HD
BRANCH  13  16
HETATM   16  C2  UNL     1      23.829   1.706  52.262  1.00  0.00     0.029 C 
HETATM   17  C1  UNL     1      23.478   2.962  52.579  1.00  0.00     0.026 C 
BRANCH  16  18
HETATM   18  C3  UNL     1      25.243   1.404  52.041  1.00  0.00     0.316 C 
BRANCH  18  19
HETATM   19  N1  UNL     1      25.565   0.131  52.608  1.00  0.00     0.096 N 
HETATM   20  C4  UNL     1      25.220   0.020  54.003  1.00  0.00     0.299 C 
HETATM   21  C5  UNL     1      26.404   0.088  54.905  1.00  0.00     0.198 C 
HETATM   22  O1  UNL     1      27.354   0.931  54.347  1.00  0.00    -0.388 OA
HETATM   23  C6  UNL     1      27.928   0.247  53.286  1.00  0.00     0.198 C 
HETATM   24  C7  UNL     1      26.911  -0.299  52.325  1.00  0.00     0.299 C 
ENDBRANCH  18  19
ENDBRANCH  16  18
ENDBRANCH  13  16
ENDBRANCH   9  12
ENDBRANCH   5   6
ENDBRANCH   1   4
BRANCH   1  25
HETATM   25  N5  UNL     1      13.511   1.469  52.705  1.00  0.00    -0.277 NA
HETATM   26  C16 UNL     1      13.112   2.162  53.714  1.00  0.00     0.111 C 
BRANCH  26  27
HETATM   27  C17 UNL     1      12.875   3.362  52.884  1.00  0.00     0.031 C 
HETATM   28  C18 UNL     1      12.387   4.556  53.205  1.00  0.00     0.443 C 
HETATM   29  F1  UNL     1      12.076   4.609  54.526  1.00  0.00    -0.452 F 
ENDBRANCH  26  27
ENDBRANCH   1  25
TORSDOF 8
ENDMDL
MODEL 9
REMARK VINA RESULT:      -7.0      6.345      9.554
REMARK  8 active torsions:
REMARK  status: ('A' for Active; 'I' for Inactive)
REMARK    1  A    between atoms: C2_2  and  C3_3 
REMARK    2  A    between atoms: C2_2  and  C8_10 
REMARK    3  A    between atoms: C3_3  and  N1_4 
REMARK       I    between atoms: C8_10  and  N2_12 
REMARK    4  A    between atoms: N2_12  and  C9_13 
REMARK    5  A    between atoms: C12_16  and  N3_17 
REMARK    6  A    between atoms: C13_18  and  C14_19 
REMARK    7  A    between atoms: C14_19  and  N5_22 
REMARK    8  A    between atoms: C16_23  and  C17_24 
ROOT
HETATM    1  C14 UNL     1      30.013   8.411  47.493  1.00  0.00     0.254 C 
HETATM    2  C15 UNL     1      31.333   7.771  47.501  1.00  0.00     0.092 C 
HETATM    3  N4  UNL     1      32.388   7.271  47.524  1.00  0.00    -0.195 NA
ENDROOT
BRANCH   1   4
HETATM    4  C13 UNL     1      28.987   7.529  48.082  1.00  0.00     0.132 C 
HETATM    5  N3  UNL     1      28.020   6.770  47.652  1.00  0.00    -0.262 NA
BRANCH   5   6
HETATM    6  C12 UNL     1      27.196   6.031  48.545  1.00  0.00     0.056 A 
HETATM    7  C11 UNL     1      26.142   6.608  49.221  1.00  0.00     0.034 A 
HETATM    8  C10 UNL     1      25.403   5.815  50.063  1.00  0.00     0.032 A 
HETATM    9  C9  UNL     1      25.613   4.479  50.303  1.00  0.00     0.035 A 
HETATM   10  C20 UNL     1      26.669   3.940  49.612  1.00  0.00     0.032 A 
HETATM   11  C19 UNL     1      27.442   4.692  48.756  1.00  0.00     0.034 A 
BRANCH   9  12
HETATM   12  N2  UNL     1      24.881   3.639  51.153  1.00  0.00    -0.323 N 
HETATM   13  C8  UNL     1      23.822   2.759  50.854  1.00  0.00     0.253 C 
HETATM   14  O2  UNL     1      23.415   2.652  49.673  1.00  0.00    -0.268 OA
HETATM   15  H13 UNL     1      25.087   3.600  52.174  1.00  0.00     0.169 HD
BRANCH  13  16
HETATM   16  C2  UNL     1      23.101   1.914  51.779  1.00  0.00     0.029 C 
HETATM   17  C1  UNL     1      22.275   1.712  50.741  1.00  0.00     0.026 C 
BRANCH  16  18
HETATM   18  C3  UNL     1      22.814   1.246  53.048  1.00  0.00     0.316 C 
BRANCH  18  19
HETATM   19  N1  UNL     1      22.880  -0.172  52.882  1.00  0.00     0.096 N 
HETATM   20  C4  UNL     1      21.604  -0.827  53.020  1.00  0.00     0.299 C 
HETATM   21  C5  UNL     1      21.459  -1.555  54.313  1.00  0.00     0.198 C 
HETATM   22  O1  UNL     1      22.157  -0.875  55.299  1.00  0.00    -0.388 OA
HETATM   23  C6  UNL     1      23.506  -1.104  55.072  1.00  0.00     0.198 C 
HETATM   24  C7  UNL     1      23.921  -0.794  53.662  1.00  0.00     0.299 C 
ENDBRANCH  18  19
ENDBRANCH  16  18
ENDBRANCH  13  16
ENDBRANCH   9  12
ENDBRANCH   5   6
ENDBRANCH   1   4
BRANCH   1  25
HETATM   25  N5  UNL     1      30.152   9.610  48.314  1.00  0.00    -0.277 NA
HETATM   26  C16 UNL     1      30.993  10.508  47.936  1.00  0.00     0.111 C 
BRANCH  26  27
HETATM   27  C17 UNL     1      30.684  11.382  49.087  1.00  0.00     0.031 C 
HETATM   28  C18 UNL     1      30.233  12.631  49.133  1.00  0.00     0.443 C 
HETATM   29  F1  UNL     1      30.049  13.122  47.880  1.00  0.00    -0.452 F 
ENDBRANCH  26  27
ENDBRANCH   1  25
TORSDOF 8
ENDMDL
