MODEL 1
REMARK VINA RESULT:      -7.2      0.000      0.000
REMARK  5 active torsions:
REMARK  status: ('A' for Active; 'I' for Inactive)
REMARK    1  A    between atoms: N1_4  and  C3_5 
REMARK    2  A    between atoms: C5_8  and  N2_9 
REMARK    3  A    between atoms: N2_9  and  C6_10 
REMARK    4  A    between atoms: C6_10  and  C7_11 
REMARK    5  A    between atoms: C7_11  and  N3_12 
ROOT
HETATM    1  C3  UNL     1      24.543   4.767  50.831  1.00  0.00     0.022 C 
HETATM    2  P1  UNL     1      25.771   4.775  49.722  1.00  0.00    -0.031 P 
HETATM    3  C4  UNL     1      26.477   6.274  48.826  1.00  0.00     0.102 C 
HETATM    4  C5  UNL     1      26.306   7.481  49.680  1.00  0.00     0.320 C 
HETATM    5  N4  UNL     1      25.732   7.083  50.972  1.00  0.00     0.106 N 
HETATM    6  C11 UNL     1      24.287   7.212  50.989  1.00  0.00     0.278 C 
HETATM    7  C12 UNL     1      23.723   5.864  51.379  1.00  0.00     0.088 C 
HETATM    8  H16 UNL     1      26.170   7.607  51.762  1.00  0.00     0.318 HD
ENDROOT
BRANCH   4   9
HETATM    9  N2  UNL     1      27.460   8.266  49.847  1.00  0.00    -0.392 N 
HETATM   10  H5  UNL     1      27.581   8.766  50.749  1.00  0.00     0.155 HD
BRANCH   9  11
HETATM   11  C6  UNL     1      28.068   8.865  48.723  1.00  0.00     0.135 C 
BRANCH  11  12
HETATM   12  C7  UNL     1      29.532   9.056  48.877  1.00  0.00     0.137 C 
BRANCH  12  13
HETATM   13  N3  UNL     1      30.301   7.860  48.762  1.00  0.00    -0.399 N 
HETATM   14  C8  UNL     1      30.030   7.022  47.667  1.00  0.00     0.145 C 
HETATM   15  C9  UNL     1      29.951   5.552  48.011  1.00  0.00     0.204 C 
HETATM   16  O1  UNL     1      31.122   5.025  48.497  1.00  0.00    -0.317 OA
HETATM   17  S1  UNL     1      31.978   6.014  49.571  1.00  0.00     0.007 SA
HETATM   18  C10 UNL     1      31.535   7.773  49.422  1.00  0.00     0.222 C 
ENDBRANCH  12  13
ENDBRANCH  11  12
ENDBRANCH   9  11
ENDBRANCH   4   9
BRANCH   1  19
HETATM   19  N1  UNL     1      24.224   3.479  51.341  1.00  0.00    -0.354 N 
HETATM   20  C2  UNL     1      25.233   2.495  51.523  1.00  0.00     0.110 A 
HETATM   21  C1  UNL     1      25.087   1.268  51.991  1.00  0.00     0.026 A 
HETATM   22 BR1  UNL     1      26.508   0.018  52.199  1.00  0.00    -0.050 Br
HETATM   23  C15 UNL     1      23.743   0.847  52.369  1.00  0.00     0.018 A 
HETATM   24  C14 UNL     1      22.799   1.750  52.201  1.00  0.00    -0.005 A 
HETATM   25  C13 UNL     1      22.883   3.128  51.690  1.00  0.00     0.155 A 
ENDBRANCH   1  19
TORSDOF 5
ENDMDL
MODEL 2
REMARK VINA RESULT:      -7.0      1.559      2.121
REMARK  5 active torsions:
REMARK  status: ('A' for Active; 'I' for Inactive)
REMARK    1  A    between atoms: N1_4  and  C3_5 
REMARK    2  A    between atoms: C5_8  and  N2_9 
REMARK    3  A    between atoms: N2_9  and  C6_10 
REMARK    4  A    between atoms: C6_10  and  C7_11 
REMARK    5  A    between atoms: C7_11  and  N3_12 
ROOT
HETATM    1  C3  UNL     1      25.107   2.970  51.071  1.00  0.00     0.022 C 
HETATM    2  P1  UNL     1      26.390   3.357  50.100  1.00  0.00    -0.031 P 
HETATM    3  C4  UNL     1      26.581   4.902  49.040  1.00  0.00     0.102 C 
HETATM    4  C5  UNL     1      25.820   6.019  49.661  1.00  0.00     0.320 C 
HETATM    5  N4  UNL     1      25.254   5.570  50.939  1.00  0.00     0.106 N 
HETATM    6  C11 UNL     1      23.891   5.094  50.795  1.00  0.00     0.278 C 
HETATM    7  C12 UNL     1      23.848   3.687  51.347  1.00  0.00     0.088 C 
HETATM    8  H16 UNL     1      25.322   6.313  51.670  1.00  0.00     0.318 HD
ENDROOT
BRANCH   4   9
HETATM    9  N2  UNL     1      26.532   7.224  49.806  1.00  0.00    -0.392 N 
HETATM   10  H5  UNL     1      26.234   7.876  50.556  1.00  0.00     0.155 HD
BRANCH   9  11
HETATM   11  C6  UNL     1      27.143   7.815  48.680  1.00  0.00     0.135 C 
BRANCH  11  12
HETATM   12  C7  UNL     1      28.372   8.579  49.011  1.00  0.00     0.137 C 
BRANCH  12  13
HETATM   13  N3  UNL     1      29.590   7.894  48.729  1.00  0.00    -0.399 N 
HETATM   14  C8  UNL     1      29.560   6.910  47.726  1.00  0.00     0.145 C 
HETATM   15  C9  UNL     1      30.284   5.633  48.084  1.00  0.00     0.204 C 
HETATM   16  O1  UNL     1      31.631   5.790  48.295  1.00  0.00    -0.317 OA
HETATM   17  S1  UNL     1      32.079   7.183  49.145  1.00  0.00     0.007 SA
HETATM   18  C10 UNL     1      30.809   8.485  49.094  1.00  0.00     0.222 C 
ENDBRANCH  12  13
ENDBRANCH  11  12
ENDBRANCH   9  11
ENDBRANCH   4   9
BRANCH   1  19
HETATM   19  N1  UNL     1      25.245   1.731  51.755  1.00  0.00    -0.354 N 
HETATM   20  C2  UNL     1      24.152   1.162  52.462  1.00  0.00     0.110 A 
HETATM   21  C1  UNL     1      24.132   0.023  53.132  1.00  0.00     0.026 A 
HETATM   22 BR1  UNL     1      22.610  -0.658  54.052  1.00  0.00    -0.050 Br
HETATM   23  C15 UNL     1      25.362  -0.758  53.171  1.00  0.00     0.018 A 
HETATM   24  C14 UNL     1      26.383  -0.239  52.521  1.00  0.00    -0.005 A 
HETATM   25  C13 UNL     1      26.483   1.016  51.756  1.00  0.00     0.155 A 
ENDBRANCH   1  19
TORSDOF 5
ENDMDL
MODEL 3
REMARK VINA RESULT:      -6.9      1.180      1.579
REMARK  5 active torsions:
REMARK  status: ('A' for Active; 'I' for Inactive)
REMARK    1  A    between atoms: N1_4  and  C3_5 
REMARK    2  A    between atoms: C5_8  and  N2_9 
REMARK    3  A    between atoms: N2_9  and  C6_10 
REMARK    4  A    between atoms: C6_10  and  C7_11 
REMARK    5  A    between atoms: C7_11  and  N3_12 
ROOT
HETATM    1  C3  UNL     1      24.842   3.873  50.748  1.00  0.00     0.022 C 
HETATM    2  P1  UNL     1      26.234   3.791  49.857  1.00  0.00    -0.031 P 
HETATM    3  C4  UNL     1      26.930   5.124  48.722  1.00  0.00     0.102 C 
HETATM    4  C5  UNL     1      26.499   6.460  49.213  1.00  0.00     0.320 C 
HETATM    5  N4  UNL     1      25.755   6.299  50.469  1.00  0.00     0.106 N 
HETATM    6  C11 UNL     1      24.323   6.229  50.249  1.00  0.00     0.278 C 
HETATM    7  C12 UNL     1      23.836   4.944  50.882  1.00  0.00     0.088 C 
HETATM    8  H16 UNL     1      25.999   7.047  51.156  1.00  0.00     0.318 HD
ENDROOT
BRANCH   4   9
HETATM    9  N2  UNL     1      27.525   7.414  49.338  1.00  0.00    -0.392 N 
HETATM   10  H5  UNL     1      27.316   8.285  49.863  1.00  0.00     0.155 HD
BRANCH   9  11
HETATM   11  C6  UNL     1      28.509   7.520  48.332  1.00  0.00     0.135 C 
BRANCH  11  12
HETATM   12  C7  UNL     1      29.733   8.231  48.778  1.00  0.00     0.137 C 
BRANCH  12  13
HETATM   13  N3  UNL     1      30.892   7.407  48.883  1.00  0.00    -0.399 N 
HETATM   14  C8  UNL     1      32.038   7.978  49.461  1.00  0.00     0.145 C 
HETATM   15  C9  UNL     1      33.324   7.681  48.723  1.00  0.00     0.204 C 
HETATM   16  O1  UNL     1      33.653   6.350  48.680  1.00  0.00    -0.317 OA
HETATM   17  S1  UNL     1      32.362   5.286  48.420  1.00  0.00     0.007 SA
HETATM   18  C10 UNL     1      30.748   6.012  48.842  1.00  0.00     0.222 C 
ENDBRANCH  12  13
ENDBRANCH  11  12
ENDBRANCH   9  11
ENDBRANCH   4   9
BRANCH   1  19
HETATM   19  N1  UNL     1      24.570   2.708  51.515  1.00  0.00    -0.354 N 
HETATM   20  C2  UNL     1      25.565   1.714  51.712  1.00  0.00     0.110 A 
HETATM   21  C1  UNL     1      25.458   0.592  52.402  1.00  0.00     0.026 A 
HETATM   22 BR1  UNL     1      26.857  -0.684  52.608  1.00  0.00    -0.050 Br
HETATM   23  C15 UNL     1      24.179   0.315  53.044  1.00  0.00     0.018 A 
HETATM   24  C14 UNL     1      23.247   1.228  52.866  1.00  0.00    -0.005 A 
HETATM   25  C13 UNL     1      23.290   2.495  52.116  1.00  0.00     0.155 A 
ENDBRANCH   1  19
TORSDOF 5
ENDMDL
MODEL 4
REMARK VINA RESULT:      -6.7      2.634      3.336
REMARK  5 active torsions:
REMARK  status: ('A' for Active; 'I' for Inactive)
REMARK    1  A    between atoms: N1_4  and  C3_5 
REMARK    2  A    between atoms: C5_8  and  N2_9 
REMARK    3  A    between atoms: N2_9  and  C6_10 
REMARK    4  A    between atoms: C6_10  and  C7_11 
REMARK    5  A    between atoms: C7_11  and  N3_12 
ROOT
HETATM    1  C3  UNL     1      25.061   2.949  51.051  1.00  0.00     0.022 C 
HETATM    2  P1  UNL     1      26.401   3.256  50.129  1.00  0.00    -0.031 P 
HETATM    3  C4  UNL     1      26.700   4.760  49.035  1.00  0.00     0.102 C 
HETATM    4  C5  UNL     1      25.957   5.924  49.588  1.00  0.00     0.320 C 
HETATM    5  N4  UNL     1      25.317   5.536  50.851  1.00  0.00     0.106 N 
HETATM    6  C11 UNL     1      23.944   5.109  50.658  1.00  0.00     0.278 C 
HETATM    7  C12 UNL     1      23.820   3.722  51.248  1.00  0.00     0.088 C 
HETATM    8  H16 UNL     1      25.382   6.298  51.562  1.00  0.00     0.318 HD
ENDROOT
BRANCH   4   9
HETATM    9  N2  UNL     1      26.710   7.104  49.730  1.00  0.00    -0.392 N 
HETATM   10  H5  UNL     1      26.541   7.688  50.572  1.00  0.00     0.155 HD
BRANCH   9  11
HETATM   11  C6  UNL     1      27.160   7.790  48.582  1.00  0.00     0.135 C 
BRANCH  11  12
HETATM   12  C7  UNL     1      28.623   8.037  48.581  1.00  0.00     0.137 C 
BRANCH  12  13
HETATM   13  N3  UNL     1      28.998   9.380  48.876  1.00  0.00    -0.399 N 
HETATM   14  C8  UNL     1      27.975  10.269  49.247  1.00  0.00     0.145 C 
HETATM   15  C9  UNL     1      28.056  11.625  48.584  1.00  0.00     0.204 C 
HETATM   16  O1  UNL     1      29.186  12.338  48.898  1.00  0.00    -0.317 OA
HETATM   17  S1  UNL     1      30.619  11.440  48.973  1.00  0.00     0.007 SA
HETATM   18  C10 UNL     1      30.328   9.661  49.222  1.00  0.00     0.222 C 
ENDBRANCH  12  13
ENDBRANCH  11  12
ENDBRANCH   9  11
ENDBRANCH   4   9
BRANCH   1  19
HETATM   19  N1  UNL     1      25.118   1.728  51.776  1.00  0.00    -0.354 N 
HETATM   20  C2  UNL     1      23.971   1.218  52.440  1.00  0.00     0.110 A 
HETATM   21  C1  UNL     1      23.875   0.101  53.141  1.00  0.00     0.026 A 
HETATM   22 BR1  UNL     1      22.284  -0.500  53.998  1.00  0.00    -0.050 Br
HETATM   23  C15 UNL     1      25.073  -0.721  53.266  1.00  0.00     0.018 A 
HETATM   24  C14 UNL     1      26.144  -0.257  52.656  1.00  0.00    -0.005 A 
HETATM   25  C13 UNL     1      26.328   0.970  51.862  1.00  0.00     0.155 A 
ENDBRANCH   1  19
TORSDOF 5
ENDMDL
MODEL 5
REMARK VINA RESULT:      -6.7      4.170      7.698
REMARK  5 active torsions:
REMARK  status: ('A' for Active; 'I' for Inactive)
REMARK    1  A    between atoms: N1_4  and  C3_5 
REMARK    2  A    between atoms: C5_8  and  N2_9 
REMARK    3  A    between atoms: N2_9  and  C6_10 
REMARK    4  A    between atoms: C6_10  and  C7_11 
REMARK    5  A    between atoms: C7_11  and  N3_12 
ROOT
HETATM    1  C3  UNL     1      24.284   3.571  50.099  1.00  0.00     0.022 C 
HETATM    2  P1  UNL     1      24.252   3.607  51.753  1.00  0.00    -0.031 P 
HETATM    3  C4  UNL     1      23.003   2.758  52.879  1.00  0.00     0.102 C 
HETATM    4  C5  UNL     1      22.481   1.540  52.202  1.00  0.00     0.320 C 
HETATM    5  N4  UNL     1      23.183   1.356  50.926  1.00  0.00     0.106 N 
HETATM    6  C11 UNL     1      22.458   1.942  49.815  1.00  0.00     0.278 C 
HETATM    7  C12 UNL     1      23.398   2.906  49.125  1.00  0.00     0.088 C 
HETATM    8  H16 UNL     1      23.400   0.350  50.750  1.00  0.00     0.318 HD
ENDROOT
BRANCH   4   9
HETATM    9  N2  UNL     1      22.502   0.366  52.978  1.00  0.00    -0.392 N 
HETATM   10  H5  UNL     1      21.965   0.362  53.865  1.00  0.00     0.155 HD
BRANCH   9  11
HETATM   11  C6  UNL     1      23.631  -0.481  52.934  1.00  0.00     0.135 C 
BRANCH  11  12
HETATM   12  C7  UNL     1      24.448  -0.434  54.172  1.00  0.00     0.137 C 
BRANCH  12  13
HETATM   13  N3  UNL     1      25.853  -0.331  53.951  1.00  0.00    -0.399 N 
HETATM   14  C8  UNL     1      26.357  -0.857  52.750  1.00  0.00     0.145 C 
HETATM   15  C9  UNL     1      27.620  -1.672  52.906  1.00  0.00     0.204 C 
HETATM   16  O1  UNL     1      28.693  -0.962  53.384  1.00  0.00    -0.317 OA
HETATM   17  S1  UNL     1      28.345   0.148  54.614  1.00  0.00     0.007 SA
HETATM   18  C10 UNL     1      26.590   0.629  54.660  1.00  0.00     0.222 C 
ENDBRANCH  12  13
ENDBRANCH  11  12
ENDBRANCH   9  11
ENDBRANCH   4   9
BRANCH   1  19
HETATM   19  N1  UNL     1      25.351   4.309  49.519  1.00  0.00    -0.354 N 
HETATM   20  C2  UNL     1      25.148   5.631  49.038  1.00  0.00     0.110 A 
HETATM   21  C1  UNL     1      26.042   6.433  48.486  1.00  0.00     0.026 A 
HETATM   22 BR1  UNL     1      25.670   8.196  47.869  1.00  0.00    -0.050 Br
HETATM   23  C15 UNL     1      27.401   5.927  48.338  1.00  0.00     0.018 A 
HETATM   24  C14 UNL     1      27.600   4.702  48.778  1.00  0.00    -0.005 A 
HETATM   25  C13 UNL     1      26.663   3.752  49.401  1.00  0.00     0.155 A 
ENDBRANCH   1  19
TORSDOF 5
ENDMDL
MODEL 6
REMARK VINA RESULT:      -6.7      2.216      2.658
REMARK  5 active torsions:
REMARK  status: ('A' for Active; 'I' for Inactive)
REMARK    1  A    between atoms: N1_4  and  C3_5 
REMARK    2  A    between atoms: C5_8  and  N2_9 
REMARK    3  A    between atoms: N2_9  and  C6_10 
REMARK    4  A    between atoms: C6_10  and  C7_11 
REMARK    5  A    between atoms: C7_11  and  N3_12 
ROOT
HETATM    1  C3  UNL     1      23.927   3.394  51.613  1.00  0.00     0.022 C 
HETATM    2  P1  UNL     1      25.322   3.674  50.768  1.00  0.00    -0.031 P 
HETATM    3  C4  UNL     1      25.790   5.247  49.844  1.00  0.00     0.102 C 
HETATM    4  C5  UNL     1      25.127   6.411  50.492  1.00  0.00     0.320 C 
HETATM    5  N4  UNL     1      24.408   5.956  51.689  1.00  0.00     0.106 N 
HETATM    6  C11 UNL     1      23.013   5.673  51.413  1.00  0.00     0.278 C 
HETATM    7  C12 UNL     1      22.750   4.250  51.853  1.00  0.00     0.088 C 
HETATM    8  H16 UNL     1      24.510   6.634  52.476  1.00  0.00     0.318 HD
ENDROOT
BRANCH   4   9
HETATM    9  N2  UNL     1      25.970   7.500  50.777  1.00  0.00    -0.392 N 
HETATM   10  H5  UNL     1      25.735   8.094  51.595  1.00  0.00     0.155 HD
BRANCH   9  11
HETATM   11  C6  UNL     1      26.666   8.139  49.729  1.00  0.00     0.135 C 
BRANCH  11  12
HETATM   12  C7  UNL     1      27.483   9.292  50.184  1.00  0.00     0.137 C 
BRANCH  12  13
HETATM   13  N3  UNL     1      28.538   9.658  49.297  1.00  0.00    -0.399 N 
HETATM   14  C8  UNL     1      29.515   8.687  49.020  1.00  0.00     0.145 C 
HETATM   15  C9  UNL     1      30.935   9.203  49.055  1.00  0.00     0.204 C 
HETATM   16  O1  UNL     1      31.208  10.164  48.113  1.00  0.00    -0.317 OA
HETATM   17  S1  UNL     1      29.987  11.309  47.864  1.00  0.00     0.007 SA
HETATM   18  C10 UNL     1      28.351  10.734  48.416  1.00  0.00     0.222 C 
ENDBRANCH  12  13
ENDBRANCH  11  12
ENDBRANCH   9  11
ENDBRANCH   4   9
BRANCH   1  19
HETATM   19  N1  UNL     1      23.854   2.106  52.210  1.00  0.00    -0.354 N 
HETATM   20  C2  UNL     1      25.001   1.272  52.293  1.00  0.00     0.110 A 
HETATM   21  C1  UNL     1      25.082   0.064  52.822  1.00  0.00     0.026 A 
HETATM   22 BR1  UNL     1      26.674  -0.980  52.885  1.00  0.00    -0.050 Br
HETATM   23  C15 UNL     1      23.867  -0.505  53.393  1.00  0.00     0.018 A 
HETATM   24  C14 UNL     1      22.796   0.259  53.320  1.00  0.00    -0.005 A 
HETATM   25  C13 UNL     1      22.627   1.606  52.749  1.00  0.00     0.155 A 
ENDBRANCH   1  19
TORSDOF 5
ENDMDL
MODEL 7
REMARK VINA RESULT:      -6.5      4.006      7.914
REMARK  5 active torsions:
REMARK  status: ('A' for Active; 'I' for Inactive)
REMARK    1  A    between atoms: N1_4  and  C3_5 
REMARK    2  A    between atoms: C5_8  and  N2_9 
REMARK    3  A    between atoms: N2_9  and  C6_10 
REMARK    4  A    between atoms: C6_10  and  C7_11 
REMARK    5  A    between atoms: C7_11  and  N3_12 
ROOT
HETATM    1  C3  UNL     1      27.190   6.132  48.685  1.00  0.00     0.022 C 
HETATM    2  P1  UNL     1      25.779   6.833  49.191  1.00  0.00    -0.031 P 
HETATM    3  C4  UNL     1      24.257   5.953  49.869  1.00  0.00     0.102 C 
HETATM    4  C5  UNL     1      24.677   4.686  50.526  1.00  0.00     0.320 C 
HETATM    5  N4  UNL     1      26.142   4.593  50.511  1.00  0.00     0.106 N 
HETATM    6  C11 UNL     1      26.628   3.834  49.374  1.00  0.00     0.278 C 
HETATM    7  C12 UNL     1      27.606   4.718  48.632  1.00  0.00     0.088 C 
HETATM    8  H16 UNL     1      26.510   4.209  51.409  1.00  0.00     0.318 HD
ENDROOT
BRANCH   4   9
HETATM    9  N2  UNL     1      24.160   4.480  51.818  1.00  0.00    -0.392 N 
HETATM   10  H5  UNL     1      24.405   5.170  52.554  1.00  0.00     0.155 HD
BRANCH   9  11
HETATM   11  C6  UNL     1      23.893   3.168  52.265  1.00  0.00     0.135 C 
BRANCH  11  12
HETATM   12  C7  UNL     1      24.736   2.756  53.415  1.00  0.00     0.137 C 
BRANCH  12  13
HETATM   13  N3  UNL     1      25.389   1.499  53.251  1.00  0.00    -0.399 N 
HETATM   14  C8  UNL     1      24.617   0.341  53.443  1.00  0.00     0.145 C 
HETATM   15  C9  UNL     1      25.295  -0.732  54.265  1.00  0.00     0.204 C 
HETATM   16  O1  UNL     1      26.438  -1.237  53.697  1.00  0.00    -0.317 OA
HETATM   17  S1  UNL     1      27.444  -0.101  52.947  1.00  0.00     0.007 SA
HETATM   18  C10 UNL     1      26.575   1.434  52.504  1.00  0.00     0.222 C 
ENDBRANCH  12  13
ENDBRANCH  11  12
ENDBRANCH   9  11
ENDBRANCH   4   9
BRANCH   1  19
HETATM   19  N1  UNL     1      28.167   7.054  48.222  1.00  0.00    -0.354 N 
HETATM   20  C2  UNL     1      27.896   8.448  48.182  1.00  0.00     0.110 A 
HETATM   21  C1  UNL     1      28.704   9.415  47.785  1.00  0.00     0.026 A 
HETATM   22 BR1  UNL     1      28.246  11.264  47.769  1.00  0.00    -0.050 Br
HETATM   23  C15 UNL     1      30.035   9.035  47.326  1.00  0.00     0.018 A 
HETATM   24  C14 UNL     1      30.297   7.745  47.356  1.00  0.00    -0.005 A 
HETATM   25  C13 UNL     1      29.454   6.614  47.781  1.00  0.00     0.155 A 
ENDBRANCH   1  19
TORSDOF 5
ENDMDL
MODEL 8
REMARK VINA RESULT:      -6.5      5.654      7.610
REMARK  5 active torsions:
REMARK  status: ('A' for Active; 'I' for Inactive)
REMARK    1  A    between atoms: N1_4  and  C3_5 
REMARK    2  A    between atoms: C5_8  and  N2_9 
REMARK    3  A    between atoms: N2_9  and  C6_10 
REMARK    4  A    between atoms: C6_10  and  C7_11 
REMARK    5  A    between atoms: C7_11  and  N3_12 
ROOT
HETATM    1  C3  UNL     1      24.739   0.484  53.022  1.00  0.00     0.022 C 
HETATM    2  P1  UNL     1      24.015   1.325  51.794  1.00  0.00    -0.031 P 
HETATM    3  C4  UNL     1      22.235   1.156  51.203  1.00  0.00     0.102 C 
HETATM    4  C5  UNL     1      21.381   0.716  52.339  1.00  0.00     0.320 C 
HETATM    5  N4  UNL     1      22.194   0.654  53.561  1.00  0.00     0.106 N 
HETATM    6  C11 UNL     1      22.713  -0.679  53.802  1.00  0.00     0.278 C 
HETATM    7  C12 UNL     1      24.215  -0.558  53.925  1.00  0.00     0.088 C 
HETATM    8  H16 UNL     1      21.668   1.013  54.389  1.00  0.00     0.318 HD
ENDROOT
BRANCH   4   9
HETATM    9  N2  UNL     1      20.209   1.469  52.536  1.00  0.00    -0.392 N 
HETATM   10  H5  UNL     1      19.473   1.070  53.150  1.00  0.00     0.155 HD
BRANCH   9  11
HETATM   11  C6  UNL     1      19.760   2.343  51.523  1.00  0.00     0.135 C 
BRANCH  11  12
HETATM   12  C7  UNL     1      19.970   3.776  51.847  1.00  0.00     0.137 C 
BRANCH  12  13
HETATM   13  N3  UNL     1      21.088   4.375  51.196  1.00  0.00    -0.399 N 
HETATM   14  C8  UNL     1      20.979   4.612  49.815  1.00  0.00     0.145 C 
HETATM   15  C9  UNL     1      22.203   4.225  49.017  1.00  0.00     0.204 C 
HETATM   16  O1  UNL     1      23.334   4.931  49.344  1.00  0.00    -0.317 OA
HETATM   17  S1  UNL     1      23.562   5.221  50.996  1.00  0.00     0.007 SA
HETATM   18  C10 UNL     1      22.023   5.091  51.958  1.00  0.00     0.222 C 
ENDBRANCH  12  13
ENDBRANCH  11  12
ENDBRANCH   9  11
ENDBRANCH   4   9
BRANCH   1  19
HETATM   19  N1  UNL     1      26.101   0.828  53.242  1.00  0.00    -0.354 N 
HETATM   20  C2  UNL     1      27.109  -0.172  53.282  1.00  0.00     0.110 A 
HETATM   21  C1  UNL     1      28.406  -0.001  53.470  1.00  0.00     0.026 A 
HETATM   22 BR1  UNL     1      29.684  -1.413  53.508  1.00  0.00    -0.050 Br
HETATM   23  C15 UNL     1      28.885   1.362  53.663  1.00  0.00     0.018 A 
HETATM   24  C14 UNL     1      27.959   2.298  53.630  1.00  0.00    -0.005 A 
HETATM   25  C13 UNL     1      26.504   2.187  53.427  1.00  0.00     0.155 A 
ENDBRANCH   1  19
TORSDOF 5
ENDMDL
MODEL 9
REMARK VINA RESULT:      -6.4      4.553      8.530
REMARK  5 active torsions:
REMARK  status: ('A' for Active; 'I' for Inactive)
REMARK    1  A    between atoms: N1_4  and  C3_5 
REMARK    2  A    between atoms: C5_8  and  N2_9 
REMARK    3  A    between atoms: N2_9  and  C6_10 
REMARK    4  A    between atoms: C6_10  and  C7_11 
REMARK    5  A    between atoms: C7_11  and  N3_12 
ROOT
HETATM    1  C3  UNL     1      27.200   7.798  49.097  1.00  0.00     0.022 C 
HETATM    2  P1  UNL     1      25.934   8.402  49.974  1.00  0.00    -0.031 P 
HETATM    3  C4  UNL     1      24.340   7.505  50.425  1.00  0.00     0.102 C 
HETATM    4  C5  UNL     1      24.608   6.044  50.510  1.00  0.00     0.320 C 
HETATM    5  N4  UNL     1      26.042   5.800  50.308  1.00  0.00     0.106 N 
HETATM    6  C11 UNL     1      26.352   5.491  48.925  1.00  0.00     0.278 C 
HETATM    7  C12 UNL     1      27.407   6.477  48.473  1.00  0.00     0.088 C 
HETATM    8  H16 UNL     1      26.398   5.060  50.952  1.00  0.00     0.318 HD
ENDROOT
BRANCH   4   9
HETATM    9  N2  UNL     1      24.136   5.414  51.676  1.00  0.00    -0.392 N 
HETATM   10  H5  UNL     1      24.389   5.835  52.591  1.00  0.00     0.155 HD
BRANCH   9  11
HETATM   11  C6  UNL     1      23.913   4.020  51.678  1.00  0.00     0.135 C 
BRANCH  11  12
HETATM   12  C7  UNL     1      24.219   3.378  52.980  1.00  0.00     0.137 C 
BRANCH  12  13
HETATM   13  N3  UNL     1      24.045   1.963  52.999  1.00  0.00    -0.399 N 
HETATM   14  C8  UNL     1      22.833   1.455  52.500  1.00  0.00     0.145 C 
HETATM   15  C9  UNL     1      22.213   0.372  53.353  1.00  0.00     0.204 C 
HETATM   16  O1  UNL     1      22.977  -0.762  53.465  1.00  0.00    -0.317 OA
HETATM   17  S1  UNL     1      24.640  -0.507  53.649  1.00  0.00     0.007 SA
HETATM   18  C10 UNL     1      25.174   1.134  53.071  1.00  0.00     0.222 C 
ENDBRANCH  12  13
ENDBRANCH  11  12
ENDBRANCH   9  11
ENDBRANCH   4   9
BRANCH   1  19
HETATM   19  N1  UNL     1      28.274   8.712  48.915  1.00  0.00    -0.354 N 
HETATM   20  C2  UNL     1      28.048  10.114  48.917  1.00  0.00     0.110 A 
HETATM   21  C1  UNL     1      28.944  11.074  48.768  1.00  0.00     0.026 A 
HETATM   22 BR1  UNL     1      28.540  12.936  48.786  1.00  0.00    -0.050 Br
HETATM   23  C15 UNL     1      30.333  10.676  48.574  1.00  0.00     0.018 A 
HETATM   24  C14 UNL     1      30.554   9.378  48.567  1.00  0.00    -0.005 A 
HETATM   25  C13 UNL     1      29.616   8.254  48.726  1.00  0.00     0.155 A 
ENDBRANCH   1  19
TORSDOF 5
ENDMDL
