MODEL 1
REMARK VINA RESULT:      -8.7      0.000      0.000
REMARK  4 active torsions:
REMARK  status: ('A' for Active; 'I' for Inactive)
REMARK    1  A    between atoms: O1_1  and  C1_2 
REMARK    2  A    between atoms: C11_13  and  C12_14 
REMARK    3  A    between atoms: C12_14  and  O2_15 
REMARK    4  A    between atoms: C12_14  and  C13_16 
ROOT
HETATM    1  C1  UNL     1      23.118   4.928  50.530  1.00  0.00     0.171 C 
HETATM    2  C2  UNL     1      21.800   4.430  51.049  1.00  0.00     0.006 C 
HETATM    3  C3  UNL     1      21.494   3.136  51.152  1.00  0.00    -0.018 C 
HETATM    4  C4  UNL     1      22.254   1.874  50.886  1.00  0.00     0.046 C 
HETATM    5  C5  UNL     1      22.606   1.782  49.433  1.00  0.00     0.041 C 
HETATM    6  C6  UNL     1      23.252   3.004  48.878  1.00  0.00    -0.018 C 
HETATM    7  C7  UNL     1      23.845   3.855  49.740  1.00  0.00    -0.034 C 
HETATM    8  C8  UNL     1      25.162   4.238  50.360  1.00  0.00     0.156 C 
HETATM    9  N1  UNL     1      25.238   3.533  51.653  1.00  0.00    -0.385 N 
HETATM   10  C9  UNL     1      24.604   2.336  52.153  1.00  0.00     0.035 A 
HETATM   11  C10 UNL     1      25.472   1.877  53.117  1.00  0.00     0.039 A 
HETATM   12  C11 UNL     1      25.151   0.722  53.799  1.00  0.00    -0.023 A 
HETATM   13  C19 UNL     1      23.987   0.034  53.530  1.00  0.00     0.011 A 
HETATM   14  C20 UNL     1      23.178   0.570  52.548  1.00  0.00     0.011 A 
HETATM   15  C21 UNL     1      23.411   1.725  51.805  1.00  0.00    -0.024 A 
HETATM   16  H11 UNL     1      25.861   3.975  52.335  1.00  0.00     0.160 HD
ENDROOT
BRANCH  12  17
HETATM   17  C12 UNL     1      26.071   0.203  54.845  1.00  0.00     0.184 C 
BRANCH  17  18
HETATM   18  O2  UNL     1      25.491  -0.982  55.347  1.00  0.00    -0.386 OA
HETATM   19  H14 UNL     1      26.016  -1.381  56.066  1.00  0.00     0.210 HD
ENDBRANCH  17  18
BRANCH  17  20
HETATM   20  C13 UNL     1      27.401  -0.162  54.284  1.00  0.00    -0.025 A 
HETATM   21  C14 UNL     1      28.547   0.559  54.582  1.00  0.00     0.010 A 
HETATM   22  C15 UNL     1      29.740   0.144  54.012  1.00  0.00     0.001 A 
HETATM   23  C16 UNL     1      29.812  -0.948  53.173  1.00  0.00     0.000 A 
HETATM   24  C17 UNL     1      28.628  -1.637  52.908  1.00  0.00     0.001 A 
HETATM   25  C18 UNL     1      27.418  -1.269  53.446  1.00  0.00     0.010 A 
ENDBRANCH  17  20
ENDBRANCH  12  17
BRANCH   1  26
HETATM   26  O1  UNL     1      22.999   6.115  49.812  1.00  0.00    -0.387 OA
HETATM   27  H1  UNL     1      22.462   5.875  48.999  1.00  0.00     0.210 HD
ENDBRANCH   1  26
TORSDOF 4
ENDMDL
MODEL 2
REMARK VINA RESULT:      -8.6      2.147      6.655
REMARK  4 active torsions:
REMARK  status: ('A' for Active; 'I' for Inactive)
REMARK    1  A    between atoms: O1_1  and  C1_2 
REMARK    2  A    between atoms: C11_13  and  C12_14 
REMARK    3  A    between atoms: C12_14  and  O2_15 
REMARK    4  A    between atoms: C12_14  and  C13_16 
ROOT
HETATM    1  C1  UNL     1      28.584  -0.229  53.363  1.00  0.00     0.171 C 
HETATM    2  C2  UNL     1      27.726  -1.292  52.741  1.00  0.00     0.006 C 
HETATM    3  C3  UNL     1      26.394  -1.229  52.697  1.00  0.00    -0.018 C 
HETATM    4  C4  UNL     1      25.399  -0.199  53.133  1.00  0.00     0.046 C 
HETATM    5  C5  UNL     1      25.462  -0.018  54.617  1.00  0.00     0.041 C 
HETATM    6  C6  UNL     1      26.834   0.206  55.151  1.00  0.00    -0.018 C 
HETATM    7  C7  UNL     1      27.780   0.654  54.301  1.00  0.00    -0.034 C 
HETATM    8  C8  UNL     1      28.483   1.888  53.802  1.00  0.00     0.156 C 
HETATM    9  N1  UNL     1      27.776   2.307  52.578  1.00  0.00    -0.385 N 
HETATM   10  C9  UNL     1      26.433   2.081  52.098  1.00  0.00     0.035 A 
HETATM   11  C10 UNL     1      26.190   3.152  51.269  1.00  0.00     0.039 A 
HETATM   12  C11 UNL     1      24.966   3.236  50.639  1.00  0.00    -0.023 A 
HETATM   13  C19 UNL     1      23.999   2.273  50.828  1.00  0.00     0.011 A 
HETATM   14  C20 UNL     1      24.332   1.235  51.676  1.00  0.00     0.011 A 
HETATM   15  C21 UNL     1      25.535   1.060  52.357  1.00  0.00    -0.024 A 
HETATM   16  H11 UNL     1      28.344   2.870  51.938  1.00  0.00     0.160 HD
ENDROOT
BRANCH  12  17
HETATM   17  C12 UNL     1      24.677   4.383  49.738  1.00  0.00     0.184 C 
BRANCH  17  18
HETATM   18  O2  UNL     1      23.966   5.332  50.503  1.00  0.00    -0.386 OA
HETATM   19  H14 UNL     1      24.422   5.560  51.335  1.00  0.00     0.210 HD
ENDBRANCH  17  18
BRANCH  17  20
HETATM   20  C13 UNL     1      25.923   5.044  49.263  1.00  0.00    -0.025 A 
HETATM   21  C14 UNL     1      27.044   4.318  48.893  1.00  0.00     0.010 A 
HETATM   22  C15 UNL     1      28.158   5.021  48.463  1.00  0.00     0.001 A 
HETATM   23  C16 UNL     1      28.177   6.399  48.396  1.00  0.00     0.000 A 
HETATM   24  C17 UNL     1      27.021   7.078  48.781  1.00  0.00     0.001 A 
HETATM   25  C18 UNL     1      25.888   6.431  49.215  1.00  0.00     0.010 A 
ENDBRANCH  17  20
ENDBRANCH  12  17
BRANCH   1  26
HETATM   26  O1  UNL     1      29.720  -0.747  53.978  1.00  0.00    -0.387 OA
HETATM   27  H1  UNL     1      29.774  -0.279  54.864  1.00  0.00     0.210 HD
ENDBRANCH   1  26
TORSDOF 4
ENDMDL
MODEL 3
REMARK VINA RESULT:      -8.4      1.697      2.923
REMARK  4 active torsions:
REMARK  status: ('A' for Active; 'I' for Inactive)
REMARK    1  A    between atoms: O1_1  and  C1_2 
REMARK    2  A    between atoms: C11_13  and  C12_14 
REMARK    3  A    between atoms: C12_14  and  O2_15 
REMARK    4  A    between atoms: C12_14  and  C13_16 
ROOT
HETATM    1  C1  UNL     1      21.469   1.287  49.733  1.00  0.00     0.171 C 
HETATM    2  C2  UNL     1      22.525   2.169  49.130  1.00  0.00     0.006 C 
HETATM    3  C3  UNL     1      23.208   3.078  49.828  1.00  0.00    -0.018 C 
HETATM    4  C4  UNL     1      23.223   3.466  51.274  1.00  0.00     0.046 C 
HETATM    5  C5  UNL     1      21.887   4.011  51.675  1.00  0.00     0.041 C 
HETATM    6  C6  UNL     1      20.733   3.150  51.293  1.00  0.00    -0.018 C 
HETATM    7  C7  UNL     1      20.968   1.844  51.053  1.00  0.00    -0.034 C 
HETATM    8  C8  UNL     1      20.945   0.470  51.666  1.00  0.00     0.156 C 
HETATM    9  N1  UNL     1      22.315   0.200  52.141  1.00  0.00    -0.385 N 
HETATM   10  C9  UNL     1      23.408   1.066  52.516  1.00  0.00     0.035 A 
HETATM   11  C10 UNL     1      24.149   0.307  53.393  1.00  0.00     0.039 A 
HETATM   12  C11 UNL     1      25.287   0.857  53.947  1.00  0.00    -0.023 A 
HETATM   13  C19 UNL     1      25.683   2.140  53.634  1.00  0.00     0.011 A 
HETATM   14  C20 UNL     1      24.878   2.826  52.746  1.00  0.00     0.011 A 
HETATM   15  C21 UNL     1      23.715   2.361  52.135  1.00  0.00    -0.024 A 
HETATM   16  H11 UNL     1      22.542  -0.794  52.223  1.00  0.00     0.160 HD
ENDROOT
BRANCH  12  17
HETATM   17  C12 UNL     1      26.106   0.060  54.897  1.00  0.00     0.184 C 
BRANCH  17  18
HETATM   18  O2  UNL     1      25.345  -1.079  55.234  1.00  0.00    -0.386 OA
HETATM   19  H14 UNL     1      25.901  -1.836  55.501  1.00  0.00     0.210 HD
ENDBRANCH  17  18
BRANCH  17  20
HETATM   20  C13 UNL     1      27.368  -0.424  54.271  1.00  0.00    -0.025 A 
HETATM   21  C14 UNL     1      27.374  -1.410  53.297  1.00  0.00     0.010 A 
HETATM   22  C15 UNL     1      28.597  -1.795  52.774  1.00  0.00     0.001 A 
HETATM   23  C16 UNL     1      29.786  -1.231  53.191  1.00  0.00     0.000 A 
HETATM   24  C17 UNL     1      29.720  -0.243  54.174  1.00  0.00     0.001 A 
HETATM   25  C18 UNL     1      28.534   0.177  54.727  1.00  0.00     0.010 A 
ENDBRANCH  17  20
ENDBRANCH  12  17
BRANCH   1  26
HETATM   26  O1  UNL     1      20.427   1.017  48.850  1.00  0.00    -0.387 OA
HETATM   27  H1  UNL     1      19.612   1.418  49.277  1.00  0.00     0.210 HD
ENDBRANCH   1  26
TORSDOF 4
ENDMDL
MODEL 4
REMARK VINA RESULT:      -8.3      2.049      3.155
REMARK  4 active torsions:
REMARK  status: ('A' for Active; 'I' for Inactive)
REMARK    1  A    between atoms: O1_1  and  C1_2 
REMARK    2  A    between atoms: C11_13  and  C12_14 
REMARK    3  A    between atoms: C12_14  and  O2_15 
REMARK    4  A    between atoms: C12_14  and  C13_16 
ROOT
HETATM    1  C1  UNL     1      20.879   2.029  50.214  1.00  0.00     0.171 C 
HETATM    2  C2  UNL     1      21.512   1.635  48.911  1.00  0.00     0.006 C 
HETATM    3  C3  UNL     1      22.570   2.258  48.390  1.00  0.00    -0.018 C 
HETATM    4  C4  UNL     1      23.437   3.383  48.864  1.00  0.00     0.046 C 
HETATM    5  C5  UNL     1      22.629   4.637  48.991  1.00  0.00     0.041 C 
HETATM    6  C6  UNL     1      21.368   4.481  49.766  1.00  0.00    -0.018 C 
HETATM    7  C7  UNL     1      21.272   3.439  50.617  1.00  0.00    -0.034 C 
HETATM    8  C8  UNL     1      21.435   3.022  52.055  1.00  0.00     0.156 C 
HETATM    9  N1  UNL     1      22.793   2.460  52.177  1.00  0.00    -0.385 N 
HETATM   10  C9  UNL     1      24.002   2.647  51.409  1.00  0.00     0.035 A 
HETATM   11  C10 UNL     1      25.011   2.368  52.302  1.00  0.00     0.039 A 
HETATM   12  C11 UNL     1      26.318   2.458  51.872  1.00  0.00    -0.023 A 
HETATM   13  C19 UNL     1      26.620   2.818  50.576  1.00  0.00     0.011 A 
HETATM   14  C20 UNL     1      25.543   3.079  49.752  1.00  0.00     0.011 A 
HETATM   15  C21 UNL     1      24.193   3.017  50.089  1.00  0.00    -0.024 A 
HETATM   16  H11 UNL     1      22.908   1.808  52.957  1.00  0.00     0.160 HD
ENDROOT
BRANCH  12  17
HETATM   17  C12 UNL     1      27.428   2.162  52.816  1.00  0.00     0.184 C 
BRANCH  17  18
HETATM   18  O2  UNL     1      27.002   2.587  54.092  1.00  0.00    -0.386 OA
HETATM   19  H14 UNL     1      27.149   1.911  54.781  1.00  0.00     0.210 HD
ENDBRANCH  17  18
BRANCH  17  20
HETATM   20  C13 UNL     1      27.704   0.701  52.908  1.00  0.00    -0.025 A 
HETATM   21  C14 UNL     1      26.779  -0.248  52.502  1.00  0.00     0.010 A 
HETATM   22  C15 UNL     1      27.125  -1.584  52.626  1.00  0.00     0.001 A 
HETATM   23  C16 UNL     1      28.345  -1.983  53.133  1.00  0.00     0.000 A 
HETATM   24  C17 UNL     1      29.237  -0.985  53.527  1.00  0.00     0.001 A 
HETATM   25  C18 UNL     1      28.945   0.354  53.425  1.00  0.00     0.010 A 
ENDBRANCH  17  20
ENDBRANCH  12  17
BRANCH   1  26
HETATM   26  O1  UNL     1      19.498   1.851  50.217  1.00  0.00    -0.387 OA
HETATM   27  H1  UNL     1      19.165   2.382  49.433  1.00  0.00     0.210 HD
ENDBRANCH   1  26
TORSDOF 4
ENDMDL
MODEL 5
REMARK VINA RESULT:      -8.2      1.525      2.531
REMARK  4 active torsions:
REMARK  status: ('A' for Active; 'I' for Inactive)
REMARK    1  A    between atoms: O1_1  and  C1_2 
REMARK    2  A    between atoms: C11_13  and  C12_14 
REMARK    3  A    between atoms: C12_14  and  O2_15 
REMARK    4  A    between atoms: C12_14  and  C13_16 
ROOT
HETATM    1  C1  UNL     1      22.022   5.042  50.097  1.00  0.00     0.171 C 
HETATM    2  C2  UNL     1      22.693   4.532  48.854  1.00  0.00     0.006 C 
HETATM    3  C3  UNL     1      24.009   4.337  48.758  1.00  0.00    -0.018 C 
HETATM    4  C4  UNL     1      25.143   4.474  49.725  1.00  0.00     0.046 C 
HETATM    5  C5  UNL     1      25.281   5.901  50.158  1.00  0.00     0.041 C 
HETATM    6  C6  UNL     1      24.013   6.528  50.622  1.00  0.00    -0.018 C 
HETATM    7  C7  UNL     1      23.015   5.717  51.026  1.00  0.00    -0.034 C 
HETATM    8  C8  UNL     1      22.374   5.083  52.232  1.00  0.00     0.156 C 
HETATM    9  N1  UNL     1      22.960   3.735  52.358  1.00  0.00    -0.385 N 
HETATM   10  C9  UNL     1      24.206   3.164  51.904  1.00  0.00     0.035 A 
HETATM   11  C10 UNL     1      24.444   2.136  52.788  1.00  0.00     0.039 A 
HETATM   12  C11 UNL     1      25.583   1.375  52.626  1.00  0.00    -0.023 A 
HETATM   13  C19 UNL     1      26.472   1.630  51.604  1.00  0.00     0.011 A 
HETATM   14  C20 UNL     1      26.151   2.680  50.767  1.00  0.00     0.011 A 
HETATM   15  C21 UNL     1      25.031   3.505  50.845  1.00  0.00    -0.024 A 
HETATM   16  H11 UNL     1      22.373   3.069  52.867  1.00  0.00     0.160 HD
ENDROOT
BRANCH  12  17
HETATM   17  C12 UNL     1      25.864   0.259  53.566  1.00  0.00     0.184 C 
BRANCH  17  18
HETATM   18  O2  UNL     1      25.177  -0.871  53.075  1.00  0.00    -0.386 OA
HETATM   19  H14 UNL     1      24.655  -0.673  52.273  1.00  0.00     0.210 HD
ENDBRANCH  17  18
BRANCH  17  20
HETATM   20  C13 UNL     1      27.312  -0.087  53.600  1.00  0.00    -0.025 A 
HETATM   21  C14 UNL     1      28.259   0.768  54.142  1.00  0.00     0.010 A 
HETATM   22  C15 UNL     1      29.583   0.360  54.129  1.00  0.00     0.001 A 
HETATM   23  C16 UNL     1      29.973  -0.853  53.599  1.00  0.00     0.000 A 
HETATM   24  C17 UNL     1      28.978  -1.673  53.066  1.00  0.00     0.001 A 
HETATM   25  C18 UNL     1      27.650  -1.318  53.054  1.00  0.00     0.010 A 
ENDBRANCH  17  20
ENDBRANCH  12  17
BRANCH   1  26
HETATM   26  O1  UNL     1      20.927   5.856  49.821  1.00  0.00    -0.387 OA
HETATM   27  H1  UNL     1      20.227   5.587  50.487  1.00  0.00     0.210 HD
ENDBRANCH   1  26
TORSDOF 4
ENDMDL
MODEL 6
REMARK VINA RESULT:      -7.9      1.867      2.878
REMARK  4 active torsions:
REMARK  status: ('A' for Active; 'I' for Inactive)
REMARK    1  A    between atoms: O1_1  and  C1_2 
REMARK    2  A    between atoms: C11_13  and  C12_14 
REMARK    3  A    between atoms: C12_14  and  O2_15 
REMARK    4  A    between atoms: C12_14  and  C13_16 
ROOT
HETATM    1  C1  UNL     1      20.739   1.984  48.688  1.00  0.00     0.171 C 
HETATM    2  C2  UNL     1      21.981   2.047  47.845  1.00  0.00     0.006 C 
HETATM    3  C3  UNL     1      23.096   2.672  48.226  1.00  0.00    -0.018 C 
HETATM    4  C4  UNL     1      23.496   3.390  49.477  1.00  0.00     0.046 C 
HETATM    5  C5  UNL     1      22.629   4.593  49.680  1.00  0.00     0.041 C 
HETATM    6  C6  UNL     1      21.168   4.322  49.581  1.00  0.00    -0.018 C 
HETATM    7  C7  UNL     1      20.745   3.055  49.764  1.00  0.00    -0.034 C 
HETATM    8  C8  UNL     1      20.189   2.091  50.777  1.00  0.00     0.156 C 
HETATM    9  N1  UNL     1      21.338   1.343  51.320  1.00  0.00    -0.385 N 
HETATM   10  C9  UNL     1      22.747   1.647  51.410  1.00  0.00     0.035 A 
HETATM   11  C10 UNL     1      23.180   0.903  52.485  1.00  0.00     0.039 A 
HETATM   12  C11 UNL     1      24.510   0.972  52.844  1.00  0.00    -0.023 A 
HETATM   13  C19 UNL     1      25.397   1.765  52.147  1.00  0.00     0.011 A 
HETATM   14  C20 UNL     1      24.873   2.474  51.085  1.00  0.00     0.011 A 
HETATM   15  C21 UNL     1      23.551   2.473  50.644  1.00  0.00    -0.024 A 
HETATM   16  H11 UNL     1      21.097   0.429  51.711  1.00  0.00     0.160 HD
ENDROOT
BRANCH  12  17
HETATM   17  C12 UNL     1      25.005   0.180  54.000  1.00  0.00     0.184 C 
BRANCH  17  18
HETATM   18  O2  UNL     1      24.184  -0.964  54.091  1.00  0.00    -0.386 OA
HETATM   19  H14 UNL     1      23.399  -0.909  53.513  1.00  0.00     0.210 HD
ENDBRANCH  17  18
BRANCH  17  20
HETATM   20  C13 UNL     1      26.401  -0.294  53.792  1.00  0.00    -0.025 A 
HETATM   21  C14 UNL     1      27.479   0.294  54.434  1.00  0.00     0.010 A 
HETATM   22  C15 UNL     1      28.742  -0.216  54.178  1.00  0.00     0.001 A 
HETATM   23  C16 UNL     1      28.946  -1.274  53.316  1.00  0.00     0.000 A 
HETATM   24  C17 UNL     1      27.824  -1.827  52.698  1.00  0.00     0.001 A 
HETATM   25  C18 UNL     1      26.550  -1.361  52.916  1.00  0.00     0.010 A 
ENDBRANCH  17  20
ENDBRANCH  12  17
BRANCH   1  26
HETATM   26  O1  UNL     1      19.572   2.012  47.929  1.00  0.00    -0.387 OA
HETATM   27  H1  UNL     1      19.536   2.937  47.541  1.00  0.00     0.210 HD
ENDBRANCH   1  26
TORSDOF 4
ENDMDL
MODEL 7
REMARK VINA RESULT:      -7.6      1.519      2.155
REMARK  4 active torsions:
REMARK  status: ('A' for Active; 'I' for Inactive)
REMARK    1  A    between atoms: O1_1  and  C1_2 
REMARK    2  A    between atoms: C11_13  and  C12_14 
REMARK    3  A    between atoms: C12_14  and  O2_15 
REMARK    4  A    between atoms: C12_14  and  C13_16 
ROOT
HETATM    1  C1  UNL     1      22.145   6.603  50.652  1.00  0.00     0.171 C 
HETATM    2  C2  UNL     1      20.964   5.826  50.145  1.00  0.00     0.006 C 
HETATM    3  C3  UNL     1      21.066   4.624  49.576  1.00  0.00    -0.018 C 
HETATM    4  C4  UNL     1      22.217   3.701  49.319  1.00  0.00     0.046 C 
HETATM    5  C5  UNL     1      23.191   4.343  48.379  1.00  0.00     0.041 C 
HETATM    6  C6  UNL     1      23.598   5.722  48.764  1.00  0.00    -0.018 C 
HETATM    7  C7  UNL     1      23.443   6.094  50.051  1.00  0.00    -0.034 C 
HETATM    8  C8  UNL     1      24.149   6.223  51.374  1.00  0.00     0.156 C 
HETATM    9  N1  UNL     1      23.854   4.991  52.129  1.00  0.00    -0.385 N 
HETATM   10  C9  UNL     1      23.473   3.660  51.718  1.00  0.00     0.035 A 
HETATM   11  C10 UNL     1      23.913   2.856  52.745  1.00  0.00     0.039 A 
HETATM   12  C11 UNL     1      23.700   1.496  52.657  1.00  0.00    -0.023 A 
HETATM   13  C19 UNL     1      23.059   0.943  51.569  1.00  0.00     0.011 A 
HETATM   14  C20 UNL     1      22.654   1.827  50.589  1.00  0.00     0.011 A 
HETATM   15  C21 UNL     1      22.821   3.210  50.583  1.00  0.00    -0.024 A 
HETATM   16  H11 UNL     1      23.933   5.093  53.144  1.00  0.00     0.160 HD
ENDROOT
BRANCH  12  17
HETATM   17  C12 UNL     1      24.164   0.604  53.752  1.00  0.00     0.184 C 
BRANCH  17  18
HETATM   18  O2  UNL     1      23.444  -0.603  53.627  1.00  0.00    -0.386 OA
HETATM   19  H14 UNL     1      23.584  -1.035  52.762  1.00  0.00     0.210 HD
ENDBRANCH  17  18
BRANCH  17  20
HETATM   20  C13 UNL     1      25.609   0.270  53.621  1.00  0.00    -0.025 A 
HETATM   21  C14 UNL     1      26.602   1.087  54.139  1.00  0.00     0.010 A 
HETATM   22  C15 UNL     1      27.919   0.695  53.968  1.00  0.00     0.001 A 
HETATM   23  C16 UNL     1      28.259  -0.468  53.307  1.00  0.00     0.000 A 
HETATM   24  C17 UNL     1      27.220  -1.252  52.806  1.00  0.00     0.001 A 
HETATM   25  C18 UNL     1      25.896  -0.910  52.947  1.00  0.00     0.010 A 
ENDBRANCH  17  20
ENDBRANCH  12  17
BRANCH   1  26
HETATM   26  O1  UNL     1      21.996   7.977  50.486  1.00  0.00    -0.387 OA
HETATM   27  H1  UNL     1      22.213   8.373  51.382  1.00  0.00     0.210 HD
ENDBRANCH   1  26
TORSDOF 4
ENDMDL
MODEL 8
REMARK VINA RESULT:      -7.6      2.860      4.508
REMARK  4 active torsions:
REMARK  status: ('A' for Active; 'I' for Inactive)
REMARK    1  A    between atoms: O1_1  and  C1_2 
REMARK    2  A    between atoms: C11_13  and  C12_14 
REMARK    3  A    between atoms: C12_14  and  O2_15 
REMARK    4  A    between atoms: C12_14  and  C13_16 
ROOT
HETATM    1  C1  UNL     1      24.134   6.424  48.400  1.00  0.00     0.171 C 
HETATM    2  C2  UNL     1      24.806   7.136  49.539  1.00  0.00     0.006 C 
HETATM    3  C3  UNL     1      24.415   7.020  50.809  1.00  0.00    -0.018 C 
HETATM    4  C4  UNL     1      23.355   6.212  51.490  1.00  0.00     0.046 C 
HETATM    5  C5  UNL     1      22.001   6.623  51.002  1.00  0.00     0.041 C 
HETATM    6  C6  UNL     1      21.868   6.665  49.520  1.00  0.00    -0.018 C 
HETATM    7  C7  UNL     1      22.744   5.951  48.784  1.00  0.00    -0.034 C 
HETATM    8  C8  UNL     1      22.951   4.642  48.071  1.00  0.00     0.156 C 
HETATM    9  N1  UNL     1      23.663   3.759  49.014  1.00  0.00    -0.385 N 
HETATM   10  C9  UNL     1      23.757   3.741  50.455  1.00  0.00     0.035 A 
HETATM   11  C10 UNL     1      24.026   2.425  50.755  1.00  0.00     0.039 A 
HETATM   12  C11 UNL     1      24.178   2.066  52.078  1.00  0.00    -0.023 A 
HETATM   13  C19 UNL     1      24.065   2.998  53.087  1.00  0.00     0.011 A 
HETATM   14  C20 UNL     1      23.794   4.293  52.691  1.00  0.00     0.011 A 
HETATM   15  C21 UNL     1      23.624   4.755  51.388  1.00  0.00    -0.024 A 
HETATM   16  H11 UNL     1      24.196   3.009  48.565  1.00  0.00     0.160 HD
ENDROOT
BRANCH  12  17
HETATM   17  C12 UNL     1      24.468   0.651  52.430  1.00  0.00     0.184 C 
BRANCH  17  18
HETATM   18  O2  UNL     1      25.550   0.671  53.337  1.00  0.00    -0.386 OA
HETATM   19  H14 UNL     1      25.848   1.578  53.544  1.00  0.00     0.210 HD
ENDBRANCH  17  18
BRANCH  17  20
HETATM   20  C13 UNL     1      23.321   0.006  53.127  1.00  0.00    -0.025 A 
HETATM   21  C14 UNL     1      22.031   0.061  52.624  1.00  0.00     0.010 A 
HETATM   22  C15 UNL     1      21.028  -0.570  53.342  1.00  0.00     0.001 A 
HETATM   23  C16 UNL     1      21.280  -1.238  54.523  1.00  0.00     0.000 A 
HETATM   24  C17 UNL     1      22.597  -1.261  54.983  1.00  0.00     0.001 A 
HETATM   25  C18 UNL     1      23.629  -0.653  54.310  1.00  0.00     0.010 A 
ENDBRANCH  17  20
ENDBRANCH  12  17
BRANCH   1  26
HETATM   26  O1  UNL     1      24.126   7.174  47.227  1.00  0.00    -0.387 OA
HETATM   27  H1  UNL     1      25.090   7.385  47.046  1.00  0.00     0.210 HD
ENDBRANCH   1  26
TORSDOF 4
ENDMDL
MODEL 9
REMARK VINA RESULT:      -7.5      7.526      9.167
REMARK  4 active torsions:
REMARK  status: ('A' for Active; 'I' for Inactive)
REMARK    1  A    between atoms: O1_1  and  C1_2 
REMARK    2  A    between atoms: C11_13  and  C12_14 
REMARK    3  A    between atoms: C12_14  and  O2_15 
REMARK    4  A    between atoms: C12_14  and  C13_16 
ROOT
HETATM    1  C1  UNL     1      27.116   8.800  50.016  1.00  0.00     0.171 C 
HETATM    2  C2  UNL     1      26.593   7.423  49.719  1.00  0.00     0.006 C 
HETATM    3  C3  UNL     1      26.936   6.725  48.636  1.00  0.00    -0.018 C 
HETATM    4  C4  UNL     1      27.879   6.983  47.502  1.00  0.00     0.046 C 
HETATM    5  C5  UNL     1      27.427   8.175  46.718  1.00  0.00     0.041 C 
HETATM    6  C6  UNL     1      27.133   9.379  47.543  1.00  0.00    -0.018 C 
HETATM    7  C7  UNL     1      27.686   9.456  48.771  1.00  0.00    -0.034 C 
HETATM    8  C8  UNL     1      28.846  10.013  49.551  1.00  0.00     0.156 C 
HETATM    9  N1  UNL     1      29.859   8.943  49.619  1.00  0.00    -0.385 N 
HETATM   10  C9  UNL     1      30.122   7.792  48.787  1.00  0.00     0.035 A 
HETATM   11  C10 UNL     1      31.462   7.543  48.977  1.00  0.00     0.039 A 
HETATM   12  C11 UNL     1      32.040   6.485  48.308  1.00  0.00    -0.023 A 
HETATM   13  C19 UNL     1      31.299   5.685  47.463  1.00  0.00     0.011 A 
HETATM   14  C20 UNL     1      29.963   6.011  47.335  1.00  0.00     0.011 A 
HETATM   15  C21 UNL     1      29.288   7.054  47.964  1.00  0.00    -0.024 A 
HETATM   16  H11 UNL     1      30.505   9.027  50.408  1.00  0.00     0.160 HD
ENDROOT
BRANCH  12  17
HETATM   17  C12 UNL     1      33.485   6.193  48.494  1.00  0.00     0.184 C 
BRANCH  17  18
HETATM   18  O2  UNL     1      33.604   5.482  49.707  1.00  0.00    -0.386 OA
HETATM   19  H14 UNL     1      33.500   4.519  49.589  1.00  0.00     0.210 HD
ENDBRANCH  17  18
BRANCH  17  20
HETATM   20  C13 UNL     1      34.018   5.315  47.416  1.00  0.00    -0.025 A 
HETATM   21  C14 UNL     1      33.997   5.694  46.083  1.00  0.00     0.010 A 
HETATM   22  C15 UNL     1      34.516   4.811  45.150  1.00  0.00     0.001 A 
HETATM   23  C16 UNL     1      35.043   3.587  45.510  1.00  0.00     0.000 A 
HETATM   24  C17 UNL     1      35.038   3.258  46.866  1.00  0.00     0.001 A 
HETATM   25  C18 UNL     1      34.537   4.096  47.833  1.00  0.00     0.010 A 
ENDBRANCH  17  20
ENDBRANCH  12  17
BRANCH   1  26
HETATM   26  O1  UNL     1      26.176   9.607  50.649  1.00  0.00    -0.387 OA
HETATM   27  H1  UNL     1      25.393   9.637  50.022  1.00  0.00     0.210 HD
ENDBRANCH   1  26
TORSDOF 4
ENDMDL
