MODEL 1
REMARK VINA RESULT:      -8.4      0.000      0.000
REMARK  7 active torsions:
REMARK  status: ('A' for Active; 'I' for Inactive)
REMARK    1  A    between atoms: N1_2  and  C12_17 
REMARK    2  A    between atoms: C2_3  and  C3_4 
REMARK    3  A    between atoms: C12_17  and  C13_18 
REMARK    4  A    between atoms: C13_18  and  N4_19 
REMARK    5  A    between atoms: C13_18  and  C14_20 
REMARK    6  A    between atoms: C14_20  and  C15_21 
REMARK    7  A    between atoms: C15_21  and  N5_22 
ROOT
HETATM    1  C3  UNL     1      25.863   4.519  49.819  1.00  0.00    -0.027 C 
HETATM    2  C4  UNL     1      26.872   3.916  49.262  1.00  0.00     0.074 C 
HETATM    3  N2  UNL     1      27.583   5.162  49.005  1.00  0.00    -0.228 NA
HETATM    4  C5  UNL     1      28.821   5.607  48.417  1.00  0.00     0.280 C 
HETATM    5  O1  UNL     1      29.769   5.016  47.892  1.00  0.00    -0.264 OA
HETATM    6  C6  UNL     1      28.716   6.984  48.582  1.00  0.00     0.006 C 
HETATM    7  C7  UNL     1      28.612   8.123  48.731  1.00  0.00    -0.006 C 
HETATM    8  N3  UNL     1      28.471   9.471  48.924  1.00  0.00    -0.229 NA
HETATM    9  C8  UNL     1      27.264   9.074  49.492  1.00  0.00     0.074 C 
HETATM   10  C9  UNL     1      26.263   8.345  49.931  1.00  0.00     0.054 C 
HETATM   11  C10 UNL     1      25.429   7.203  50.255  1.00  0.00     0.117 C 
HETATM   12  F1  UNL     1      24.285   7.730  50.863  1.00  0.00    -0.206 F 
HETATM   13  C11 UNL     1      25.381   5.888  50.171  1.00  0.00     0.052 C 
HETATM   14  H7  UNL     1      28.093   4.332  48.681  1.00  0.00     0.136 HD
HETATM   15  H8  UNL     1      29.341   9.237  48.458  1.00  0.00     0.142 HD
ENDROOT
BRANCH   1  16
HETATM   16  C2  UNL     1      24.897   3.484  50.226  1.00  0.00     0.156 C 
HETATM   17  N1  UNL     1      24.705   3.111  51.516  1.00  0.00    -0.411 N 
HETATM   18  C1  UNL     1      24.101   3.905  52.501  1.00  0.00     0.143 C 
BRANCH  17  19
HETATM   19  C12 UNL     1      25.489   2.051  52.026  1.00  0.00     0.152 C 
BRANCH  19  20
HETATM   20  C13 UNL     1      25.676   1.968  53.496  1.00  0.00     0.236 C 
BRANCH  20  21
HETATM   21  N4  UNL     1      26.956   2.599  53.900  1.00  0.00     0.084 N 
HETATM   22  H15 UNL     1      27.516   2.659  53.011  1.00  0.00     0.313 HD
HETATM   23  H16 UNL     1      27.433   1.930  54.549  1.00  0.00     0.313 HD
ENDBRANCH  20  21
BRANCH  20  24
HETATM   24  C14 UNL     1      25.815   0.537  53.947  1.00  0.00     0.059 C 
BRANCH  24  25
HETATM   25  C15 UNL     1      26.073  -0.379  52.801  1.00  0.00     0.154 C 
BRANCH  25  26
HETATM   26  N5  UNL     1      27.312  -1.156  53.026  1.00  0.00    -0.261 N 
HETATM   27  C16 UNL     1      28.497  -0.559  53.304  1.00  0.00     0.135 A 
HETATM   28  C17 UNL     1      29.410  -1.569  53.448  1.00  0.00     0.161 A 
HETATM   29  N6  UNL     1      28.763  -2.744  53.256  1.00  0.00    -0.143 NA
HETATM   30  N7  UNL     1      27.496  -2.459  53.003  1.00  0.00    -0.067 NA
ENDBRANCH  25  26
ENDBRANCH  24  25
ENDBRANCH  20  24
ENDBRANCH  19  20
ENDBRANCH  17  19
ENDBRANCH   1  16
TORSDOF 7
ENDMDL
MODEL 2
REMARK VINA RESULT:      -8.4      1.795      2.177
REMARK  7 active torsions:
REMARK  status: ('A' for Active; 'I' for Inactive)
REMARK    1  A    between atoms: N1_2  and  C12_17 
REMARK    2  A    between atoms: C2_3  and  C3_4 
REMARK    3  A    between atoms: C12_17  and  C13_18 
REMARK    4  A    between atoms: C13_18  and  N4_19 
REMARK    5  A    between atoms: C13_18  and  C14_20 
REMARK    6  A    between atoms: C14_20  and  C15_21 
REMARK    7  A    between atoms: C15_21  and  N5_22 
ROOT
HETATM    1  C3  UNL     1      26.002   5.205  49.479  1.00  0.00    -0.027 C 
HETATM    2  C4  UNL     1      26.911   4.417  48.982  1.00  0.00     0.074 C 
HETATM    3  N2  UNL     1      27.887   5.491  48.846  1.00  0.00    -0.228 NA
HETATM    4  C5  UNL     1      29.240   5.680  48.387  1.00  0.00     0.280 C 
HETATM    5  O1  UNL     1      30.088   4.916  47.917  1.00  0.00    -0.264 OA
HETATM    6  C6  UNL     1      29.410   7.042  48.608  1.00  0.00     0.006 C 
HETATM    7  C7  UNL     1      29.533   8.173  48.801  1.00  0.00    -0.006 C 
HETATM    8  N3  UNL     1      29.660   9.514  49.046  1.00  0.00    -0.229 NA
HETATM    9  C8  UNL     1      28.349   9.366  49.489  1.00  0.00     0.074 C 
HETATM   10  C9  UNL     1      27.181   8.854  49.806  1.00  0.00     0.054 C 
HETATM   11  C10 UNL     1      26.101   7.907  50.003  1.00  0.00     0.117 C 
HETATM   12  F1  UNL     1      25.040   8.647  50.536  1.00  0.00    -0.206 F 
HETATM   13  C11 UNL     1      25.787   6.635  49.853  1.00  0.00     0.052 C 
HETATM   14  H7  UNL     1      28.240   4.581  48.527  1.00  0.00     0.136 HD
HETATM   15  H8  UNL     1      30.502   9.113  48.645  1.00  0.00     0.142 HD
ENDROOT
BRANCH   1  16
HETATM   16  C2  UNL     1      24.808   4.388  49.752  1.00  0.00     0.156 C 
HETATM   17  N1  UNL     1      24.209   4.329  50.968  1.00  0.00    -0.411 N 
HETATM   18  C1  UNL     1      23.493   5.377  51.564  1.00  0.00     0.143 C 
BRANCH  17  19
HETATM   19  C12 UNL     1      24.640   3.332  51.874  1.00  0.00     0.152 C 
BRANCH  19  20
HETATM   20  C13 UNL     1      24.690   1.929  51.393  1.00  0.00     0.236 C 
BRANCH  20  21
HETATM   21  N4  UNL     1      23.604   1.124  52.004  1.00  0.00     0.084 N 
HETATM   22  H15 UNL     1      24.090   0.521  52.717  1.00  0.00     0.313 HD
HETATM   23  H16 UNL     1      23.224   0.506  51.250  1.00  0.00     0.313 HD
ENDBRANCH  20  21
BRANCH  20  24
HETATM   24  C14 UNL     1      25.953   1.244  51.845  1.00  0.00     0.059 C 
BRANCH  24  25
HETATM   25  C15 UNL     1      27.068   2.213  52.035  1.00  0.00     0.154 C 
BRANCH  25  26
HETATM   26  N5  UNL     1      27.901   1.826  53.195  1.00  0.00    -0.261 N 
HETATM   27  C16 UNL     1      28.003   0.540  53.612  1.00  0.00     0.135 A 
HETATM   28  C17 UNL     1      28.843   0.554  54.694  1.00  0.00     0.161 A 
HETATM   29  N6  UNL     1      29.226   1.837  54.905  1.00  0.00    -0.143 NA
HETATM   30  N7  UNL     1      28.638   2.581  53.982  1.00  0.00    -0.067 NA
ENDBRANCH  25  26
ENDBRANCH  24  25
ENDBRANCH  20  24
ENDBRANCH  19  20
ENDBRANCH  17  19
ENDBRANCH   1  16
TORSDOF 7
ENDMDL
MODEL 3
REMARK VINA RESULT:      -8.1      2.493      3.234
REMARK  7 active torsions:
REMARK  status: ('A' for Active; 'I' for Inactive)
REMARK    1  A    between atoms: N1_2  and  C12_17 
REMARK    2  A    between atoms: C2_3  and  C3_4 
REMARK    3  A    between atoms: C12_17  and  C13_18 
REMARK    4  A    between atoms: C13_18  and  N4_19 
REMARK    5  A    between atoms: C13_18  and  C14_20 
REMARK    6  A    between atoms: C14_20  and  C15_21 
REMARK    7  A    between atoms: C15_21  and  N5_22 
ROOT
HETATM    1  C3  UNL     1      26.546   5.685  49.209  1.00  0.00    -0.027 C 
HETATM    2  C4  UNL     1      25.860   6.651  49.749  1.00  0.00     0.074 C 
HETATM    3  N2  UNL     1      26.959   7.603  49.641  1.00  0.00    -0.228 NA
HETATM    4  C5  UNL     1      27.239   8.981  49.957  1.00  0.00     0.280 C 
HETATM    5  O1  UNL     1      26.572   9.884  50.471  1.00  0.00    -0.264 OA
HETATM    6  C6  UNL     1      28.553   9.095  49.516  1.00  0.00     0.006 C 
HETATM    7  C7  UNL     1      29.642   9.170  49.141  1.00  0.00    -0.006 C 
HETATM    8  N3  UNL     1      30.930   9.240  48.684  1.00  0.00    -0.229 NA
HETATM    9  C8  UNL     1      30.692   7.904  48.373  1.00  0.00     0.074 C 
HETATM   10  C9  UNL     1      30.118   6.731  48.232  1.00  0.00     0.054 C 
HETATM   11  C10 UNL     1      29.134   5.666  48.269  1.00  0.00     0.117 C 
HETATM   12  F1  UNL     1      29.764   4.547  47.714  1.00  0.00    -0.206 F 
HETATM   13  C11 UNL     1      27.896   5.401  48.638  1.00  0.00     0.052 C 
HETATM   14  H7  UNL     1      26.115   8.005  50.067  1.00  0.00     0.136 HD
HETATM   15  H8  UNL     1      30.611  10.120  49.074  1.00  0.00     0.142 HD
ENDROOT
BRANCH   1  16
HETATM   16  C2  UNL     1      25.676   4.497  49.161  1.00  0.00     0.156 C 
HETATM   17  N1  UNL     1      24.980   4.041  50.232  1.00  0.00    -0.411 N 
HETATM   18  C1  UNL     1      23.879   4.687  50.810  1.00  0.00     0.143 C 
BRANCH  17  19
HETATM   19  C12 UNL     1      25.603   3.090  51.074  1.00  0.00     0.152 C 
BRANCH  19  20
HETATM   20  C13 UNL     1      24.778   2.448  52.128  1.00  0.00     0.236 C 
BRANCH  20  21
HETATM   21  N4  UNL     1      25.033   3.072  53.449  1.00  0.00     0.084 N 
HETATM   22  H15 UNL     1      26.069   3.260  53.459  1.00  0.00     0.313 HD
HETATM   23  H16 UNL     1      24.821   2.346  54.173  1.00  0.00     0.313 HD
ENDBRANCH  20  21
BRANCH  20  24
HETATM   24  C14 UNL     1      25.170   1.006  52.321  1.00  0.00     0.059 C 
BRANCH  24  25
HETATM   25  C15 UNL     1      26.586   0.762  51.931  1.00  0.00     0.154 C 
BRANCH  25  26
HETATM   26  N5  UNL     1      27.461   0.761  53.123  1.00  0.00    -0.261 N 
HETATM   27  C16 UNL     1      28.034  -0.374  53.595  1.00  0.00     0.135 A 
HETATM   28  C17 UNL     1      28.765  -0.006  54.693  1.00  0.00     0.161 A 
HETATM   29  N6  UNL     1      28.620   1.332  54.859  1.00  0.00    -0.143 NA
HETATM   30  N7  UNL     1      27.825   1.764  53.893  1.00  0.00    -0.067 NA
ENDBRANCH  25  26
ENDBRANCH  24  25
ENDBRANCH  20  24
ENDBRANCH  19  20
ENDBRANCH  17  19
ENDBRANCH   1  16
TORSDOF 7
ENDMDL
MODEL 4
REMARK VINA RESULT:      -7.8      2.786      3.644
REMARK  7 active torsions:
REMARK  status: ('A' for Active; 'I' for Inactive)
REMARK    1  A    between atoms: N1_2  and  C12_17 
REMARK    2  A    between atoms: C2_3  and  C3_4 
REMARK    3  A    between atoms: C12_17  and  C13_18 
REMARK    4  A    between atoms: C13_18  and  N4_19 
REMARK    5  A    between atoms: C13_18  and  C14_20 
REMARK    6  A    between atoms: C14_20  and  C15_21 
REMARK    7  A    between atoms: C15_21  and  N5_22 
ROOT
HETATM    1  C3  UNL     1      23.652   4.067  49.754  1.00  0.00    -0.027 C 
HETATM    2  C4  UNL     1      22.935   5.110  49.450  1.00  0.00     0.074 C 
HETATM    3  N2  UNL     1      24.082   5.855  48.946  1.00  0.00    -0.228 NA
HETATM    4  C5  UNL     1      24.374   7.143  48.369  1.00  0.00     0.280 C 
HETATM    5  O1  UNL     1      23.677   8.122  48.087  1.00  0.00    -0.264 OA
HETATM    6  C6  UNL     1      25.747   7.042  48.171  1.00  0.00     0.006 C 
HETATM    7  C7  UNL     1      26.886   6.939  48.013  1.00  0.00    -0.006 C 
HETATM    8  N3  UNL     1      28.234   6.792  47.827  1.00  0.00    -0.229 NA
HETATM    9  C8  UNL     1      27.985   5.544  48.390  1.00  0.00     0.074 C 
HETATM   10  C9  UNL     1      27.385   4.505  48.925  1.00  0.00     0.054 C 
HETATM   11  C10 UNL     1      26.356   3.635  49.464  1.00  0.00     0.117 C 
HETATM   12  F1  UNL     1      27.014   2.460  49.842  1.00  0.00    -0.206 F 
HETATM   13  C11 UNL     1      25.063   3.577  49.712  1.00  0.00     0.052 C 
HETATM   14  H7  UNL     1      23.201   6.379  48.884  1.00  0.00     0.136 HD
HETATM   15  H8  UNL     1      27.899   7.700  47.521  1.00  0.00     0.142 HD
ENDROOT
BRANCH   1  16
HETATM   16  C2  UNL     1      22.745   3.055  50.322  1.00  0.00     0.156 C 
HETATM   17  N1  UNL     1      22.331   3.070  51.614  1.00  0.00    -0.411 N 
HETATM   18  C1  UNL     1      21.448   4.010  52.164  1.00  0.00     0.143 C 
BRANCH  17  19
HETATM   19  C12 UNL     1      23.105   2.371  52.569  1.00  0.00     0.152 C 
BRANCH  19  20
HETATM   20  C13 UNL     1      23.595   1.016  52.211  1.00  0.00     0.236 C 
BRANCH  20  21
HETATM   21  N4  UNL     1      22.702  -0.030  52.765  1.00  0.00     0.084 N 
HETATM   22  H15 UNL     1      21.864  -0.029  52.128  1.00  0.00     0.313 HD
HETATM   23  H16 UNL     1      22.400   0.300  53.712  1.00  0.00     0.313 HD
ENDBRANCH  20  21
BRANCH  20  24
HETATM   24  C14 UNL     1      24.930   0.735  52.850  1.00  0.00     0.059 C 
BRANCH  24  25
HETATM   25  C15 UNL     1      25.768   1.963  52.941  1.00  0.00     0.154 C 
BRANCH  25  26
HETATM   26  N5  UNL     1      27.023   1.683  53.671  1.00  0.00    -0.261 N 
HETATM   27  C16 UNL     1      27.426   0.419  53.954  1.00  0.00     0.135 A 
HETATM   28  C17 UNL     1      28.612   0.538  54.628  1.00  0.00     0.161 A 
HETATM   29  N6  UNL     1      28.898   1.858  54.737  1.00  0.00    -0.143 NA
HETATM   30  N7  UNL     1      27.917   2.523  54.149  1.00  0.00    -0.067 NA
ENDBRANCH  25  26
ENDBRANCH  24  25
ENDBRANCH  20  24
ENDBRANCH  19  20
ENDBRANCH  17  19
ENDBRANCH   1  16
TORSDOF 7
ENDMDL
MODEL 5
REMARK VINA RESULT:      -7.8      3.154      5.429
REMARK  7 active torsions:
REMARK  status: ('A' for Active; 'I' for Inactive)
REMARK    1  A    between atoms: N1_2  and  C12_17 
REMARK    2  A    between atoms: C2_3  and  C3_4 
REMARK    3  A    between atoms: C12_17  and  C13_18 
REMARK    4  A    between atoms: C13_18  and  N4_19 
REMARK    5  A    between atoms: C13_18  and  C14_20 
REMARK    6  A    between atoms: C14_20  and  C15_21 
REMARK    7  A    between atoms: C15_21  and  N5_22 
ROOT
HETATM    1  C3  UNL     1      25.951   2.179  52.582  1.00  0.00    -0.027 C 
HETATM    2  C4  UNL     1      27.028   2.424  51.893  1.00  0.00     0.074 C 
HETATM    3  N2  UNL     1      26.314   3.219  50.902  1.00  0.00    -0.228 NA
HETATM    4  C5  UNL     1      26.591   3.960  49.698  1.00  0.00     0.280 C 
HETATM    5  O1  UNL     1      27.623   4.181  49.059  1.00  0.00    -0.264 OA
HETATM    6  C6  UNL     1      25.321   4.425  49.372  1.00  0.00     0.006 C 
HETATM    7  C7  UNL     1      24.261   4.804  49.120  1.00  0.00    -0.006 C 
HETATM    8  N3  UNL     1      22.996   5.248  48.844  1.00  0.00    -0.229 NA
HETATM    9  C8  UNL     1      22.695   4.534  50.000  1.00  0.00     0.074 C 
HETATM   10  C9  UNL     1      22.797   3.793  51.080  1.00  0.00     0.054 C 
HETATM   11  C10 UNL     1      23.353   2.977  52.143  1.00  0.00     0.117 C 
HETATM   12  F1  UNL     1      22.272   2.634  52.962  1.00  0.00    -0.206 F 
HETATM   13  C11 UNL     1      24.486   2.463  52.582  1.00  0.00     0.052 C 
HETATM   14  H7  UNL     1      27.321   3.147  50.713  1.00  0.00     0.136 HD
HETATM   15  H8  UNL     1      23.673   5.561  48.157  1.00  0.00     0.142 HD
ENDROOT
BRANCH   1  16
HETATM   16  C2  UNL     1      26.341   1.345  53.733  1.00  0.00     0.156 C 
HETATM   17  N1  UNL     1      26.607   0.019  53.634  1.00  0.00    -0.411 N 
HETATM   18  C1  UNL     1      27.728  -0.531  52.997  1.00  0.00     0.143 C 
BRANCH  17  19
HETATM   19  C12 UNL     1      25.537  -0.889  53.813  1.00  0.00     0.152 C 
BRANCH  19  20
HETATM   20  C13 UNL     1      24.583  -0.631  54.921  1.00  0.00     0.236 C 
BRANCH  20  21
HETATM   21  N4  UNL     1      24.772  -1.612  56.017  1.00  0.00     0.084 N 
HETATM   22  H15 UNL     1      25.663  -1.313  56.491  1.00  0.00     0.313 HD
HETATM   23  H16 UNL     1      24.931  -2.543  55.567  1.00  0.00     0.313 HD
ENDBRANCH  20  21
BRANCH  20  24
HETATM   24  C14 UNL     1      23.161  -0.848  54.475  1.00  0.00     0.059 C 
BRANCH  24  25
HETATM   25  C15 UNL     1      23.043  -0.856  52.990  1.00  0.00     0.154 C 
BRANCH  25  26
HETATM   26  N5  UNL     1      21.697  -0.407  52.573  1.00  0.00    -0.261 N 
HETATM   27  C16 UNL     1      20.642  -0.404  53.424  1.00  0.00     0.135 A 
HETATM   28  C17 UNL     1      19.573   0.065  52.708  1.00  0.00     0.161 A 
HETATM   29  N6  UNL     1      20.002   0.334  51.450  1.00  0.00    -0.143 NA
HETATM   30  N7  UNL     1      21.291   0.037  51.402  1.00  0.00    -0.067 NA
ENDBRANCH  25  26
ENDBRANCH  24  25
ENDBRANCH  20  24
ENDBRANCH  19  20
ENDBRANCH  17  19
ENDBRANCH   1  16
TORSDOF 7
ENDMDL
MODEL 6
REMARK VINA RESULT:      -7.7      4.199      6.819
REMARK  7 active torsions:
REMARK  status: ('A' for Active; 'I' for Inactive)
REMARK    1  A    between atoms: N1_2  and  C12_17 
REMARK    2  A    between atoms: C2_3  and  C3_4 
REMARK    3  A    between atoms: C12_17  and  C13_18 
REMARK    4  A    between atoms: C13_18  and  N4_19 
REMARK    5  A    between atoms: C13_18  and  C14_20 
REMARK    6  A    between atoms: C14_20  and  C15_21 
REMARK    7  A    between atoms: C15_21  and  N5_22 
ROOT
HETATM    1  C3  UNL     1      22.922   2.433  52.208  1.00  0.00    -0.027 C 
HETATM    2  C4  UNL     1      22.937   1.540  53.154  1.00  0.00     0.074 C 
HETATM    3  N2  UNL     1      21.662   0.965  52.746  1.00  0.00    -0.228 NA
HETATM    4  C5  UNL     1      20.767  -0.093  53.145  1.00  0.00     0.280 C 
HETATM    5  O1  UNL     1      20.800  -0.933  54.048  1.00  0.00    -0.264 OA
HETATM    6  C6  UNL     1      19.755   0.042  52.201  1.00  0.00     0.006 C 
HETATM    7  C7  UNL     1      18.927   0.169  51.408  1.00  0.00    -0.006 C 
HETATM    8  N3  UNL     1      17.960   0.331  50.453  1.00  0.00    -0.229 NA
HETATM    9  C8  UNL     1      18.799   1.365  50.047  1.00  0.00     0.074 C 
HETATM   10  C9  UNL     1      19.801   2.210  49.967  1.00  0.00     0.054 C 
HETATM   11  C10 UNL     1      21.050   2.896  50.244  1.00  0.00     0.117 C 
HETATM   12  F1  UNL     1      21.147   3.906  49.281  1.00  0.00    -0.206 F 
HETATM   13  C11 UNL     1      22.082   2.896  51.063  1.00  0.00     0.052 C 
HETATM   14  H7  UNL     1      22.073   0.496  53.562  1.00  0.00     0.136 HD
HETATM   15  H8  UNL     1      17.748  -0.428  51.091  1.00  0.00     0.142 HD
ENDROOT
BRANCH   1  16
HETATM   16  C2  UNL     1      24.151   3.236  52.337  1.00  0.00     0.156 C 
HETATM   17  N1  UNL     1      25.279   2.988  51.625  1.00  0.00    -0.411 N 
HETATM   18  C1  UNL     1      25.421   3.194  50.245  1.00  0.00     0.143 C 
BRANCH  17  19
HETATM   19  C12 UNL     1      26.238   2.111  52.182  1.00  0.00     0.152 C 
BRANCH  19  20
HETATM   20  C13 UNL     1      26.438   2.142  53.653  1.00  0.00     0.236 C 
BRANCH  20  21
HETATM   21  N4  UNL     1      27.800   2.626  53.988  1.00  0.00     0.084 N 
HETATM   22  H15 UNL     1      27.641   3.528  54.508  1.00  0.00     0.313 HD
HETATM   23  H16 UNL     1      28.276   2.844  53.082  1.00  0.00     0.313 HD
ENDBRANCH  20  21
BRANCH  20  24
HETATM   24  C14 UNL     1      26.388   0.754  54.237  1.00  0.00     0.059 C 
BRANCH  24  25
HETATM   25  C15 UNL     1      26.190  -0.281  53.185  1.00  0.00     0.154 C 
BRANCH  25  26
HETATM   26  N5  UNL     1      27.338  -1.213  53.150  1.00  0.00    -0.261 N 
HETATM   27  C16 UNL     1      28.609  -0.800  53.384  1.00  0.00     0.135 A 
HETATM   28  C17 UNL     1      29.400  -1.912  53.270  1.00  0.00     0.161 A 
HETATM   29  N6  UNL     1      28.597  -2.964  52.973  1.00  0.00    -0.143 NA
HETATM   30  N7  UNL     1      27.357  -2.506  52.907  1.00  0.00    -0.067 NA
ENDBRANCH  25  26
ENDBRANCH  24  25
ENDBRANCH  20  24
ENDBRANCH  19  20
ENDBRANCH  17  19
ENDBRANCH   1  16
TORSDOF 7
ENDMDL
MODEL 7
REMARK VINA RESULT:      -7.7      2.183      2.893
REMARK  7 active torsions:
REMARK  status: ('A' for Active; 'I' for Inactive)
REMARK    1  A    between atoms: N1_2  and  C12_17 
REMARK    2  A    between atoms: C2_3  and  C3_4 
REMARK    3  A    between atoms: C12_17  and  C13_18 
REMARK    4  A    between atoms: C13_18  and  N4_19 
REMARK    5  A    between atoms: C13_18  and  C14_20 
REMARK    6  A    between atoms: C14_20  and  C15_21 
REMARK    7  A    between atoms: C15_21  and  N5_22 
ROOT
HETATM    1  C3  UNL     1      26.000   5.208  49.401  1.00  0.00    -0.027 C 
HETATM    2  C4  UNL     1      26.928   4.440  48.907  1.00  0.00     0.074 C 
HETATM    3  N2  UNL     1      27.897   5.526  48.823  1.00  0.00    -0.228 NA
HETATM    4  C5  UNL     1      29.259   5.737  48.404  1.00  0.00     0.280 C 
HETATM    5  O1  UNL     1      30.126   4.993  47.936  1.00  0.00    -0.264 OA
HETATM    6  C6  UNL     1      29.412   7.095  48.664  1.00  0.00     0.006 C 
HETATM    7  C7  UNL     1      29.519   8.221  48.889  1.00  0.00    -0.006 C 
HETATM    8  N3  UNL     1      29.628   9.556  49.171  1.00  0.00    -0.229 NA
HETATM    9  C8  UNL     1      28.308   9.386  49.577  1.00  0.00     0.074 C 
HETATM   10  C9  UNL     1      27.137   8.857  49.852  1.00  0.00     0.054 C 
HETATM   11  C10 UNL     1      26.061   7.895  49.997  1.00  0.00     0.117 C 
HETATM   12  F1  UNL     1      24.980   8.613  50.521  1.00  0.00    -0.206 F 
HETATM   13  C11 UNL     1      25.762   6.625  49.806  1.00  0.00     0.052 C 
HETATM   14  H7  UNL     1      28.266   4.627  48.490  1.00  0.00     0.136 HD
HETATM   15  H8  UNL     1      30.483   9.174  48.782  1.00  0.00     0.142 HD
ENDROOT
BRANCH   1  16
HETATM   16  C2  UNL     1      24.806   4.374  49.623  1.00  0.00     0.156 C 
HETATM   17  N1  UNL     1      24.439   3.910  50.844  1.00  0.00    -0.411 N 
HETATM   18  C1  UNL     1      23.943   4.702  51.889  1.00  0.00     0.143 C 
BRANCH  17  19
HETATM   19  C12 UNL     1      24.937   2.652  51.255  1.00  0.00     0.152 C 
BRANCH  19  20
HETATM   20  C13 UNL     1      25.601   2.565  52.580  1.00  0.00     0.236 C 
BRANCH  20  21
HETATM   21  N4  UNL     1      27.075   2.490  52.426  1.00  0.00     0.084 N 
HETATM   22  H15 UNL     1      27.455   2.776  53.365  1.00  0.00     0.313 HD
HETATM   23  H16 UNL     1      27.343   3.218  51.723  1.00  0.00     0.313 HD
ENDBRANCH  20  21
BRANCH  20  24
HETATM   24  C14 UNL     1      25.241   1.284  53.286  1.00  0.00     0.059 C 
BRANCH  24  25
HETATM   25  C15 UNL     1      24.083   0.606  52.641  1.00  0.00     0.154 C 
BRANCH  25  26
HETATM   26  N5  UNL     1      23.241  -0.064  53.656  1.00  0.00    -0.261 N 
HETATM   27  C16 UNL     1      21.914   0.191  53.775  1.00  0.00     0.135 A 
HETATM   28  C17 UNL     1      21.463  -0.594  54.802  1.00  0.00     0.161 A 
HETATM   29  N6  UNL     1      22.517  -1.301  55.278  1.00  0.00    -0.143 NA
HETATM   30  N7  UNL     1      23.577  -0.956  54.563  1.00  0.00    -0.067 NA
ENDBRANCH  25  26
ENDBRANCH  24  25
ENDBRANCH  20  24
ENDBRANCH  19  20
ENDBRANCH  17  19
ENDBRANCH   1  16
TORSDOF 7
ENDMDL
MODEL 8
REMARK VINA RESULT:      -7.7      1.692      2.298
REMARK  7 active torsions:
REMARK  status: ('A' for Active; 'I' for Inactive)
REMARK    1  A    between atoms: N1_2  and  C12_17 
REMARK    2  A    between atoms: C2_3  and  C3_4 
REMARK    3  A    between atoms: C12_17  and  C13_18 
REMARK    4  A    between atoms: C13_18  and  N4_19 
REMARK    5  A    between atoms: C13_18  and  C14_20 
REMARK    6  A    between atoms: C14_20  and  C15_21 
REMARK    7  A    between atoms: C15_21  and  N5_22 
ROOT
HETATM    1  C3  UNL     1      26.676   5.815  48.991  1.00  0.00    -0.027 C 
HETATM    2  C4  UNL     1      27.544   4.910  48.643  1.00  0.00     0.074 C 
HETATM    3  N2  UNL     1      28.660   5.847  48.677  1.00  0.00    -0.228 NA
HETATM    4  C5  UNL     1      30.082   5.853  48.448  1.00  0.00     0.280 C 
HETATM    5  O1  UNL     1      30.890   4.980  48.117  1.00  0.00    -0.264 OA
HETATM    6  C6  UNL     1      30.389   7.185  48.704  1.00  0.00     0.006 C 
HETATM    7  C7  UNL     1      30.624   8.293  48.924  1.00  0.00    -0.006 C 
HETATM    8  N3  UNL     1      30.881   9.610  49.196  1.00  0.00    -0.229 NA
HETATM    9  C8  UNL     1      29.508   9.638  49.417  1.00  0.00     0.074 C 
HETATM   10  C9  UNL     1      28.247   9.286  49.534  1.00  0.00     0.054 C 
HETATM   11  C10 UNL     1      27.036   8.488  49.544  1.00  0.00     0.117 C 
HETATM   12  F1  UNL     1      26.007   9.367  49.902  1.00  0.00    -0.206 F 
HETATM   13  C11 UNL     1      26.589   7.266  49.335  1.00  0.00     0.052 C 
HETATM   14  H7  UNL     1      28.940   4.895  48.413  1.00  0.00     0.136 HD
HETATM   15  H8  UNL     1      31.718   9.099  48.935  1.00  0.00     0.142 HD
ENDROOT
BRANCH   1  16
HETATM   16  C2  UNL     1      25.357   5.163  49.058  1.00  0.00     0.156 C 
HETATM   17  N1  UNL     1      24.694   4.944  50.221  1.00  0.00    -0.411 N 
HETATM   18  C1  UNL     1      24.117   5.942  51.018  1.00  0.00     0.143 C 
BRANCH  17  19
HETATM   19  C12 UNL     1      24.919   3.721  50.895  1.00  0.00     0.152 C 
BRANCH  19  20
HETATM   20  C13 UNL     1      23.918   3.288  51.903  1.00  0.00     0.236 C 
BRANCH  20  21
HETATM   21  N4  UNL     1      24.396   3.577  53.277  1.00  0.00     0.084 N 
HETATM   22  H15 UNL     1      24.293   4.620  53.381  1.00  0.00     0.313 HD
HETATM   23  H16 UNL     1      25.416   3.341  53.300  1.00  0.00     0.313 HD
ENDBRANCH  20  21
BRANCH  20  24
HETATM   24  C14 UNL     1      23.740   1.792  51.884  1.00  0.00     0.059 C 
BRANCH  24  25
HETATM   25  C15 UNL     1      24.020   1.186  53.215  1.00  0.00     0.154 C 
BRANCH  25  26
HETATM   26  N5  UNL     1      25.155   0.243  53.129  1.00  0.00    -0.261 N 
HETATM   27  C16 UNL     1      26.115   0.354  52.177  1.00  0.00     0.135 A 
HETATM   28  C17 UNL     1      26.993  -0.673  52.396  1.00  0.00     0.161 A 
HETATM   29  N6  UNL     1      26.550  -1.377  53.466  1.00  0.00    -0.143 NA
HETATM   30  N7  UNL     1      25.436  -0.797  53.885  1.00  0.00    -0.067 NA
ENDBRANCH  25  26
ENDBRANCH  24  25
ENDBRANCH  20  24
ENDBRANCH  19  20
ENDBRANCH  17  19
ENDBRANCH   1  16
TORSDOF 7
ENDMDL
MODEL 9
REMARK VINA RESULT:      -7.6      5.110      8.102
REMARK  7 active torsions:
REMARK  status: ('A' for Active; 'I' for Inactive)
REMARK    1  A    between atoms: N1_2  and  C12_17 
REMARK    2  A    between atoms: C2_3  and  C3_4 
REMARK    3  A    between atoms: C12_17  and  C13_18 
REMARK    4  A    between atoms: C13_18  and  N4_19 
REMARK    5  A    between atoms: C13_18  and  C14_20 
REMARK    6  A    between atoms: C14_20  and  C15_21 
REMARK    7  A    between atoms: C15_21  and  N5_22 
ROOT
HETATM    1  C3  UNL     1      21.728   1.566  52.454  1.00  0.00    -0.027 C 
HETATM    2  C4  UNL     1      22.388   0.794  53.268  1.00  0.00     0.074 C 
HETATM    3  N2  UNL     1      21.260  -0.109  53.461  1.00  0.00    -0.228 NA
HETATM    4  C5  UNL     1      20.941  -1.310  54.190  1.00  0.00     0.280 C 
HETATM    5  O1  UNL     1      21.584  -2.029  54.959  1.00  0.00    -0.264 OA
HETATM    6  C6  UNL     1      19.620  -1.514  53.805  1.00  0.00     0.006 C 
HETATM    7  C7  UNL     1      18.526  -1.667  53.471  1.00  0.00    -0.006 C 
HETATM    8  N3  UNL     1      17.232  -1.834  53.057  1.00  0.00    -0.229 NA
HETATM    9  C8  UNL     1      17.507  -0.669  52.347  1.00  0.00     0.074 C 
HETATM   10  C9  UNL     1      18.116   0.383  51.848  1.00  0.00     0.054 C 
HETATM   11  C10 UNL     1      19.133   1.374  51.553  1.00  0.00     0.117 C 
HETATM   12  F1  UNL     1      18.532   2.284  50.676  1.00  0.00    -0.206 F 
HETATM   13  C11 UNL     1      20.382   1.701  51.821  1.00  0.00     0.052 C 
HETATM   14  H7  UNL     1      22.094  -0.385  53.992  1.00  0.00     0.136 HD
HETATM   15  H8  UNL     1      17.527  -2.559  53.702  1.00  0.00     0.142 HD
ENDROOT
BRANCH   1  16
HETATM   16  C2  UNL     1      22.633   2.651  52.039  1.00  0.00     0.156 C 
HETATM   17  N1  UNL     1      23.302   2.650  50.859  1.00  0.00    -0.411 N 
HETATM   18  C1  UNL     1      22.711   2.811  49.599  1.00  0.00     0.143 C 
BRANCH  17  19
HETATM   19  C12 UNL     1      24.590   2.067  50.826  1.00  0.00     0.152 C 
BRANCH  19  20
HETATM   20  C13 UNL     1      25.406   2.108  52.066  1.00  0.00     0.236 C 
BRANCH  20  21
HETATM   21  N4  UNL     1      26.690   2.811  51.828  1.00  0.00     0.084 N 
HETATM   22  H15 UNL     1      26.411   3.775  51.512  1.00  0.00     0.313 HD
HETATM   23  H16 UNL     1      27.160   2.322  51.029  1.00  0.00     0.313 HD
ENDBRANCH  20  21
BRANCH  20  24
HETATM   24  C14 UNL     1      25.819   0.723  52.491  1.00  0.00     0.059 C 
BRANCH  24  25
HETATM   25  C15 UNL     1      26.607   0.746  53.754  1.00  0.00     0.154 C 
BRANCH  25  26
HETATM   26  N5  UNL     1      27.748  -0.191  53.672  1.00  0.00    -0.261 N 
HETATM   27  C16 UNL     1      29.031   0.221  53.823  1.00  0.00     0.135 A 
HETATM   28  C17 UNL     1      29.811  -0.896  53.687  1.00  0.00     0.161 A 
HETATM   29  N6  UNL     1      28.990  -1.950  53.459  1.00  0.00    -0.143 NA
HETATM   30  N7  UNL     1      27.749  -1.489  53.455  1.00  0.00    -0.067 NA
ENDBRANCH  25  26
ENDBRANCH  24  25
ENDBRANCH  20  24
ENDBRANCH  19  20
ENDBRANCH  17  19
ENDBRANCH   1  16
TORSDOF 7
ENDMDL
