MODEL 1
REMARK VINA RESULT:     -10.6      0.000      0.000
REMARK  5 active torsions:
REMARK  status: ('A' for Active; 'I' for Inactive)
REMARK    1  A    between atoms: C2_2  and  O1_3 
REMARK    2  A    between atoms: O1_3  and  C3_4 
REMARK    3  A    between atoms: C7_8  and  O2_9 
REMARK    4  A    between atoms: O2_9  and  C8_10 
REMARK    5  A    between atoms: C8_10  and  C9_11 
ROOT
HETATM    1  C3  UNL     1      21.995   0.237  53.492  1.00  0.00     0.072 C 
HETATM    2  C4  UNL     1      23.027   0.392  52.682  1.00  0.00     0.016 C 
HETATM    3  C5  UNL     1      23.569   1.490  51.902  1.00  0.00     0.039 C 
HETATM    4  C6  UNL     1      24.952   1.800  52.274  1.00  0.00     0.019 C 
HETATM    5  C7  UNL     1      25.839   2.428  51.467  1.00  0.00     0.066 C 
HETATM    6  C14 UNL     1      25.724   3.109  50.144  1.00  0.00     0.037 C 
HETATM    7  C15 UNL     1      24.630   3.189  49.350  1.00  0.00     0.009 C 
HETATM    8  C16 UNL     1      23.149   3.091  49.506  1.00  0.00    -0.062 C 
HETATM    9  C17 UNL     1      22.420   3.278  50.632  1.00  0.00    -0.019 C 
HETATM   10  C18 UNL     1      22.653   2.691  51.987  1.00  0.00     0.040 C 
HETATM   11  C19 UNL     1      22.557   2.757  48.212  1.00  0.00     0.040 C 
HETATM   12  C20 UNL     1      21.985   1.365  48.184  1.00  0.00     0.034 C 
HETATM   13  C21 UNL     1      20.929   1.100  49.195  1.00  0.00     0.270 C 
HETATM   14  N2  UNL     1      19.772   1.969  49.121  1.00  0.00     0.086 NA
HETATM   15  C22 UNL     1      18.942   1.862  50.278  1.00  0.00     0.296 C 
HETATM   16  C23 UNL     1      18.227   0.628  50.518  1.00  0.00     0.004 C 
HETATM   17  C24 UNL     1      18.275  -0.233  51.518  1.00  0.00     0.050 C 
HETATM   18  C25 UNL     1      18.774  -0.722  52.795  1.00  0.00     0.372 A 
HETATM   19  O3  UNL     1      19.493   0.304  52.627  1.00  0.00    -0.145 OA
HETATM   20  N3  UNL     1      19.695  -0.489  53.844  1.00  0.00     0.096 N 
HETATM   21  C26 UNL     1      20.791   0.373  54.332  1.00  0.00     0.339 C 
HETATM   22  H26 UNL     1      19.203   1.702  48.285  1.00  0.00     0.316 HD
HETATM   23  H31 UNL     1      19.439  -1.297  54.499  1.00  0.00     0.323 HD
ENDROOT
BRANCH   5  24
HETATM   24  O2  UNL     1      27.152   2.495  51.880  1.00  0.00    -0.345 OA
BRANCH  24  25
HETATM   25  C8  UNL     1      27.484   2.077  53.183  1.00  0.00     0.234 C 
BRANCH  25  26
HETATM   26  C9  UNL     1      28.062   0.691  53.212  1.00  0.00     0.058 A 
HETATM   27  C10 UNL     1      27.472  -0.517  52.935  1.00  0.00     0.029 A 
HETATM   28  C11 UNL     1      28.156  -1.707  53.010  1.00  0.00     0.003 A 
HETATM   29  C12 UNL     1      29.503  -1.653  53.387  1.00  0.00     0.019 A 
HETATM   30  C13 UNL     1      30.052  -0.417  53.656  1.00  0.00     0.117 A 
HETATM   31  N1  UNL     1      29.374   0.745  53.579  1.00  0.00    -0.263 NA
ENDBRANCH  25  26
ENDBRANCH  24  25
ENDBRANCH   5  24
BRANCH   1  32
HETATM   32  O1  UNL     1      22.153  -1.141  53.848  1.00  0.00    -0.354 OA
BRANCH  32  33
HETATM   33  C2  UNL     1      22.584  -1.497  55.130  1.00  0.00     0.171 C 
HETATM   34  C1  UNL     1      24.042  -1.219  55.400  1.00  0.00     0.034 C 
ENDBRANCH  32  33
ENDBRANCH   1  32
TORSDOF 5
ENDMDL
MODEL 2
REMARK VINA RESULT:     -10.2      3.089      5.331
REMARK  5 active torsions:
REMARK  status: ('A' for Active; 'I' for Inactive)
REMARK    1  A    between atoms: C2_2  and  O1_3 
REMARK    2  A    between atoms: O1_3  and  C3_4 
REMARK    3  A    between atoms: C7_8  and  O2_9 
REMARK    4  A    between atoms: O2_9  and  C8_10 
REMARK    5  A    between atoms: C8_10  and  C9_11 
ROOT
HETATM    1  C3  UNL     1      26.127   0.343  53.724  1.00  0.00     0.072 C 
HETATM    2  C4  UNL     1      26.055   0.756  52.471  1.00  0.00     0.016 C 
HETATM    3  C5  UNL     1      25.439   1.881  51.791  1.00  0.00     0.039 C 
HETATM    4  C6  UNL     1      26.421   2.691  51.064  1.00  0.00     0.019 C 
HETATM    5  C7  UNL     1      26.125   3.495  50.016  1.00  0.00     0.066 C 
HETATM    6  C14 UNL     1      24.845   3.943  49.392  1.00  0.00     0.037 C 
HETATM    7  C15 UNL     1      23.589   3.550  49.712  1.00  0.00     0.009 C 
HETATM    8  C16 UNL     1      22.889   2.963  50.891  1.00  0.00    -0.062 C 
HETATM    9  C17 UNL     1      23.271   3.008  52.190  1.00  0.00    -0.019 C 
HETATM   10  C18 UNL     1      24.614   2.692  52.765  1.00  0.00     0.040 C 
HETATM   11  C19 UNL     1      21.666   2.304  50.436  1.00  0.00     0.040 C 
HETATM   12  C20 UNL     1      21.740   0.806  50.564  1.00  0.00     0.034 C 
HETATM   13  C21 UNL     1      21.984   0.304  51.940  1.00  0.00     0.270 C 
HETATM   14  N2  UNL     1      21.000   0.703  52.927  1.00  0.00     0.086 NA
HETATM   15  C22 UNL     1      21.437   0.443  54.261  1.00  0.00     0.296 C 
HETATM   16  C23 UNL     1      21.585  -0.927  54.697  1.00  0.00     0.004 C 
HETATM   17  C24 UNL     1      22.634  -1.603  55.128  1.00  0.00     0.050 C 
HETATM   18  C25 UNL     1      24.041  -1.744  55.476  1.00  0.00     0.372 A 
HETATM   19  O3  UNL     1      24.014  -0.557  55.041  1.00  0.00    -0.145 OA
HETATM   20  N3  UNL     1      25.297  -1.091  55.510  1.00  0.00     0.096 N 
HETATM   21  C26 UNL     1      26.035   0.145  55.182  1.00  0.00     0.339 C 
HETATM   22  H26 UNL     1      20.119   0.165  52.761  1.00  0.00     0.316 HD
HETATM   23  H31 UNL     1      25.893  -1.861  55.956  1.00  0.00     0.323 HD
ENDROOT
BRANCH   5  24
HETATM   24  O2  UNL     1      27.172   4.059  49.319  1.00  0.00    -0.345 OA
BRANCH  24  25
HETATM   25  C8  UNL     1      27.017   5.346  48.769  1.00  0.00     0.234 C 
BRANCH  25  26
HETATM   26  C9  UNL     1      28.298   5.884  48.197  1.00  0.00     0.058 A 
HETATM   27  C10 UNL     1      28.528   7.026  47.470  1.00  0.00     0.029 A 
HETATM   28  C11 UNL     1      29.779   7.373  47.020  1.00  0.00     0.003 A 
HETATM   29  C12 UNL     1      30.838   6.511  47.329  1.00  0.00     0.019 A 
HETATM   30  C13 UNL     1      30.557   5.375  48.060  1.00  0.00     0.117 A 
HETATM   31  N1  UNL     1      29.328   5.043  48.499  1.00  0.00    -0.263 NA
ENDBRANCH  25  26
ENDBRANCH  24  25
ENDBRANCH   5  24
BRANCH   1  32
HETATM   32  O1  UNL     1      26.907  -0.846  53.557  1.00  0.00    -0.354 OA
BRANCH  32  33
HETATM   33  C2  UNL     1      28.140  -0.798  52.899  1.00  0.00     0.171 C 
HETATM   34  C1  UNL     1      29.339  -0.869  53.811  1.00  0.00     0.034 C 
ENDBRANCH  32  33
ENDBRANCH   1  32
TORSDOF 5
ENDMDL
MODEL 3
REMARK VINA RESULT:      -9.0      2.686      5.075
REMARK  5 active torsions:
REMARK  status: ('A' for Active; 'I' for Inactive)
REMARK    1  A    between atoms: C2_2  and  O1_3 
REMARK    2  A    between atoms: O1_3  and  C3_4 
REMARK    3  A    between atoms: C7_8  and  O2_9 
REMARK    4  A    between atoms: O2_9  and  C8_10 
REMARK    5  A    between atoms: C8_10  and  C9_11 
ROOT
HETATM    1  C3  UNL     1      23.117   4.673  49.899  1.00  0.00     0.072 C 
HETATM    2  C4  UNL     1      22.972   3.939  50.988  1.00  0.00     0.016 C 
HETATM    3  C5  UNL     1      22.802   2.523  51.261  1.00  0.00     0.039 C 
HETATM    4  C6  UNL     1      23.862   1.997  52.125  1.00  0.00     0.019 C 
HETATM    5  C7  UNL     1      23.743   0.887  52.893  1.00  0.00     0.066 C 
HETATM    6  C14 UNL     1      22.705  -0.178  53.007  1.00  0.00     0.037 C 
HETATM    7  C15 UNL     1      21.509  -0.237  52.374  1.00  0.00     0.009 C 
HETATM    8  C16 UNL     1      20.891   0.328  51.139  1.00  0.00    -0.062 C 
HETATM    9  C17 UNL     1      21.522   0.794  50.035  1.00  0.00    -0.019 C 
HETATM   10  C18 UNL     1      22.665   1.755  49.965  1.00  0.00     0.040 C 
HETATM   11  C19 UNL     1      19.437   0.304  51.283  1.00  0.00     0.040 C 
HETATM   12  C20 UNL     1      18.850   1.684  51.415  1.00  0.00     0.034 C 
HETATM   13  C21 UNL     1      19.131   2.598  50.278  1.00  0.00     0.270 C 
HETATM   14  N2  UNL     1      18.673   2.132  48.985  1.00  0.00     0.086 NA
HETATM   15  C22 UNL     1      19.221   2.897  47.911  1.00  0.00     0.296 C 
HETATM   16  C23 UNL     1      18.823   4.279  47.758  1.00  0.00     0.004 C 
HETATM   17  C24 UNL     1      19.517   5.401  47.786  1.00  0.00     0.050 C 
HETATM   18  C25 UNL     1      20.746   6.171  47.923  1.00  0.00     0.372 A 
HETATM   19  O3  UNL     1      21.166   4.999  48.140  1.00  0.00    -0.145 OA
HETATM   20  N3  UNL     1      22.135   6.098  48.185  1.00  0.00     0.096 N 
HETATM   21  C26 UNL     1      23.262   5.211  48.534  1.00  0.00     0.339 C 
HETATM   22  H26 UNL     1      17.631   2.215  48.946  1.00  0.00     0.316 HD
HETATM   23  H31 UNL     1      22.399   7.130  48.071  1.00  0.00     0.323 HD
ENDROOT
BRANCH   5  24
HETATM   24  O2  UNL     1      24.754   0.611  53.788  1.00  0.00    -0.345 OA
BRANCH  24  25
HETATM   25  C8  UNL     1      25.904   1.424  53.798  1.00  0.00     0.234 C 
BRANCH  25  26
HETATM   26  C9  UNL     1      27.173   0.627  53.703  1.00  0.00     0.058 A 
HETATM   27  C10 UNL     1      27.391  -0.626  53.185  1.00  0.00     0.029 A 
HETATM   28  C11 UNL     1      28.632  -1.214  53.177  1.00  0.00     0.003 A 
HETATM   29  C12 UNL     1      29.695  -0.485  53.724  1.00  0.00     0.019 A 
HETATM   30  C13 UNL     1      29.427   0.768  54.233  1.00  0.00     0.117 A 
HETATM   31  N1  UNL     1      28.206   1.338  54.236  1.00  0.00    -0.263 NA
ENDBRANCH  25  26
ENDBRANCH  24  25
ENDBRANCH   5  24
BRANCH   1  32
HETATM   32  O1  UNL     1      23.219   5.978  50.482  1.00  0.00    -0.354 OA
BRANCH  32  33
HETATM   33  C2  UNL     1      24.470   6.524  50.785  1.00  0.00     0.171 C 
HETATM   34  C1  UNL     1      24.594   8.000  50.499  1.00  0.00     0.034 C 
ENDBRANCH  32  33
ENDBRANCH   1  32
TORSDOF 5
ENDMDL
MODEL 4
REMARK VINA RESULT:      -8.9      2.963      5.903
REMARK  5 active torsions:
REMARK  status: ('A' for Active; 'I' for Inactive)
REMARK    1  A    between atoms: C2_2  and  O1_3 
REMARK    2  A    between atoms: O1_3  and  C3_4 
REMARK    3  A    between atoms: C7_8  and  O2_9 
REMARK    4  A    between atoms: O2_9  and  C8_10 
REMARK    5  A    between atoms: C8_10  and  C9_11 
ROOT
HETATM    1  C3  UNL     1      26.098   0.735  53.331  1.00  0.00     0.072 C 
HETATM    2  C4  UNL     1      25.821   1.085  52.087  1.00  0.00     0.016 C 
HETATM    3  C5  UNL     1      24.977   2.087  51.462  1.00  0.00     0.039 C 
HETATM    4  C6  UNL     1      25.742   2.994  50.602  1.00  0.00     0.019 C 
HETATM    5  C7  UNL     1      25.214   3.707  49.579  1.00  0.00     0.066 C 
HETATM    6  C14 UNL     1      23.819   3.952  49.109  1.00  0.00     0.037 C 
HETATM    7  C15 UNL     1      22.678   3.405  49.590  1.00  0.00     0.009 C 
HETATM    8  C16 UNL     1      22.212   2.775  50.860  1.00  0.00    -0.062 C 
HETATM    9  C17 UNL     1      22.736   2.923  52.100  1.00  0.00    -0.019 C 
HETATM   10  C18 UNL     1      24.168   2.816  52.512  1.00  0.00     0.040 C 
HETATM   11  C19 UNL     1      21.048   1.938  50.574  1.00  0.00     0.040 C 
HETATM   12  C20 UNL     1      21.345   0.470  50.727  1.00  0.00     0.034 C 
HETATM   13  C21 UNL     1      21.819   0.061  52.074  1.00  0.00     0.270 C 
HETATM   14  N2  UNL     1      20.914   0.362  53.164  1.00  0.00     0.086 NA
HETATM   15  C22 UNL     1      21.539   0.218  54.440  1.00  0.00     0.296 C 
HETATM   16  C23 UNL     1      21.928  -1.101  54.886  1.00  0.00     0.004 C 
HETATM   17  C24 UNL     1      23.105  -1.610  55.200  1.00  0.00     0.050 C 
HETATM   18  C25 UNL     1      24.549  -1.544  55.374  1.00  0.00     0.372 A 
HETATM   19  O3  UNL     1      24.304  -0.391  54.919  1.00  0.00    -0.145 OA
HETATM   20  N3  UNL     1      25.696  -0.726  55.238  1.00  0.00     0.096 N 
HETATM   21  C26 UNL     1      26.209   0.585  54.793  1.00  0.00     0.339 C 
HETATM   22  H26 UNL     1      20.103  -0.297  53.121  1.00  0.00     0.316 HD
HETATM   23  H31 UNL     1      26.443  -1.389  55.625  1.00  0.00     0.323 HD
ENDROOT
BRANCH   5  24
HETATM   24  O2  UNL     1      26.081   4.379  48.746  1.00  0.00    -0.345 OA
BRANCH  24  25
HETATM   25  C8  UNL     1      26.897   5.396  49.279  1.00  0.00     0.234 C 
BRANCH  25  26
HETATM   26  C9  UNL     1      26.251   6.750  49.203  1.00  0.00     0.058 A 
HETATM   27  C10 UNL     1      26.098   7.710  50.172  1.00  0.00     0.029 A 
HETATM   28  C11 UNL     1      25.475   8.911  49.929  1.00  0.00     0.003 A 
HETATM   29  C12 UNL     1      24.989   9.134  48.635  1.00  0.00     0.019 A 
HETATM   30  C13 UNL     1      25.166   8.140  47.696  1.00  0.00     0.117 A 
HETATM   31  N1  UNL     1      25.779   6.966  47.942  1.00  0.00    -0.263 NA
ENDBRANCH  25  26
ENDBRANCH  24  25
ENDBRANCH   5  24
BRANCH   1  32
HETATM   32  O1  UNL     1      27.012  -0.342  53.097  1.00  0.00    -0.354 OA
BRANCH  32  33
HETATM   33  C2  UNL     1      28.393  -0.130  53.171  1.00  0.00     0.171 C 
HETATM   34  C1  UNL     1      29.205  -1.379  53.409  1.00  0.00     0.034 C 
ENDBRANCH  32  33
ENDBRANCH   1  32
TORSDOF 5
ENDMDL
MODEL 5
REMARK VINA RESULT:      -8.7      2.539      4.069
REMARK  5 active torsions:
REMARK  status: ('A' for Active; 'I' for Inactive)
REMARK    1  A    between atoms: C2_2  and  O1_3 
REMARK    2  A    between atoms: O1_3  and  C3_4 
REMARK    3  A    between atoms: C7_8  and  O2_9 
REMARK    4  A    between atoms: O2_9  and  C8_10 
REMARK    5  A    between atoms: C8_10  and  C9_11 
ROOT
HETATM    1  C3  UNL     1      22.099   0.693  53.201  1.00  0.00     0.072 C 
HETATM    2  C4  UNL     1      22.746   1.165  52.150  1.00  0.00     0.016 C 
HETATM    3  C5  UNL     1      22.731   2.410  51.404  1.00  0.00     0.039 C 
HETATM    4  C6  UNL     1      24.045   3.058  51.387  1.00  0.00     0.019 C 
HETATM    5  C7  UNL     1      24.449   3.946  50.447  1.00  0.00     0.066 C 
HETATM    6  C14 UNL     1      23.754   4.644  49.326  1.00  0.00     0.037 C 
HETATM    7  C15 UNL     1      22.476   4.473  48.913  1.00  0.00     0.009 C 
HETATM    8  C16 UNL     1      21.193   3.974  49.488  1.00  0.00    -0.062 C 
HETATM    9  C17 UNL     1      20.845   3.894  50.794  1.00  0.00    -0.019 C 
HETATM   10  C18 UNL     1      21.636   3.316  51.923  1.00  0.00     0.040 C 
HETATM   11  C19 UNL     1      20.310   3.567  48.396  1.00  0.00     0.040 C 
HETATM   12  C20 UNL     1      20.106   2.076  48.348  1.00  0.00     0.034 C 
HETATM   13  C21 UNL     1      19.528   1.481  49.580  1.00  0.00     0.270 C 
HETATM   14  N2  UNL     1      18.239   2.011  49.975  1.00  0.00     0.086 NA
HETATM   15  C22 UNL     1      17.878   1.621  51.301  1.00  0.00     0.296 C 
HETATM   16  C23 UNL     1      17.593   0.229  51.570  1.00  0.00     0.004 C 
HETATM   17  C24 UNL     1      18.163  -0.644  52.380  1.00  0.00     0.050 C 
HETATM   18  C25 UNL     1      19.150  -1.052  53.370  1.00  0.00     0.372 A 
HETATM   19  O3  UNL     1      19.512   0.137  53.139  1.00  0.00    -0.145 OA
HETATM   20  N3  UNL     1      20.278  -0.640  54.118  1.00  0.00     0.096 N 
HETATM   21  C26 UNL     1      21.236   0.454  54.372  1.00  0.00     0.339 C 
HETATM   22  H26 UNL     1      17.510   1.649  49.318  1.00  0.00     0.316 HD
HETATM   23  H31 UNL     1      20.446  -1.523  54.701  1.00  0.00     0.323 HD
ENDROOT
BRANCH   5  24
HETATM   24  O2  UNL     1      25.770   4.338  50.455  1.00  0.00    -0.345 OA
BRANCH  24  25
HETATM   25  C8  UNL     1      26.605   3.964  49.385  1.00  0.00     0.234 C 
BRANCH  25  26
HETATM   26  C9  UNL     1      27.299   5.140  48.759  1.00  0.00     0.058 A 
HETATM   27  C10 UNL     1      26.800   6.365  48.390  1.00  0.00     0.029 A 
HETATM   28  C11 UNL     1      27.585   7.340  47.824  1.00  0.00     0.003 A 
HETATM   29  C12 UNL     1      28.940   7.045  47.628  1.00  0.00     0.019 A 
HETATM   30  C13 UNL     1      29.394   5.801  48.014  1.00  0.00     0.117 A 
HETATM   31  N1  UNL     1      28.617   4.850  48.569  1.00  0.00    -0.263 NA
ENDBRANCH  25  26
ENDBRANCH  24  25
ENDBRANCH   5  24
BRANCH   1  32
HETATM   32  O1  UNL     1      22.685  -0.610  53.300  1.00  0.00    -0.354 OA
BRANCH  32  33
HETATM   33  C2  UNL     1      24.075  -0.763  53.317  1.00  0.00     0.171 C 
HETATM   34  C1  UNL     1      24.679  -0.832  54.698  1.00  0.00     0.034 C 
ENDBRANCH  32  33
ENDBRANCH   1  32
TORSDOF 5
ENDMDL
MODEL 6
REMARK VINA RESULT:      -8.7      2.129      4.540
REMARK  5 active torsions:
REMARK  status: ('A' for Active; 'I' for Inactive)
REMARK    1  A    between atoms: C2_2  and  O1_3 
REMARK    2  A    between atoms: O1_3  and  C3_4 
REMARK    3  A    between atoms: C7_8  and  O2_9 
REMARK    4  A    between atoms: O2_9  and  C8_10 
REMARK    5  A    between atoms: C8_10  and  C9_11 
ROOT
HETATM    1  C3  UNL     1      21.425   4.118  50.218  1.00  0.00     0.072 C 
HETATM    2  C4  UNL     1      21.975   3.679  51.336  1.00  0.00     0.016 C 
HETATM    3  C5  UNL     1      22.542   2.419  51.780  1.00  0.00     0.039 C 
HETATM    4  C6  UNL     1      23.940   2.560  52.198  1.00  0.00     0.019 C 
HETATM    5  C7  UNL     1      24.574   1.716  53.046  1.00  0.00     0.066 C 
HETATM    6  C14 UNL     1      24.208   0.405  53.658  1.00  0.00     0.037 C 
HETATM    7  C15 UNL     1      23.029  -0.252  53.557  1.00  0.00     0.009 C 
HETATM    8  C16 UNL     1      21.867  -0.287  52.622  1.00  0.00    -0.062 C 
HETATM    9  C17 UNL     1      21.838   0.090  51.321  1.00  0.00    -0.019 C 
HETATM   10  C18 UNL     1      22.351   1.358  50.718  1.00  0.00     0.040 C 
HETATM   11  C19 UNL     1      20.703  -0.816  53.331  1.00  0.00     0.040 C 
HETATM   12  C20 UNL     1      19.646   0.230  53.559  1.00  0.00     0.034 C 
HETATM   13  C21 UNL     1      19.115   0.868  52.327  1.00  0.00     0.270 C 
HETATM   14  N2  UNL     1      18.523  -0.042  51.368  1.00  0.00     0.086 NA
HETATM   15  C22 UNL     1      18.302   0.578  50.100  1.00  0.00     0.296 C 
HETATM   16  C23 UNL     1      17.311   1.625  49.994  1.00  0.00     0.004 C 
HETATM   17  C24 UNL     1      17.408   2.894  49.644  1.00  0.00     0.050 C 
HETATM   18  C25 UNL     1      18.144   4.075  49.214  1.00  0.00     0.372 A 
HETATM   19  O3  UNL     1      19.082   3.239  49.353  1.00  0.00    -0.145 OA
HETATM   20  N3  UNL     1      19.424   4.595  48.911  1.00  0.00     0.096 N 
HETATM   21  C26 UNL     1      20.873   4.311  48.864  1.00  0.00     0.339 C 
HETATM   22  H26 UNL     1      17.600  -0.368  51.737  1.00  0.00     0.316 HD
HETATM   23  H31 UNL     1      19.155   5.587  48.609  1.00  0.00     0.323 HD
ENDROOT
BRANCH   5  24
HETATM   24  O2  UNL     1      25.830   2.071  53.489  1.00  0.00    -0.345 OA
BRANCH  24  25
HETATM   25  C8  UNL     1      26.927   1.948  52.615  1.00  0.00     0.234 C 
BRANCH  25  26
HETATM   26  C9  UNL     1      27.772   0.744  52.918  1.00  0.00     0.058 A 
HETATM   27  C10 UNL     1      27.480  -0.592  52.795  1.00  0.00     0.029 A 
HETATM   28  C11 UNL     1      28.382  -1.576  53.120  1.00  0.00     0.003 A 
HETATM   29  C12 UNL     1      29.636  -1.171  53.593  1.00  0.00     0.019 A 
HETATM   30  C13 UNL     1      29.882   0.182  53.701  1.00  0.00     0.117 A 
HETATM   31  N1  UNL     1      28.992   1.140  53.379  1.00  0.00    -0.263 NA
ENDBRANCH  25  26
ENDBRANCH  24  25
ENDBRANCH   5  24
BRANCH   1  32
HETATM   32  O1  UNL     1      21.121   5.466  50.592  1.00  0.00    -0.354 OA
BRANCH  32  33
HETATM   33  C2  UNL     1      22.137   6.331  51.010  1.00  0.00     0.171 C 
HETATM   34  C1  UNL     1      22.016   7.739  50.481  1.00  0.00     0.034 C 
ENDBRANCH  32  33
ENDBRANCH   1  32
TORSDOF 5
ENDMDL
MODEL 7
REMARK VINA RESULT:      -8.5      2.770      7.492
REMARK  5 active torsions:
REMARK  status: ('A' for Active; 'I' for Inactive)
REMARK    1  A    between atoms: C2_2  and  O1_3 
REMARK    2  A    between atoms: O1_3  and  C3_4 
REMARK    3  A    between atoms: C7_8  and  O2_9 
REMARK    4  A    between atoms: O2_9  and  C8_10 
REMARK    5  A    between atoms: C8_10  and  C9_11 
ROOT
HETATM    1  C3  UNL     1      21.199   3.959  49.733  1.00  0.00     0.072 C 
HETATM    2  C4  UNL     1      21.707   2.782  50.055  1.00  0.00     0.016 C 
HETATM    3  C5  UNL     1      22.517   2.273  51.147  1.00  0.00     0.039 C 
HETATM    4  C6  UNL     1      21.851   1.185  51.867  1.00  0.00     0.019 C 
HETATM    5  C7  UNL     1      22.495   0.246  52.601  1.00  0.00     0.066 C 
HETATM    6  C14 UNL     1      23.909   0.079  53.046  1.00  0.00     0.037 C 
HETATM    7  C15 UNL     1      24.973   0.851  52.721  1.00  0.00     0.009 C 
HETATM    8  C16 UNL     1      25.214   2.245  52.246  1.00  0.00    -0.062 C 
HETATM    9  C17 UNL     1      24.397   3.318  52.374  1.00  0.00    -0.019 C 
HETATM   10  C18 UNL     1      22.940   3.407  52.055  1.00  0.00     0.040 C 
HETATM   11  C19 UNL     1      26.523   2.305  51.597  1.00  0.00     0.040 C 
HETATM   12  C20 UNL     1      26.418   2.520  50.112  1.00  0.00     0.034 C 
HETATM   13  C21 UNL     1      25.705   3.758  49.704  1.00  0.00     0.270 C 
HETATM   14  N2  UNL     1      26.274   4.992  50.209  1.00  0.00     0.086 NA
HETATM   15  C22 UNL     1      25.395   6.103  50.034  1.00  0.00     0.296 C 
HETATM   16  C23 UNL     1      25.110   6.569  48.695  1.00  0.00     0.004 C 
HETATM   17  C24 UNL     1      23.981   6.656  48.017  1.00  0.00     0.050 C 
HETATM   18  C25 UNL     1      22.542   6.496  47.854  1.00  0.00     0.372 A 
HETATM   19  O3  UNL     1      22.715   6.004  49.005  1.00  0.00    -0.145 OA
HETATM   20  N3  UNL     1      21.352   6.033  48.464  1.00  0.00     0.096 N 
HETATM   21  C26 UNL     1      20.771   5.367  49.647  1.00  0.00     0.339 C 
HETATM   22  H26 UNL     1      27.161   5.191  49.690  1.00  0.00     0.316 HD
HETATM   23  H31 UNL     1      20.641   6.301  47.709  1.00  0.00     0.323 HD
ENDROOT
BRANCH   5  24
HETATM   24  O2  UNL     1      21.758  -0.818  53.075  1.00  0.00    -0.345 OA
BRANCH  24  25
HETATM   25  C8  UNL     1      20.701  -0.576  53.973  1.00  0.00     0.234 C 
BRANCH  25  26
HETATM   26  C9  UNL     1      19.358  -0.896  53.380  1.00  0.00     0.058 A 
HETATM   27  C10 UNL     1      18.624  -0.215  52.440  1.00  0.00     0.029 A 
HETATM   28  C11 UNL     1      17.399  -0.655  52.002  1.00  0.00     0.003 A 
HETATM   29  C12 UNL     1      16.905  -1.845  52.553  1.00  0.00     0.019 A 
HETATM   30  C13 UNL     1      17.679  -2.492  53.494  1.00  0.00     0.117 A 
HETATM   31  N1  UNL     1      18.880  -2.054  53.917  1.00  0.00    -0.263 NA
ENDBRANCH  25  26
ENDBRANCH  24  25
ENDBRANCH   5  24
BRANCH   1  32
HETATM   32  O1  UNL     1      20.535   3.625  48.509  1.00  0.00    -0.354 OA
BRANCH  32  33
HETATM   33  C2  UNL     1      19.692   2.512  48.441  1.00  0.00     0.171 C 
HETATM   34  C1  UNL     1      18.221   2.834  48.537  1.00  0.00     0.034 C 
ENDBRANCH  32  33
ENDBRANCH   1  32
TORSDOF 5
ENDMDL
MODEL 8
REMARK VINA RESULT:      -8.4      5.403      7.021
REMARK  5 active torsions:
REMARK  status: ('A' for Active; 'I' for Inactive)
REMARK    1  A    between atoms: C2_2  and  O1_3 
REMARK    2  A    between atoms: O1_3  and  C3_4 
REMARK    3  A    between atoms: C7_8  and  O2_9 
REMARK    4  A    between atoms: O2_9  and  C8_10 
REMARK    5  A    between atoms: C8_10  and  C9_11 
ROOT
HETATM    1  C3  UNL     1      24.247   4.497  50.339  1.00  0.00     0.072 C 
HETATM    2  C4  UNL     1      25.126   4.620  49.360  1.00  0.00     0.016 C 
HETATM    3  C5  UNL     1      26.106   5.620  48.976  1.00  0.00     0.039 C 
HETATM    4  C6  UNL     1      27.464   5.071  48.925  1.00  0.00     0.019 C 
HETATM    5  C7  UNL     1      28.476   5.599  48.198  1.00  0.00     0.066 C 
HETATM    6  C14 UNL     1      28.634   6.861  47.419  1.00  0.00     0.037 C 
HETATM    7  C15 UNL     1      27.693   7.804  47.176  1.00  0.00     0.009 C 
HETATM    8  C16 UNL     1      26.414   8.263  47.792  1.00  0.00    -0.062 C 
HETATM    9  C17 UNL     1      26.000   8.092  49.070  1.00  0.00    -0.019 C 
HETATM   10  C18 UNL     1      25.995   6.832  49.874  1.00  0.00     0.040 C 
HETATM   11  C19 UNL     1      25.627   8.967  46.781  1.00  0.00     0.040 C 
HETATM   12  C20 UNL     1      24.394   8.203  46.379  1.00  0.00     0.034 C 
HETATM   13  C21 UNL     1      23.453   7.899  47.487  1.00  0.00     0.270 C 
HETATM   14  N2  UNL     1      22.946   9.055  48.200  1.00  0.00     0.086 NA
HETATM   15  C22 UNL     1      22.293   8.694  49.417  1.00  0.00     0.296 C 
HETATM   16  C23 UNL     1      21.049   7.959  49.355  1.00  0.00     0.004 C 
HETATM   17  C24 UNL     1      20.709   6.769  49.813  1.00  0.00     0.050 C 
HETATM   18  C25 UNL     1      20.973   5.511  50.499  1.00  0.00     0.372 A 
HETATM   19  O3  UNL     1      22.115   6.053  50.533  1.00  0.00    -0.145 OA
HETATM   20  N3  UNL     1      21.960   4.731  51.146  1.00  0.00     0.096 N 
HETATM   21  C26 UNL     1      23.385   4.640  51.526  1.00  0.00     0.339 C 
HETATM   22  H26 UNL     1      22.254   9.550  47.591  1.00  0.00     0.316 HD
HETATM   23  H31 UNL     1      21.365   3.892  51.446  1.00  0.00     0.323 HD
ENDROOT
BRANCH   5  24
HETATM   24  O2  UNL     1      29.648   4.878  48.106  1.00  0.00    -0.345 OA
BRANCH  24  25
HETATM   25  C8  UNL     1      30.876   5.565  48.066  1.00  0.00     0.234 C 
BRANCH  25  26
HETATM   26  C9  UNL     1      32.026   4.667  47.712  1.00  0.00     0.058 A 
HETATM   27  C10 UNL     1      32.041   3.489  47.006  1.00  0.00     0.029 A 
HETATM   28  C11 UNL     1      33.198   2.786  46.769  1.00  0.00     0.003 A 
HETATM   29  C12 UNL     1      34.390   3.315  47.279  1.00  0.00     0.019 A 
HETATM   30  C13 UNL     1      34.324   4.500  47.982  1.00  0.00     0.117 A 
HETATM   31  N1  UNL     1      33.186   5.184  48.209  1.00  0.00    -0.263 NA
ENDBRANCH  25  26
ENDBRANCH  24  25
ENDBRANCH   5  24
BRANCH   1  32
HETATM   32  O1  UNL     1      23.667   3.231  50.004  1.00  0.00    -0.354 OA
BRANCH  32  33
HETATM   33  C2  UNL     1      23.369   2.917  48.674  1.00  0.00     0.171 C 
HETATM   34  C1  UNL     1      22.130   2.076  48.492  1.00  0.00     0.034 C 
ENDBRANCH  32  33
ENDBRANCH   1  32
TORSDOF 5
ENDMDL
MODEL 9
REMARK VINA RESULT:      -8.3      2.655      8.767
REMARK  5 active torsions:
REMARK  status: ('A' for Active; 'I' for Inactive)
REMARK    1  A    between atoms: C2_2  and  O1_3 
REMARK    2  A    between atoms: O1_3  and  C3_4 
REMARK    3  A    between atoms: C7_8  and  O2_9 
REMARK    4  A    between atoms: O2_9  and  C8_10 
REMARK    5  A    between atoms: C8_10  and  C9_11 
ROOT
HETATM    1  C3  UNL     1      22.563   2.720  49.634  1.00  0.00     0.072 C 
HETATM    2  C4  UNL     1      21.865   1.653  49.980  1.00  0.00     0.016 C 
HETATM    3  C5  UNL     1      21.215   1.197  51.195  1.00  0.00     0.039 C 
HETATM    4  C6  UNL     1      19.780   0.972  51.001  1.00  0.00     0.019 C 
HETATM    5  C7  UNL     1      19.022   0.154  51.770  1.00  0.00     0.066 C 
HETATM    6  C14 UNL     1      19.275  -0.591  53.038  1.00  0.00     0.037 C 
HETATM    7  C15 UNL     1      20.441  -0.689  53.719  1.00  0.00     0.009 C 
HETATM    8  C16 UNL     1      21.710   0.085  53.841  1.00  0.00    -0.062 C 
HETATM    9  C17 UNL     1      21.913   1.395  53.562  1.00  0.00    -0.019 C 
HETATM   10  C18 UNL     1      21.512   2.147  52.334  1.00  0.00     0.040 C 
HETATM   11  C19 UNL     1      22.761  -0.802  54.335  1.00  0.00     0.040 C 
HETATM   12  C20 UNL     1      23.808  -1.089  53.291  1.00  0.00     0.034 C 
HETATM   13  C21 UNL     1      24.505   0.107  52.755  1.00  0.00     0.270 C 
HETATM   14  N2  UNL     1      25.191   0.916  53.742  1.00  0.00     0.086 NA
HETATM   15  C22 UNL     1      25.586   2.185  53.221  1.00  0.00     0.296 C 
HETATM   16  C23 UNL     1      26.609   2.238  52.200  1.00  0.00     0.004 C 
HETATM   17  C24 UNL     1      26.588   2.687  50.959  1.00  0.00     0.050 C 
HETATM   18  C25 UNL     1      25.942   3.291  49.801  1.00  0.00     0.372 A 
HETATM   19  O3  UNL     1      24.974   3.214  50.610  1.00  0.00    -0.145 OA
HETATM   20  N3  UNL     1      24.724   3.791  49.285  1.00  0.00     0.096 N 
HETATM   21  C26 UNL     1      23.286   4.002  49.549  1.00  0.00     0.339 C 
HETATM   22  H26 UNL     1      26.052   0.409  54.054  1.00  0.00     0.316 HD
HETATM   23  H31 UNL     1      25.053   4.125  48.323  1.00  0.00     0.323 HD
ENDROOT
BRANCH   5  24
HETATM   24  O2  UNL     1      17.730  -0.098  51.364  1.00  0.00    -0.345 OA
BRANCH  24  25
HETATM   25  C8  UNL     1      17.072   0.838  50.543  1.00  0.00     0.234 C 
BRANCH  25  26
HETATM   26  C9  UNL     1      16.415   1.934  51.333  1.00  0.00     0.058 A 
HETATM   27  C10 UNL     1      16.741   3.264  51.437  1.00  0.00     0.029 A 
HETATM   28  C11 UNL     1      16.022   4.140  52.214  1.00  0.00     0.003 A 
HETATM   29  C12 UNL     1      14.923   3.628  52.915  1.00  0.00     0.019 A 
HETATM   30  C13 UNL     1      14.636   2.286  52.780  1.00  0.00     0.117 A 
HETATM   31  N1  UNL     1      15.345   1.434  52.015  1.00  0.00    -0.263 NA
ENDBRANCH  25  26
ENDBRANCH  24  25
ENDBRANCH   5  24
BRANCH   1  32
HETATM   32  O1  UNL     1      22.850   2.407  48.267  1.00  0.00    -0.354 OA
BRANCH  32  33
HETATM   33  C2  UNL     1      21.839   2.451  47.301  1.00  0.00     0.171 C 
HETATM   34  C1  UNL     1      22.058   3.474  46.214  1.00  0.00     0.034 C 
ENDBRANCH  32  33
ENDBRANCH   1  32
TORSDOF 5
ENDMDL
