MODEL 1
REMARK VINA RESULT:      -7.9      0.000      0.000
REMARK  8 active torsions:
REMARK  status: ('A' for Active; 'I' for Inactive)
REMARK    1  A    between atoms: C2_2  and  C3_3 
REMARK    2  A    between atoms: C3_3  and  C4_4 
REMARK    3  A    between atoms: C6_6  and  O1_7 
REMARK    4  A    between atoms: O1_7  and  C7_8 
REMARK    5  A    between atoms: C7_8  and  N1_9 
REMARK    6  A    between atoms: C11_14  and  N3_15 
REMARK    7  A    between atoms: N3_15  and  C12_16 
REMARK    8  A    between atoms: C12_16  and  C13_17 
ROOT
HETATM    1  C3  UNL     1      25.661   0.083  54.100  1.00  0.00     0.040 C 
HETATM    2  C6  UNL     1      26.408  -0.576  52.982  1.00  0.00     0.057 C 
HETATM    3  C8  UNL     1      26.938  -0.023  51.911  1.00  0.00     0.012 C 
HETATM    4  C9  UNL     1      26.787   1.449  51.772  1.00  0.00     0.087 C 
HETATM    5  C10 UNL     1      25.483   1.859  52.383  1.00  0.00     0.048 C 
HETATM    6  N2  UNL     1      25.177   2.904  51.692  1.00  0.00    -0.237 NA
HETATM    7  C11 UNL     1      24.090   3.854  51.666  1.00  0.00     0.123 C 
HETATM    8  C17 UNL     1      22.790   3.596  51.903  1.00  0.00     0.052 C 
HETATM    9  C18 UNL     1      22.001   2.392  52.248  1.00  0.00     0.028 C 
HETATM   10  C19 UNL     1      22.305   1.176  52.732  1.00  0.00     0.136 C 
HETATM   11  O2  UNL     1      23.548   0.636  53.083  1.00  0.00    -0.351 OA
HETATM   12  C20 UNL     1      24.797   1.141  53.520  1.00  0.00     0.190 C 
ENDROOT
BRANCH   7  13
HETATM   13  N3  UNL     1      24.371   5.194  51.369  1.00  0.00    -0.371 N 
HETATM   14  H18 UNL     1      24.727   5.466  52.310  1.00  0.00     0.161 HD
BRANCH  13  15
HETATM   15  C12 UNL     1      24.249   6.020  50.199  1.00  0.00     0.149 C 
BRANCH  15  16
HETATM   16  C13 UNL     1      25.532   6.437  49.608  1.00  0.00     0.007 C 
HETATM   17  C14 UNL     1      26.403   5.524  49.208  1.00  0.00     0.003 A 
HETATM   18  C15 UNL     1      26.729   4.126  49.061  1.00  0.00     0.057 A 
HETATM   19  C16 UNL     1      27.631   4.983  48.644  1.00  0.00     0.127 A 
HETATM   20  F1  UNL     1      28.841   5.216  48.086  1.00  0.00    -0.205 F 
ENDBRANCH  15  16
ENDBRANCH  13  15
ENDBRANCH   7  13
BRANCH   1  21
HETATM   21  C2  UNL     1      26.719   0.658  55.031  1.00  0.00     0.015 C 
HETATM   22  C1  UNL     1      28.087   0.105  54.830  1.00  0.00     0.006 C 
ENDBRANCH   1  21
BRANCH   1  23
HETATM   23  C4  UNL     1      24.896  -0.917  54.904  1.00  0.00     0.015 C 
HETATM   24  C5  UNL     1      25.055  -0.821  56.384  1.00  0.00     0.006 C 
ENDBRANCH   1  23
BRANCH   2  25
HETATM   25  O1  UNL     1      26.571  -1.952  53.074  1.00  0.00    -0.326 OA
BRANCH  25  26
HETATM   26  C7  UNL     1      27.520  -2.704  52.368  1.00  0.00     0.441 C 
BRANCH  26  27
HETATM   27  N1  UNL     1      28.547  -3.177  53.287  1.00  0.00     0.101 N 
HETATM   28  H13 UNL     1      29.275  -2.427  53.332  1.00  0.00     0.315 HD
HETATM   29  H14 UNL     1      28.094  -3.356  54.217  1.00  0.00     0.315 HD
ENDBRANCH  26  27
ENDBRANCH  25  26
ENDBRANCH   2  25
TORSDOF 8
ENDMDL
MODEL 2
REMARK VINA RESULT:      -7.9      3.184      6.681
REMARK  8 active torsions:
REMARK  status: ('A' for Active; 'I' for Inactive)
REMARK    1  A    between atoms: C2_2  and  C3_3 
REMARK    2  A    between atoms: C3_3  and  C4_4 
REMARK    3  A    between atoms: C6_6  and  O1_7 
REMARK    4  A    between atoms: O1_7  and  C7_8 
REMARK    5  A    between atoms: C7_8  and  N1_9 
REMARK    6  A    between atoms: C11_14  and  N3_15 
REMARK    7  A    between atoms: N3_15  and  C12_16 
REMARK    8  A    between atoms: C12_16  and  C13_17 
ROOT
HETATM    1  C3  UNL     1      22.275   2.377  50.654  1.00  0.00     0.040 C 
HETATM    2  C6  UNL     1      21.472   3.391  51.409  1.00  0.00     0.057 C 
HETATM    3  C8  UNL     1      21.888   4.270  52.297  1.00  0.00     0.012 C 
HETATM    4  C9  UNL     1      23.341   4.274  52.607  1.00  0.00     0.087 C 
HETATM    5  C10 UNL     1      23.862   2.876  52.488  1.00  0.00     0.048 C 
HETATM    6  N2  UNL     1      24.838   2.878  53.332  1.00  0.00    -0.237 NA
HETATM    7  C11 UNL     1      25.821   1.925  53.790  1.00  0.00     0.123 C 
HETATM    8  C17 UNL     1      25.638   0.601  53.962  1.00  0.00     0.052 C 
HETATM    9  C18 UNL     1      24.509  -0.338  53.784  1.00  0.00     0.028 C 
HETATM   10  C19 UNL     1      23.341  -0.289  53.121  1.00  0.00     0.136 C 
HETATM   11  O2  UNL     1      22.796   0.738  52.342  1.00  0.00    -0.351 OA
HETATM   12  C20 UNL     1      23.297   1.817  51.573  1.00  0.00     0.190 C 
ENDROOT
BRANCH   7  13
HETATM   13  N3  UNL     1      27.109   2.378  54.099  1.00  0.00    -0.371 N 
HETATM   14  H18 UNL     1      26.911   2.685  55.075  1.00  0.00     0.161 HD
BRANCH  13  15
HETATM   15  C12 UNL     1      28.359   2.445  53.390  1.00  0.00     0.149 C 
BRANCH  15  16
HETATM   16  C13 UNL     1      29.436   1.625  53.971  1.00  0.00     0.007 C 
HETATM   17  C14 UNL     1      29.444   0.315  53.784  1.00  0.00     0.003 A 
HETATM   18  C15 UNL     1      28.806  -0.841  53.201  1.00  0.00     0.057 A 
HETATM   19  C16 UNL     1      29.907  -1.062  53.882  1.00  0.00     0.127 A 
HETATM   20  F1  UNL     1      30.827  -1.935  54.351  1.00  0.00    -0.205 F 
ENDBRANCH  15  16
ENDBRANCH  13  15
ENDBRANCH   7  13
BRANCH   1  21
HETATM   21  C2  UNL     1      22.906   3.123  49.488  1.00  0.00     0.015 C 
HETATM   22  C1  UNL     1      24.390   3.010  49.410  1.00  0.00     0.006 C 
ENDBRANCH   1  21
BRANCH   1  23
HETATM   23  C4  UNL     1      21.397   1.329  50.053  1.00  0.00     0.015 C 
HETATM   24  C5  UNL     1      21.517   1.146  48.578  1.00  0.00     0.006 C 
ENDBRANCH   1  23
BRANCH   2  25
HETATM   25  O1  UNL     1      20.109   3.420  51.146  1.00  0.00    -0.326 OA
BRANCH  25  26
HETATM   26  C7  UNL     1      19.428   4.469  50.514  1.00  0.00     0.441 C 
BRANCH  26  27
HETATM   27  N1  UNL     1      19.462   4.271  49.071  1.00  0.00     0.101 N 
HETATM   28  H13 UNL     1      18.467   4.200  48.756  1.00  0.00     0.315 HD
HETATM   29  H14 UNL     1      19.965   5.087  48.642  1.00  0.00     0.315 HD
ENDBRANCH  26  27
ENDBRANCH  25  26
ENDBRANCH   2  25
TORSDOF 8
ENDMDL
MODEL 3
REMARK VINA RESULT:      -7.7      3.888      7.478
REMARK  8 active torsions:
REMARK  status: ('A' for Active; 'I' for Inactive)
REMARK    1  A    between atoms: C2_2  and  C3_3 
REMARK    2  A    between atoms: C3_3  and  C4_4 
REMARK    3  A    between atoms: C6_6  and  O1_7 
REMARK    4  A    between atoms: O1_7  and  C7_8 
REMARK    5  A    between atoms: C7_8  and  N1_9 
REMARK    6  A    between atoms: C11_14  and  N3_15 
REMARK    7  A    between atoms: N3_15  and  C12_16 
REMARK    8  A    between atoms: C12_16  and  C13_17 
ROOT
HETATM    1  C3  UNL     1      19.603   1.214  51.285  1.00  0.00     0.040 C 
HETATM    2  C6  UNL     1      19.464   2.608  51.814  1.00  0.00     0.057 C 
HETATM    3  C8  UNL     1      20.405   3.414  52.259  1.00  0.00     0.012 C 
HETATM    4  C9  UNL     1      21.796   2.892  52.245  1.00  0.00     0.087 C 
HETATM    5  C10 UNL     1      21.759   1.415  52.486  1.00  0.00     0.048 C 
HETATM    6  N2  UNL     1      22.894   1.206  53.061  1.00  0.00    -0.237 NA
HETATM    7  C11 UNL     1      23.597   0.063  53.594  1.00  0.00     0.123 C 
HETATM    8  C17 UNL     1      23.051  -0.995  54.225  1.00  0.00     0.052 C 
HETATM    9  C18 UNL     1      21.679  -1.404  54.600  1.00  0.00     0.028 C 
HETATM   10  C19 UNL     1      20.448  -1.031  54.214  1.00  0.00     0.136 C 
HETATM   11  O2  UNL     1      20.057  -0.073  53.271  1.00  0.00    -0.351 OA
HETATM   12  C20 UNL     1      20.616   0.505  52.105  1.00  0.00     0.190 C 
ENDROOT
BRANCH   7  13
HETATM   13  N3  UNL     1      24.990   0.005  53.465  1.00  0.00    -0.371 N 
HETATM   14  H18 UNL     1      25.199  -0.323  54.433  1.00  0.00     0.161 HD
BRANCH  13  15
HETATM   15  C12 UNL     1      25.923   0.281  52.407  1.00  0.00     0.149 C 
BRANCH  15  16
HETATM   16  C13 UNL     1      27.103  -0.601  52.385  1.00  0.00     0.007 C 
HETATM   17  C14 UNL     1      28.091  -0.404  53.243  1.00  0.00     0.003 A 
HETATM   18  C15 UNL     1      28.626   0.373  54.335  1.00  0.00     0.057 A 
HETATM   19  C16 UNL     1      29.367  -0.624  53.908  1.00  0.00     0.127 A 
HETATM   20  F1  UNL     1      30.504  -1.350  54.005  1.00  0.00    -0.205 F 
ENDBRANCH  15  16
ENDBRANCH  13  15
ENDBRANCH   7  13
BRANCH   1  21
HETATM   21  C2  UNL     1      20.042   1.356  49.835  1.00  0.00     0.015 C 
HETATM   22  C1  UNL     1      21.261   0.578  49.479  1.00  0.00     0.006 C 
ENDBRANCH   1  21
BRANCH   1  23
HETATM   23  C4  UNL     1      18.284   0.512  51.256  1.00  0.00     0.015 C 
HETATM   24  C5  UNL     1      17.636   0.402  49.917  1.00  0.00     0.006 C 
ENDBRANCH   1  23
BRANCH   2  25
HETATM   25  O1  UNL     1      18.179   3.133  51.844  1.00  0.00    -0.326 OA
BRANCH  25  26
HETATM   26  C7  UNL     1      17.713   4.182  51.039  1.00  0.00     0.441 C 
BRANCH  26  27
HETATM   27  N1  UNL     1      16.377   4.569  51.471  1.00  0.00     0.101 N 
HETATM   28  H13 UNL     1      15.707   4.137  50.793  1.00  0.00     0.315 HD
HETATM   29  H14 UNL     1      16.238   4.221  52.452  1.00  0.00     0.315 HD
ENDBRANCH  26  27
ENDBRANCH  25  26
ENDBRANCH   2  25
TORSDOF 8
ENDMDL
MODEL 4
REMARK VINA RESULT:      -7.6      3.663      6.860
REMARK  8 active torsions:
REMARK  status: ('A' for Active; 'I' for Inactive)
REMARK    1  A    between atoms: C2_2  and  C3_3 
REMARK    2  A    between atoms: C3_3  and  C4_4 
REMARK    3  A    between atoms: C6_6  and  O1_7 
REMARK    4  A    between atoms: O1_7  and  C7_8 
REMARK    5  A    between atoms: C7_8  and  N1_9 
REMARK    6  A    between atoms: C11_14  and  N3_15 
REMARK    7  A    between atoms: N3_15  and  C12_16 
REMARK    8  A    between atoms: C12_16  and  C13_17 
ROOT
HETATM    1  C3  UNL     1      24.631   3.455  50.630  1.00  0.00     0.040 C 
HETATM    2  C6  UNL     1      24.165   4.839  50.963  1.00  0.00     0.057 C 
HETATM    3  C8  UNL     1      23.280   5.211  51.864  1.00  0.00     0.012 C 
HETATM    4  C9  UNL     1      22.646   4.134  52.667  1.00  0.00     0.087 C 
HETATM    5  C10 UNL     1      22.528   2.906  51.817  1.00  0.00     0.048 C 
HETATM    6  N2  UNL     1      21.487   2.331  52.314  1.00  0.00    -0.237 NA
HETATM    7  C11 UNL     1      20.739   1.123  52.054  1.00  0.00     0.123 C 
HETATM    8  C17 UNL     1      20.507   0.566  50.850  1.00  0.00     0.052 C 
HETATM    9  C18 UNL     1      20.863   0.892  49.451  1.00  0.00     0.028 C 
HETATM   10  C19 UNL     1      21.777   1.691  48.876  1.00  0.00     0.136 C 
HETATM   11  O2  UNL     1      22.742   2.518  49.465  1.00  0.00    -0.351 OA
HETATM   12  C20 UNL     1      23.460   2.546  50.685  1.00  0.00     0.190 C 
ENDROOT
BRANCH   7  13
HETATM   13  N3  UNL     1      20.180   0.428  53.133  1.00  0.00    -0.371 N 
HETATM   14  H18 UNL     1      19.449   1.129  53.377  1.00  0.00     0.161 HD
BRANCH  13  15
HETATM   15  C12 UNL     1      20.445  -0.832  53.774  1.00  0.00     0.149 C 
BRANCH  15  16
HETATM   16  C13 UNL     1      21.550  -0.803  54.747  1.00  0.00     0.007 C 
HETATM   17  C14 UNL     1      22.803  -0.741  54.322  1.00  0.00     0.003 A 
HETATM   18  C15 UNL     1      23.714  -0.680  53.204  1.00  0.00     0.057 A 
HETATM   19  C16 UNL     1      24.255  -0.679  54.401  1.00  0.00     0.127 A 
HETATM   20  F1  UNL     1      25.365  -0.646  55.173  1.00  0.00    -0.205 F 
ENDBRANCH  15  16
ENDBRANCH  13  15
ENDBRANCH   7  13
BRANCH   1  21
HETATM   21  C2  UNL     1      25.678   3.101  51.675  1.00  0.00     0.015 C 
HETATM   22  C1  UNL     1      25.932   1.640  51.826  1.00  0.00     0.006 C 
ENDBRANCH   1  21
BRANCH   1  23
HETATM   23  C4  UNL     1      25.330   3.423  49.310  1.00  0.00     0.015 C 
HETATM   24  C5  UNL     1      26.773   3.801  49.329  1.00  0.00     0.006 C 
ENDBRANCH   1  23
BRANCH   2  25
HETATM   25  O1  UNL     1      24.735   5.876  50.236  1.00  0.00    -0.326 OA
BRANCH  25  26
HETATM   26  C7  UNL     1      24.848   7.204  50.670  1.00  0.00     0.441 C 
BRANCH  26  27
HETATM   27  N1  UNL     1      26.256   7.567  50.762  1.00  0.00     0.101 N 
HETATM   28  H13 UNL     1      26.424   7.862  51.752  1.00  0.00     0.315 HD
HETATM   29  H14 UNL     1      26.826   6.728  50.489  1.00  0.00     0.315 HD
ENDBRANCH  26  27
ENDBRANCH  25  26
ENDBRANCH   2  25
TORSDOF 8
ENDMDL
MODEL 5
REMARK VINA RESULT:      -7.5      3.230      6.705
REMARK  8 active torsions:
REMARK  status: ('A' for Active; 'I' for Inactive)
REMARK    1  A    between atoms: C2_2  and  C3_3 
REMARK    2  A    between atoms: C3_3  and  C4_4 
REMARK    3  A    between atoms: C6_6  and  O1_7 
REMARK    4  A    between atoms: O1_7  and  C7_8 
REMARK    5  A    between atoms: C7_8  and  N1_9 
REMARK    6  A    between atoms: C11_14  and  N3_15 
REMARK    7  A    between atoms: N3_15  and  C12_16 
REMARK    8  A    between atoms: C12_16  and  C13_17 
ROOT
HETATM    1  C3  UNL     1      19.722   1.228  51.334  1.00  0.00     0.040 C 
HETATM    2  C6  UNL     1      19.522   2.615  51.862  1.00  0.00     0.057 C 
HETATM    3  C8  UNL     1      20.433   3.494  52.225  1.00  0.00     0.012 C 
HETATM    4  C9  UNL     1      21.854   3.076  52.105  1.00  0.00     0.087 C 
HETATM    5  C10 UNL     1      21.945   1.603  52.359  1.00  0.00     0.048 C 
HETATM    6  N2  UNL     1      23.134   1.485  52.844  1.00  0.00    -0.237 NA
HETATM    7  C11 UNL     1      23.959   0.403  53.328  1.00  0.00     0.123 C 
HETATM    8  C17 UNL     1      23.544  -0.683  54.007  1.00  0.00     0.052 C 
HETATM    9  C18 UNL     1      22.240  -1.187  54.494  1.00  0.00     0.028 C 
HETATM   10  C19 UNL     1      20.958  -0.910  54.203  1.00  0.00     0.136 C 
HETATM   11  O2  UNL     1      20.424   0.005  53.287  1.00  0.00    -0.351 OA
HETATM   12  C20 UNL     1      20.846   0.607  52.077  1.00  0.00     0.190 C 
ENDROOT
BRANCH   7  13
HETATM   13  N3  UNL     1      25.338   0.446  53.090  1.00  0.00    -0.371 N 
HETATM   14  H18 UNL     1      25.424  -0.489  52.639  1.00  0.00     0.161 HD
BRANCH  13  15
HETATM   15  C12 UNL     1      26.382   1.404  53.340  1.00  0.00     0.149 C 
BRANCH  15  16
HETATM   16  C13 UNL     1      27.147   1.800  52.146  1.00  0.00     0.007 C 
HETATM   17  C14 UNL     1      26.589   2.576  51.230  1.00  0.00     0.003 A 
HETATM   18  C15 UNL     1      25.428   3.315  50.796  1.00  0.00     0.057 A 
HETATM   19  C16 UNL     1      26.475   3.355  50.005  1.00  0.00     0.127 A 
HETATM   20  F1  UNL     1      27.054   3.797  48.865  1.00  0.00    -0.205 F 
ENDBRANCH  15  16
ENDBRANCH  13  15
ENDBRANCH   7  13
BRANCH   1  21
HETATM   21  C2  UNL     1      20.034   1.383  49.853  1.00  0.00     0.015 C 
HETATM   22  C1  UNL     1      21.246   0.647  49.395  1.00  0.00     0.006 C 
ENDBRANCH   1  21
BRANCH   1  23
HETATM   23  C4  UNL     1      18.461   0.431  51.414  1.00  0.00     0.015 C 
HETATM   24  C5  UNL     1      17.701   0.287  50.139  1.00  0.00     0.006 C 
ENDBRANCH   1  23
BRANCH   2  25
HETATM   25  O1  UNL     1      18.208   3.045  51.989  1.00  0.00    -0.326 OA
BRANCH  25  26
HETATM   26  C7  UNL     1      17.604   4.045  51.215  1.00  0.00     0.441 C 
BRANCH  26  27
HETATM   27  N1  UNL     1      16.354   4.456  51.841  1.00  0.00     0.101 N 
HETATM   28  H13 UNL     1      16.599   4.803  52.798  1.00  0.00     0.315 HD
HETATM   29  H14 UNL     1      15.919   5.200  51.242  1.00  0.00     0.315 HD
ENDBRANCH  26  27
ENDBRANCH  25  26
ENDBRANCH   2  25
TORSDOF 8
ENDMDL
MODEL 6
REMARK VINA RESULT:      -7.5      2.949      6.654
REMARK  8 active torsions:
REMARK  status: ('A' for Active; 'I' for Inactive)
REMARK    1  A    between atoms: C2_2  and  C3_3 
REMARK    2  A    between atoms: C3_3  and  C4_4 
REMARK    3  A    between atoms: C6_6  and  O1_7 
REMARK    4  A    between atoms: O1_7  and  C7_8 
REMARK    5  A    between atoms: C7_8  and  N1_9 
REMARK    6  A    between atoms: C11_14  and  N3_15 
REMARK    7  A    between atoms: N3_15  and  C12_16 
REMARK    8  A    between atoms: C12_16  and  C13_17 
ROOT
HETATM    1  C3  UNL     1      22.193   2.574  50.308  1.00  0.00     0.040 C 
HETATM    2  C6  UNL     1      22.681   3.903  50.795  1.00  0.00     0.057 C 
HETATM    3  C8  UNL     1      23.817   4.189  51.398  1.00  0.00     0.012 C 
HETATM    4  C9  UNL     1      24.753   3.059  51.636  1.00  0.00     0.087 C 
HETATM    5  C10 UNL     1      23.954   1.815  51.875  1.00  0.00     0.048 C 
HETATM    6  N2  UNL     1      24.734   1.137  52.646  1.00  0.00    -0.237 NA
HETATM    7  C11 UNL     1      24.689  -0.149  53.302  1.00  0.00     0.123 C 
HETATM    8  C17 UNL     1      23.603  -0.744  53.831  1.00  0.00     0.052 C 
HETATM    9  C18 UNL     1      22.170  -0.399  53.957  1.00  0.00     0.028 C 
HETATM   10  C19 UNL     1      21.359   0.486  53.354  1.00  0.00     0.136 C 
HETATM   11  O2  UNL     1      21.642   1.421  52.351  1.00  0.00    -0.351 OA
HETATM   12  C20 UNL     1      22.584   1.543  51.301  1.00  0.00     0.190 C 
ENDROOT
BRANCH   7  13
HETATM   13  N3  UNL     1      25.873  -0.886  53.426  1.00  0.00    -0.371 N 
HETATM   14  H18 UNL     1      25.570  -1.491  54.218  1.00  0.00     0.161 HD
BRANCH  13  15
HETATM   15  C12 UNL     1      27.140  -0.893  52.745  1.00  0.00     0.149 C 
BRANCH  15  16
HETATM   16  C13 UNL     1      28.280  -0.457  53.569  1.00  0.00     0.007 C 
HETATM   17  C14 UNL     1      28.522   0.834  53.731  1.00  0.00     0.003 A 
HETATM   18  C15 UNL     1      28.143   2.196  53.440  1.00  0.00     0.057 A 
HETATM   19  C16 UNL     1      29.196   2.034  54.208  1.00  0.00     0.127 A 
HETATM   20  F1  UNL     1      30.199   2.578  54.933  1.00  0.00    -0.205 F 
ENDBRANCH  15  16
ENDBRANCH  13  15
ENDBRANCH   7  13
BRANCH   1  21
HETATM   21  C2  UNL     1      22.860   2.349  48.959  1.00  0.00     0.015 C 
HETATM   22  C1  UNL     1      22.404   3.271  47.882  1.00  0.00     0.006 C 
ENDBRANCH   1  21
BRANCH   1  23
HETATM   23  C4  UNL     1      20.722   2.601  50.047  1.00  0.00     0.015 C 
HETATM   24  C5  UNL     1      20.118   1.314  49.595  1.00  0.00     0.006 C 
ENDBRANCH   1  23
BRANCH   2  25
HETATM   25  O1  UNL     1      21.836   4.986  50.591  1.00  0.00    -0.326 OA
BRANCH  25  26
HETATM   26  C7  UNL     1      22.247   6.280  50.243  1.00  0.00     0.441 C 
BRANCH  26  27
HETATM   27  N1  UNL     1      21.733   7.232  51.220  1.00  0.00     0.101 N 
HETATM   28  H13 UNL     1      20.914   6.771  51.683  1.00  0.00     0.315 HD
HETATM   29  H14 UNL     1      22.505   7.454  51.895  1.00  0.00     0.315 HD
ENDBRANCH  26  27
ENDBRANCH  25  26
ENDBRANCH   2  25
TORSDOF 8
ENDMDL
MODEL 7
REMARK VINA RESULT:      -7.4      2.732      6.638
REMARK  8 active torsions:
REMARK  status: ('A' for Active; 'I' for Inactive)
REMARK    1  A    between atoms: C2_2  and  C3_3 
REMARK    2  A    between atoms: C3_3  and  C4_4 
REMARK    3  A    between atoms: C6_6  and  O1_7 
REMARK    4  A    between atoms: O1_7  and  C7_8 
REMARK    5  A    between atoms: C7_8  and  N1_9 
REMARK    6  A    between atoms: C11_14  and  N3_15 
REMARK    7  A    between atoms: N3_15  and  C12_16 
REMARK    8  A    between atoms: C12_16  and  C13_17 
ROOT
HETATM    1  C3  UNL     1      23.469   3.569  49.893  1.00  0.00     0.040 C 
HETATM    2  C6  UNL     1      23.222   4.767  50.756  1.00  0.00     0.057 C 
HETATM    3  C8  UNL     1      23.457   4.913  52.044  1.00  0.00     0.012 C 
HETATM    4  C9  UNL     1      24.044   3.748  52.754  1.00  0.00     0.087 C 
HETATM    5  C10 UNL     1      23.533   2.490  52.121  1.00  0.00     0.048 C 
HETATM    6  N2  UNL     1      23.554   1.662  53.110  1.00  0.00    -0.237 NA
HETATM    7  C11 UNL     1      23.219   0.272  53.311  1.00  0.00     0.123 C 
HETATM    8  C17 UNL     1      22.211  -0.405  52.728  1.00  0.00     0.052 C 
HETATM    9  C18 UNL     1      21.144  -0.075  51.757  1.00  0.00     0.028 C 
HETATM   10  C19 UNL     1      20.947   0.923  50.879  1.00  0.00     0.136 C 
HETATM   11  O2  UNL     1      21.747   2.036  50.594  1.00  0.00    -0.351 OA
HETATM   12  C20 UNL     1      23.124   2.355  50.674  1.00  0.00     0.190 C 
ENDROOT
BRANCH   7  13
HETATM   13  N3  UNL     1      23.995  -0.490  54.193  1.00  0.00    -0.371 N 
HETATM   14  H18 UNL     1      23.243  -0.698  54.884  1.00  0.00     0.161 HD
BRANCH  13  15
HETATM   15  C12 UNL     1      25.371  -0.907  54.234  1.00  0.00     0.149 C 
BRANCH  15  16
HETATM   16  C13 UNL     1      26.308   0.121  54.717  1.00  0.00     0.007 C 
HETATM   17  C14 UNL     1      26.918   0.918  53.853  1.00  0.00     0.003 A 
HETATM   18  C15 UNL     1      27.122   1.302  52.477  1.00  0.00     0.057 A 
HETATM   19  C16 UNL     1      27.794   1.979  53.379  1.00  0.00     0.127 A 
HETATM   20  F1  UNL     1      28.674   2.963  53.676  1.00  0.00    -0.205 F 
ENDBRANCH  15  16
ENDBRANCH  13  15
ENDBRANCH   7  13
BRANCH   1  21
HETATM   21  C2  UNL     1      24.945   3.611  49.527  1.00  0.00     0.015 C 
HETATM   22  C1  UNL     1      25.445   4.955  49.125  1.00  0.00     0.006 C 
ENDBRANCH   1  21
BRANCH   1  23
HETATM   23  C4  UNL     1      22.716   3.664  48.606  1.00  0.00     0.015 C 
HETATM   24  C5  UNL     1      22.744   2.447  47.745  1.00  0.00     0.006 C 
ENDBRANCH   1  23
BRANCH   2  25
HETATM   25  O1  UNL     1      22.674   5.879  50.130  1.00  0.00    -0.326 OA
BRANCH  25  26
HETATM   26  C7  UNL     1      22.397   7.104  50.751  1.00  0.00     0.441 C 
BRANCH  26  27
HETATM   27  N1  UNL     1      23.380   8.095  50.332  1.00  0.00     0.101 N 
HETATM   28  H13 UNL     1      23.484   8.767  51.128  1.00  0.00     0.315 HD
HETATM   29  H14 UNL     1      24.274   7.591  50.109  1.00  0.00     0.315 HD
ENDBRANCH  26  27
ENDBRANCH  25  26
ENDBRANCH   2  25
TORSDOF 8
ENDMDL
MODEL 8
REMARK VINA RESULT:      -7.0      2.112      3.037
REMARK  8 active torsions:
REMARK  status: ('A' for Active; 'I' for Inactive)
REMARK    1  A    between atoms: C2_2  and  C3_3 
REMARK    2  A    between atoms: C3_3  and  C4_4 
REMARK    3  A    between atoms: C6_6  and  O1_7 
REMARK    4  A    between atoms: O1_7  and  C7_8 
REMARK    5  A    between atoms: C7_8  and  N1_9 
REMARK    6  A    between atoms: C11_14  and  N3_15 
REMARK    7  A    between atoms: N3_15  and  C12_16 
REMARK    8  A    between atoms: C12_16  and  C13_17 
ROOT
HETATM    1  C3  UNL     1      24.320   1.734  52.278  1.00  0.00     0.040 C 
HETATM    2  C6  UNL     1      25.643   1.140  51.907  1.00  0.00     0.057 C 
HETATM    3  C8  UNL     1      26.616   1.679  51.204  1.00  0.00     0.012 C 
HETATM    4  C9  UNL     1      26.394   3.060  50.701  1.00  0.00     0.087 C 
HETATM    5  C10 UNL     1      24.936   3.237  50.409  1.00  0.00     0.048 C 
HETATM    6  N2  UNL     1      24.954   4.112  49.462  1.00  0.00    -0.237 NA
HETATM    7  C11 UNL     1      23.969   4.794  48.655  1.00  0.00     0.123 C 
HETATM    8  C17 UNL     1      22.808   4.284  48.201  1.00  0.00     0.052 C 
HETATM    9  C18 UNL     1      22.117   2.980  48.310  1.00  0.00     0.028 C 
HETATM   10  C19 UNL     1      22.236   1.918  49.123  1.00  0.00     0.136 C 
HETATM   11  O2  UNL     1      23.112   1.702  50.193  1.00  0.00    -0.351 OA
HETATM   12  C20 UNL     1      23.818   2.510  51.118  1.00  0.00     0.190 C 
ENDROOT
BRANCH   7  13
HETATM   13  N3  UNL     1      24.204   6.124  48.284  1.00  0.00    -0.371 N 
HETATM   14  H18 UNL     1      23.690   6.100  47.377  1.00  0.00     0.161 HD
BRANCH  13  15
HETATM   15  C12 UNL     1      24.901   7.234  48.874  1.00  0.00     0.149 C 
BRANCH  15  16
HETATM   16  C13 UNL     1      26.081   7.687  48.118  1.00  0.00     0.007 C 
HETATM   17  C14 UNL     1      27.173   6.939  48.088  1.00  0.00     0.003 A 
HETATM   18  C15 UNL     1      27.838   5.728  48.503  1.00  0.00     0.057 A 
HETATM   19  C16 UNL     1      28.531   6.544  47.743  1.00  0.00     0.127 A 
HETATM   20  F1  UNL     1      29.683   6.830  47.094  1.00  0.00    -0.205 F 
ENDBRANCH  15  16
ENDBRANCH  13  15
ENDBRANCH   7  13
BRANCH   1  21
HETATM   21  C2  UNL     1      24.581   2.620  53.487  1.00  0.00     0.015 C 
HETATM   22  C1  UNL     1      23.975   3.979  53.401  1.00  0.00     0.006 C 
ENDBRANCH   1  21
BRANCH   1  23
HETATM   23  C4  UNL     1      23.361   0.681  52.731  1.00  0.00     0.015 C 
HETATM   24  C5  UNL     1      21.996   1.158  53.095  1.00  0.00     0.006 C 
ENDBRANCH   1  23
BRANCH   2  25
HETATM   25  O1  UNL     1      25.891  -0.150  52.359  1.00  0.00    -0.326 OA
BRANCH  25  26
HETATM   26  C7  UNL     1      26.979  -0.536  53.153  1.00  0.00     0.441 C 
BRANCH  26  27
HETATM   27  N1  UNL     1      26.597  -0.487  54.558  1.00  0.00     0.101 N 
HETATM   28  H13 UNL     1      25.990   0.358  54.673  1.00  0.00     0.315 HD
HETATM   29  H14 UNL     1      26.093  -1.379  54.789  1.00  0.00     0.315 HD
ENDBRANCH  26  27
ENDBRANCH  25  26
ENDBRANCH   2  25
TORSDOF 8
ENDMDL
MODEL 9
REMARK VINA RESULT:      -6.8      6.925     10.023
REMARK  8 active torsions:
REMARK  status: ('A' for Active; 'I' for Inactive)
REMARK    1  A    between atoms: C2_2  and  C3_3 
REMARK    2  A    between atoms: C3_3  and  C4_4 
REMARK    3  A    between atoms: C6_6  and  O1_7 
REMARK    4  A    between atoms: O1_7  and  C7_8 
REMARK    5  A    between atoms: C7_8  and  N1_9 
REMARK    6  A    between atoms: C11_14  and  N3_15 
REMARK    7  A    between atoms: N3_15  and  C12_16 
REMARK    8  A    between atoms: C12_16  and  C13_17 
ROOT
HETATM    1  C3  UNL     1      33.165   5.611  46.817  1.00  0.00     0.040 C 
HETATM    2  C6  UNL     1      33.759   6.388  47.950  1.00  0.00     0.057 C 
HETATM    3  C8  UNL     1      33.140   7.074  48.888  1.00  0.00     0.012 C 
HETATM    4  C9  UNL     1      31.656   7.095  48.835  1.00  0.00     0.087 C 
HETATM    5  C10 UNL     1      31.225   7.035  47.402  1.00  0.00     0.048 C 
HETATM    6  N2  UNL     1      30.101   7.667  47.431  1.00  0.00    -0.237 NA
HETATM    7  C11 UNL     1      29.086   8.031  46.471  1.00  0.00     0.123 C 
HETATM    8  C17 UNL     1      29.283   8.383  45.186  1.00  0.00     0.052 C 
HETATM    9  C18 UNL     1      30.462   8.534  44.304  1.00  0.00     0.028 C 
HETATM   10  C19 UNL     1      31.736   8.109  44.357  1.00  0.00     0.136 C 
HETATM   11  O2  UNL     1      32.384   7.339  45.331  1.00  0.00    -0.351 OA
HETATM   12  C20 UNL     1      32.004   6.372  46.292  1.00  0.00     0.190 C 
ENDROOT
BRANCH   7  13
HETATM   13  N3  UNL     1      27.744   8.031  46.873  1.00  0.00    -0.371 N 
HETATM   14  H18 UNL     1      27.323   7.904  45.928  1.00  0.00     0.161 HD
BRANCH  13  15
HETATM   15  C12 UNL     1      27.063   8.156  48.133  1.00  0.00     0.149 C 
BRANCH  15  16
HETATM   16  C13 UNL     1      26.335   6.948  48.557  1.00  0.00     0.007 C 
HETATM   17  C14 UNL     1      26.972   5.791  48.650  1.00  0.00     0.003 A 
HETATM   18  C15 UNL     1      28.210   5.062  48.512  1.00  0.00     0.057 A 
HETATM   19  C16 UNL     1      27.165   4.371  48.904  1.00  0.00     0.127 A 
HETATM   20  F1  UNL     1      26.630   3.186  49.279  1.00  0.00    -0.205 F 
ENDBRANCH  15  16
ENDBRANCH  13  15
ENDBRANCH   7  13
BRANCH   1  21
HETATM   21  C2  UNL     1      32.750   4.268  47.400  1.00  0.00     0.015 C 
HETATM   22  C1  UNL     1      31.557   3.655  46.752  1.00  0.00     0.006 C 
ENDBRANCH   1  21
BRANCH   1  23
HETATM   23  C4  UNL     1      34.187   5.314  45.769  1.00  0.00     0.015 C 
HETATM   24  C5  UNL     1      34.822   3.967  45.843  1.00  0.00     0.006 C 
ENDBRANCH   1  23
BRANCH   2  25
HETATM   25  O1  UNL     1      35.145   6.394  48.037  1.00  0.00    -0.326 OA
BRANCH  25  26
HETATM   26  C7  UNL     1      35.888   6.062  49.179  1.00  0.00     0.441 C 
BRANCH  26  27
HETATM   27  N1  UNL     1      35.471   4.754  49.666  1.00  0.00     0.101 N 
HETATM   28  H13 UNL     1      36.246   4.089  49.436  1.00  0.00     0.315 HD
HETATM   29  H14 UNL     1      35.298   4.832  50.699  1.00  0.00     0.315 HD
ENDBRANCH  26  27
ENDBRANCH  25  26
ENDBRANCH   2  25
TORSDOF 8
ENDMDL
