MODEL 1
REMARK VINA RESULT:      -8.5      0.000      0.000
REMARK  5 active torsions:
REMARK  status: ('A' for Active; 'I' for Inactive)
REMARK    1  A    between atoms: C2_2  and  C3_3 
REMARK    2  A    between atoms: C4_4  and  N1_5 
REMARK    3  A    between atoms: N1_5  and  C5_6 
REMARK    4  A    between atoms: C13_19  and  C14_20 
REMARK    5  A    between atoms: C14_20  and  N5_21 
ROOT
HETATM    1  C5  UNL     1      23.033   4.220  49.553  1.00  0.00     0.127 C 
HETATM    2  N2  UNL     1      22.723   5.161  48.692  1.00  0.00    -0.227 NA
HETATM    3  C6  UNL     1      21.409   5.662  48.508  1.00  0.00     0.235 C 
HETATM    4  N3  UNL     1      20.441   5.176  49.249  1.00  0.00    -0.245 NA
HETATM    5  C7  UNL     1      20.715   4.171  50.227  1.00  0.00     0.058 C 
HETATM    6  C8  UNL     1      19.665   3.930  50.996  1.00  0.00     0.028 C 
HETATM    7  C9  UNL     1      20.101   2.863  51.974  1.00  0.00     0.199 C 
HETATM    8  O1  UNL     1      21.224   3.404  52.612  1.00  0.00    -0.364 OA
HETATM    9  C10 UNL     1      22.370   3.236  51.783  1.00  0.00     0.172 C 
HETATM   10  C11 UNL     1      23.318   4.254  52.255  1.00  0.00     0.255 C 
HETATM   11  O2  UNL     1      23.053   5.469  52.042  1.00  0.00    -0.270 OA
HETATM   12  N4  UNL     1      24.475   3.859  52.922  1.00  0.00    -0.358 N 
HETATM   13  C12 UNL     1      25.138   2.640  52.524  1.00  0.00     0.130 C 
HETATM   14  C13 UNL     1      24.243   1.528  52.132  1.00  0.00     0.043 C 
HETATM   15  C19 UNL     1      22.833   1.826  51.834  1.00  0.00     0.061 C 
HETATM   16  C20 UNL     1      22.408   1.187  50.543  1.00  0.00    -0.020 C 
HETATM   17  C21 UNL     1      21.961   2.118  49.716  1.00  0.00    -0.003 C 
HETATM   18  C22 UNL     1      22.037   3.495  50.358  1.00  0.00     0.123 C 
HETATM   19  H11 UNL     1      24.854   4.463  53.714  1.00  0.00     0.162 HD
ENDROOT
BRANCH  14  20
HETATM   20  C14 UNL     1      24.345   0.362  53.148  1.00  0.00     0.279 C 
BRANCH  20  21
HETATM   21  N5  UNL     1      25.732   0.110  53.349  1.00  0.00     0.093 N 
HETATM   22  C15 UNL     1      26.348  -0.816  52.467  1.00  0.00     0.298 C 
HETATM   23  C16 UNL     1      27.639  -1.312  53.112  1.00  0.00     0.198 C 
HETATM   24  O3  UNL     1      28.352  -0.287  53.719  1.00  0.00    -0.388 OA
HETATM   25  C17 UNL     1      27.627   0.214  54.793  1.00  0.00     0.198 C 
HETATM   26  C18 UNL     1      26.140  -0.120  54.697  1.00  0.00     0.298 C 
ENDBRANCH  20  21
ENDBRANCH  14  20
BRANCH   1  27
HETATM   27  N1  UNL     1      24.427   3.882  49.572  1.00  0.00    -0.353 N 
HETATM   28  H6  UNL     1      24.641   2.892  49.905  1.00  0.00     0.166 HD
BRANCH  27  29
HETATM   29  C4  UNL     1      25.394   4.873  49.156  1.00  0.00     0.089 C 
HETATM   30  C3  UNL     1      26.692   4.737  48.954  1.00  0.00     0.013 C 
BRANCH  30  31
HETATM   31  C2  UNL     1      27.498   5.866  48.533  1.00  0.00    -0.025 C 
HETATM   32  C1  UNL     1      28.759   5.561  48.305  1.00  0.00     0.031 C 
ENDBRANCH  30  31
ENDBRANCH  27  29
ENDBRANCH   1  27
TORSDOF 5
ENDMDL
MODEL 2
REMARK VINA RESULT:      -8.1      6.414     11.675
REMARK  5 active torsions:
REMARK  status: ('A' for Active; 'I' for Inactive)
REMARK    1  A    between atoms: C2_2  and  C3_3 
REMARK    2  A    between atoms: C4_4  and  N1_5 
REMARK    3  A    between atoms: N1_5  and  C5_6 
REMARK    4  A    between atoms: C13_19  and  C14_20 
REMARK    5  A    between atoms: C14_20  and  N5_21 
ROOT
HETATM    1  C5  UNL     1      31.263   5.718  47.537  1.00  0.00     0.127 C 
HETATM    2  N2  UNL     1      31.190   4.409  47.493  1.00  0.00    -0.227 NA
HETATM    3  C6  UNL     1      32.321   3.553  47.500  1.00  0.00     0.235 C 
HETATM    4  N3  UNL     1      33.516   4.091  47.571  1.00  0.00    -0.245 NA
HETATM    5  C7  UNL     1      33.666   5.509  47.651  1.00  0.00     0.058 C 
HETATM    6  C8  UNL     1      34.919   5.861  47.894  1.00  0.00     0.028 C 
HETATM    7  C9  UNL     1      34.924   7.371  47.958  1.00  0.00     0.199 C 
HETATM    8  O1  UNL     1      33.987   7.687  48.951  1.00  0.00    -0.364 OA
HETATM    9  C10 UNL     1      32.673   7.627  48.404  1.00  0.00     0.172 C 
HETATM   10  C11 UNL     1      31.799   7.441  49.570  1.00  0.00     0.255 C 
HETATM   11  O2  UNL     1      31.844   6.342  50.188  1.00  0.00    -0.270 OA
HETATM   12  N4  UNL     1      30.949   8.472  49.962  1.00  0.00    -0.358 N 
HETATM   13  C12 UNL     1      30.344   9.310  48.955  1.00  0.00     0.130 C 
HETATM   14  C13 UNL     1      31.204   9.630  47.793  1.00  0.00     0.043 C 
HETATM   15  C19 UNL     1      32.414   8.825  47.567  1.00  0.00     0.061 C 
HETATM   16  C20 UNL     1      32.505   8.377  46.136  1.00  0.00    -0.020 C 
HETATM   17  C21 UNL     1      32.572   7.056  46.090  1.00  0.00    -0.003 C 
HETATM   18  C22 UNL     1      32.532   6.463  47.491  1.00  0.00     0.123 C 
HETATM   19  H11 UNL     1      30.756   8.624  50.999  1.00  0.00     0.162 HD
ENDROOT
BRANCH  14  20
HETATM   20  C14 UNL     1      31.547  11.141  47.768  1.00  0.00     0.279 C 
BRANCH  20  21
HETATM   21  N5  UNL     1      30.309  11.845  47.767  1.00  0.00     0.093 N 
HETATM   22  C15 UNL     1      29.887  12.395  46.528  1.00  0.00     0.298 C 
HETATM   23  C16 UNL     1      28.852  13.480  46.809  1.00  0.00     0.198 C 
HETATM   24  O3  UNL     1      27.949  13.105  47.793  1.00  0.00    -0.388 OA
HETATM   25  C17 UNL     1      28.611  12.969  49.008  1.00  0.00     0.198 C 
HETATM   26  C18 UNL     1      30.115  12.776  48.831  1.00  0.00     0.298 C 
ENDBRANCH  20  21
ENDBRANCH  14  20
BRANCH   1  27
HETATM   27  N1  UNL     1      29.989   6.376  47.531  1.00  0.00    -0.353 N 
HETATM   28  H6  UNL     1      29.973   7.316  47.027  1.00  0.00     0.166 HD
BRANCH  27  29
HETATM   29  C4  UNL     1      28.868   5.738  48.185  1.00  0.00     0.089 C 
HETATM   30  C3  UNL     1      27.615   6.145  48.278  1.00  0.00     0.013 C 
BRANCH  30  31
HETATM   31  C2  UNL     1      26.630   5.351  48.984  1.00  0.00    -0.025 C 
HETATM   32  C1  UNL     1      26.994   4.100  49.173  1.00  0.00     0.031 C 
ENDBRANCH  30  31
ENDBRANCH  27  29
ENDBRANCH   1  27
TORSDOF 5
ENDMDL
MODEL 3
REMARK VINA RESULT:      -7.6      1.926      2.646
REMARK  5 active torsions:
REMARK  status: ('A' for Active; 'I' for Inactive)
REMARK    1  A    between atoms: C2_2  and  C3_3 
REMARK    2  A    between atoms: C4_4  and  N1_5 
REMARK    3  A    between atoms: N1_5  and  C5_6 
REMARK    4  A    between atoms: C13_19  and  C14_20 
REMARK    5  A    between atoms: C14_20  and  N5_21 
ROOT
HETATM    1  C5  UNL     1      21.908   4.898  50.881  1.00  0.00     0.127 C 
HETATM    2  N2  UNL     1      20.820   5.626  50.789  1.00  0.00    -0.227 NA
HETATM    3  C6  UNL     1      19.722   5.303  49.952  1.00  0.00     0.235 C 
HETATM    4  N3  UNL     1      19.779   4.205  49.236  1.00  0.00    -0.245 NA
HETATM    5  C7  UNL     1      20.921   3.351  49.312  1.00  0.00     0.058 C 
HETATM    6  C8  UNL     1      20.730   2.212  48.666  1.00  0.00     0.028 C 
HETATM    7  C9  UNL     1      22.005   1.417  48.836  1.00  0.00     0.199 C 
HETATM    8  O1  UNL     1      22.181   1.322  50.223  1.00  0.00    -0.364 OA
HETATM    9  C10 UNL     1      22.762   2.526  50.714  1.00  0.00     0.172 C 
HETATM   10  C11 UNL     1      22.417   2.545  52.142  1.00  0.00     0.255 C 
HETATM   11  O2  UNL     1      21.211   2.719  52.468  1.00  0.00    -0.270 OA
HETATM   12  N4  UNL     1      23.419   2.371  53.093  1.00  0.00    -0.358 N 
HETATM   13  C12 UNL     1      24.732   2.914  52.842  1.00  0.00     0.130 C 
HETATM   14  C13 UNL     1      25.196   2.837  51.439  1.00  0.00     0.043 C 
HETATM   15  C19 UNL     1      24.208   2.567  50.382  1.00  0.00     0.061 C 
HETATM   16  C20 UNL     1      24.361   3.531  49.241  1.00  0.00    -0.020 C 
HETATM   17  C21 UNL     1      23.220   4.174  49.051  1.00  0.00    -0.003 C 
HETATM   18  C22 UNL     1      22.166   3.713  50.047  1.00  0.00     0.123 C 
HETATM   19  H11 UNL     1      23.201   1.841  53.991  1.00  0.00     0.162 HD
ENDROOT
BRANCH  14  20
HETATM   20  C14 UNL     1      26.399   1.868  51.315  1.00  0.00     0.279 C 
BRANCH  20  21
HETATM   21  N5  UNL     1      26.489   1.162  52.548  1.00  0.00     0.093 N 
HETATM   22  C15 UNL     1      27.688   1.322  53.291  1.00  0.00     0.298 C 
HETATM   23  C16 UNL     1      27.804   0.164  54.277  1.00  0.00     0.198 C 
HETATM   24  O3  UNL     1      26.594  -0.130  54.888  1.00  0.00    -0.388 OA
HETATM   25  C17 UNL     1      25.694  -0.602  53.940  1.00  0.00     0.198 C 
HETATM   26  C18 UNL     1      26.085  -0.207  52.519  1.00  0.00     0.298 C 
ENDBRANCH  20  21
ENDBRANCH  14  20
BRANCH   1  27
HETATM   27  N1  UNL     1      22.881   5.414  51.800  1.00  0.00    -0.353 N 
HETATM   28  H6  UNL     1      22.795   5.044  52.796  1.00  0.00     0.166 HD
BRANCH  27  29
HETATM   29  C4  UNL     1      23.864   6.360  51.321  1.00  0.00     0.089 C 
HETATM   30  C3  UNL     1      23.679   7.531  50.737  1.00  0.00     0.013 C 
BRANCH  30  31
HETATM   31  C2  UNL     1      24.809   8.340  50.327  1.00  0.00    -0.025 C 
HETATM   32  C1  UNL     1      25.938   7.668  50.242  1.00  0.00     0.031 C 
ENDBRANCH  30  31
ENDBRANCH  27  29
ENDBRANCH   1  27
TORSDOF 5
ENDMDL
MODEL 4
REMARK VINA RESULT:      -7.5      7.952     11.396
REMARK  5 active torsions:
REMARK  status: ('A' for Active; 'I' for Inactive)
REMARK    1  A    between atoms: C2_2  and  C3_3 
REMARK    2  A    between atoms: C4_4  and  N1_5 
REMARK    3  A    between atoms: N1_5  and  C5_6 
REMARK    4  A    between atoms: C13_19  and  C14_20 
REMARK    5  A    between atoms: C14_20  and  N5_21 
ROOT
HETATM    1  C5  UNL     1      32.958   6.659  48.102  1.00  0.00     0.127 C 
HETATM    2  N2  UNL     1      34.123   6.262  48.556  1.00  0.00    -0.227 NA
HETATM    3  C6  UNL     1      35.308   7.037  48.478  1.00  0.00     0.235 C 
HETATM    4  N3  UNL     1      35.243   8.232  47.937  1.00  0.00    -0.245 NA
HETATM    5  C7  UNL     1      34.000   8.738  47.451  1.00  0.00     0.058 C 
HETATM    6  C8  UNL     1      34.085  10.013  47.107  1.00  0.00     0.028 C 
HETATM    7  C9  UNL     1      32.709  10.408  46.623  1.00  0.00     0.199 C 
HETATM    8  O1  UNL     1      31.857  10.112  47.695  1.00  0.00    -0.364 OA
HETATM    9  C10 UNL     1      31.555   8.720  47.693  1.00  0.00     0.172 C 
HETATM   10  C11 UNL     1      31.140   8.432  49.072  1.00  0.00     0.255 C 
HETATM   11  O2  UNL     1      32.010   8.479  49.985  1.00  0.00    -0.270 OA
HETATM   12  N4  UNL     1      29.810   8.117  49.339  1.00  0.00    -0.358 N 
HETATM   13  C12 UNL     1      29.059   7.352  48.373  1.00  0.00     0.130 C 
HETATM   14  C13 UNL     1      29.346   7.661  46.954  1.00  0.00     0.043 C 
HETATM   15  C19 UNL     1      30.567   8.415  46.628  1.00  0.00     0.061 C 
HETATM   16  C20 UNL     1      31.326   7.756  45.512  1.00  0.00    -0.020 C 
HETATM   17  C21 UNL     1      32.554   7.476  45.920  1.00  0.00    -0.003 C 
HETATM   18  C22 UNL     1      32.759   7.915  47.362  1.00  0.00     0.123 C 
HETATM   19  H11 UNL     1      29.368   8.444  50.252  1.00  0.00     0.162 HD
ENDROOT
BRANCH  14  20
HETATM   20  C14 UNL     1      28.112   8.310  46.277  1.00  0.00     0.279 C 
BRANCH  20  21
HETATM   21  N5  UNL     1      27.566   9.233  47.213  1.00  0.00     0.093 N 
HETATM   22  C15 UNL     1      26.163   9.176  47.424  1.00  0.00     0.298 C 
HETATM   23  C16 UNL     1      25.713  10.495  48.044  1.00  0.00     0.198 C 
HETATM   24  O3  UNL     1      26.587  10.941  49.025  1.00  0.00    -0.388 OA
HETATM   25  C17 UNL     1      27.813  11.256  48.451  1.00  0.00     0.198 C 
HETATM   26  C18 UNL     1      28.009  10.585  47.094  1.00  0.00     0.298 C 
ENDBRANCH  20  21
ENDBRANCH  14  20
BRANCH   1  27
HETATM   27  N1  UNL     1      31.899   5.712  48.301  1.00  0.00    -0.353 N 
HETATM   28  H6  UNL     1      31.010   6.119  48.726  1.00  0.00     0.166 HD
BRANCH  27  29
HETATM   29  C4  UNL     1      32.113   4.332  47.925  1.00  0.00     0.089 C 
HETATM   30  C3  UNL     1      32.028   3.771  46.733  1.00  0.00     0.013 C 
BRANCH  30  31
HETATM   31  C2  UNL     1      32.285   2.355  46.562  1.00  0.00    -0.025 C 
HETATM   32  C1  UNL     1      32.981   1.821  47.543  1.00  0.00     0.031 C 
ENDBRANCH  30  31
ENDBRANCH  27  29
ENDBRANCH   1  27
TORSDOF 5
ENDMDL
MODEL 5
REMARK VINA RESULT:      -7.4      2.344      7.114
REMARK  5 active torsions:
REMARK  status: ('A' for Active; 'I' for Inactive)
REMARK    1  A    between atoms: C2_2  and  C3_3 
REMARK    2  A    between atoms: C4_4  and  N1_5 
REMARK    3  A    between atoms: N1_5  and  C5_6 
REMARK    4  A    between atoms: C13_19  and  C14_20 
REMARK    5  A    between atoms: C14_20  and  N5_21 
ROOT
HETATM    1  C5  UNL     1      24.035   1.988  51.354  1.00  0.00     0.127 C 
HETATM    2  N2  UNL     1      24.958   1.192  51.843  1.00  0.00    -0.227 NA
HETATM    3  C6  UNL     1      26.348   1.363  51.620  1.00  0.00     0.235 C 
HETATM    4  N3  UNL     1      26.748   2.384  50.898  1.00  0.00    -0.245 NA
HETATM    5  C7  UNL     1      25.799   3.305  50.361  1.00  0.00     0.058 C 
HETATM    6  C8  UNL     1      26.386   4.359  49.816  1.00  0.00     0.028 C 
HETATM    7  C9  UNL     1      25.269   5.239  49.302  1.00  0.00     0.199 C 
HETATM    8  O1  UNL     1      24.467   5.487  50.424  1.00  0.00    -0.364 OA
HETATM    9  C10 UNL     1      23.606   4.375  50.649  1.00  0.00     0.172 C 
HETATM   10  C11 UNL     1      23.228   4.484  52.064  1.00  0.00     0.255 C 
HETATM   11  O2  UNL     1      24.110   4.275  52.941  1.00  0.00    -0.270 OA
HETATM   12  N4  UNL     1      21.917   4.812  52.402  1.00  0.00    -0.358 N 
HETATM   13  C12 UNL     1      20.834   4.322  51.585  1.00  0.00     0.130 C 
HETATM   14  C13 UNL     1      21.102   4.282  50.130  1.00  0.00     0.043 C 
HETATM   15  C19 UNL     1      22.495   4.384  49.664  1.00  0.00     0.061 C 
HETATM   16  C20 UNL     1      22.806   3.318  48.654  1.00  0.00    -0.020 C 
HETATM   17  C21 UNL     1      23.830   2.594  49.077  1.00  0.00    -0.003 C 
HETATM   18  C22 UNL     1      24.324   3.093  50.427  1.00  0.00     0.123 C 
HETATM   19  H11 UNL     1      21.735   5.418  53.259  1.00  0.00     0.162 HD
ENDROOT
BRANCH  14  20
HETATM   20  C14 UNL     1      20.205   5.301  49.381  1.00  0.00     0.279 C 
BRANCH  20  21
HETATM   21  N5  UNL     1      21.001   6.459  49.150  1.00  0.00     0.093 N 
HETATM   22  C15 UNL     1      20.788   7.564  50.015  1.00  0.00     0.298 C 
HETATM   23  C16 UNL     1      21.337   8.818  49.341  1.00  0.00     0.198 C 
HETATM   24  O3  UNL     1      22.559   8.591  48.723  1.00  0.00    -0.388 OA
HETATM   25  C17 UNL     1      22.391   7.705  47.666  1.00  0.00     0.198 C 
HETATM   26  C18 UNL     1      21.109   6.886  47.792  1.00  0.00     0.298 C 
ENDBRANCH  20  21
ENDBRANCH  14  20
BRANCH   1  27
HETATM   27  N1  UNL     1      22.697   1.626  51.721  1.00  0.00    -0.353 N 
HETATM   28  H6  UNL     1      21.956   1.853  50.989  1.00  0.00     0.166 HD
BRANCH  27  29
HETATM   29  C4  UNL     1      22.466   1.006  53.007  1.00  0.00     0.089 C 
HETATM   30  C3  UNL     1      21.583   0.082  53.340  1.00  0.00     0.013 C 
BRANCH  30  31
HETATM   31  C2  UNL     1      21.510  -0.416  54.699  1.00  0.00    -0.025 C 
HETATM   32  C1  UNL     1      22.505  -1.216  55.023  1.00  0.00     0.031 C 
ENDBRANCH  30  31
ENDBRANCH  27  29
ENDBRANCH   1  27
TORSDOF 5
ENDMDL
MODEL 6
REMARK VINA RESULT:      -7.3      4.298      7.984
REMARK  5 active torsions:
REMARK  status: ('A' for Active; 'I' for Inactive)
REMARK    1  A    between atoms: C2_2  and  C3_3 
REMARK    2  A    between atoms: C4_4  and  N1_5 
REMARK    3  A    between atoms: N1_5  and  C5_6 
REMARK    4  A    between atoms: C13_19  and  C14_20 
REMARK    5  A    between atoms: C14_20  and  N5_21 
ROOT
HETATM    1  C5  UNL     1      29.082   8.917  48.853  1.00  0.00     0.127 C 
HETATM    2  N2  UNL     1      30.249   9.476  49.073  1.00  0.00    -0.227 NA
HETATM    3  C6  UNL     1      30.504  10.862  48.915  1.00  0.00     0.235 C 
HETATM    4  N3  UNL     1      29.517  11.645  48.544  1.00  0.00    -0.245 NA
HETATM    5  C7  UNL     1      28.214  11.106  48.317  1.00  0.00     0.058 C 
HETATM    6  C8  UNL     1      27.313  12.056  48.126  1.00  0.00     0.028 C 
HETATM    7  C9  UNL     1      25.997  11.344  47.907  1.00  0.00     0.199 C 
HETATM    8  O1  UNL     1      25.828  10.552  49.050  1.00  0.00    -0.364 OA
HETATM    9  C10 UNL     1      26.596   9.358  48.919  1.00  0.00     0.172 C 
HETATM   10  C11 UNL     1      26.781   8.888  50.299  1.00  0.00     0.255 C 
HETATM   11  O2  UNL     1      27.522   9.558  51.069  1.00  0.00    -0.270 OA
HETATM   12  N4  UNL     1      26.140   7.726  50.721  1.00  0.00    -0.358 N 
HETATM   13  C12 UNL     1      25.973   6.635  49.791  1.00  0.00     0.130 C 
HETATM   14  C13 UNL     1      25.677   7.029  48.395  1.00  0.00     0.043 C 
HETATM   15  C19 UNL     1      25.924   8.420  47.985  1.00  0.00     0.061 C 
HETATM   16  C20 UNL     1      26.690   8.476  46.695  1.00  0.00    -0.020 C 
HETATM   17  C21 UNL     1      27.808   9.160  46.875  1.00  0.00    -0.003 C 
HETATM   18  C22 UNL     1      27.922   9.644  48.313  1.00  0.00     0.123 C 
HETATM   19  H11 UNL     1      25.785   7.660  51.723  1.00  0.00     0.162 HD
ENDROOT
BRANCH  14  20
HETATM   20  C14 UNL     1      24.244   6.593  47.997  1.00  0.00     0.279 C 
BRANCH  20  21
HETATM   21  N5  UNL     1      23.734   5.818  49.077  1.00  0.00     0.093 N 
HETATM   22  C15 UNL     1      23.559   4.429  48.840  1.00  0.00     0.298 C 
HETATM   23  C16 UNL     1      22.587   3.880  49.880  1.00  0.00     0.198 C 
HETATM   24  O3  UNL     1      22.833   4.385  51.149  1.00  0.00    -0.388 OA
HETATM   25  C17 UNL     1      22.584   5.752  51.164  1.00  0.00     0.198 C 
HETATM   26  C18 UNL     1      22.610   6.364  49.766  1.00  0.00     0.298 C 
ENDBRANCH  20  21
ENDBRANCH  14  20
BRANCH   1  27
HETATM   27  N1  UNL     1      29.057   7.502  49.089  1.00  0.00    -0.353 N 
HETATM   28  H6  UNL     1      28.246   7.165  49.692  1.00  0.00     0.166 HD
BRANCH  27  29
HETATM   29  C4  UNL     1      30.096   6.678  48.512  1.00  0.00     0.089 C 
HETATM   30  C3  UNL     1      30.009   5.461  48.006  1.00  0.00     0.013 C 
BRANCH  30  31
HETATM   31  C2  UNL     1      31.180   4.798  47.469  1.00  0.00    -0.025 C 
HETATM   32  C1  UNL     1      32.251   4.922  48.225  1.00  0.00     0.031 C 
ENDBRANCH  30  31
ENDBRANCH  27  29
ENDBRANCH   1  27
TORSDOF 5
ENDMDL
MODEL 7
REMARK VINA RESULT:      -7.3      2.481      7.014
REMARK  5 active torsions:
REMARK  status: ('A' for Active; 'I' for Inactive)
REMARK    1  A    between atoms: C2_2  and  C3_3 
REMARK    2  A    between atoms: C4_4  and  N1_5 
REMARK    3  A    between atoms: N1_5  and  C5_6 
REMARK    4  A    between atoms: C13_19  and  C14_20 
REMARK    5  A    between atoms: C14_20  and  N5_21 
ROOT
HETATM    1  C5  UNL     1      22.757   2.246  52.045  1.00  0.00     0.127 C 
HETATM    2  N2  UNL     1      23.036   1.282  52.890  1.00  0.00    -0.227 NA
HETATM    3  C6  UNL     1      24.319   0.692  53.022  1.00  0.00     0.235 C 
HETATM    4  N3  UNL     1      25.297   1.141  52.270  1.00  0.00    -0.245 NA
HETATM    5  C7  UNL     1      25.069   2.209  51.350  1.00  0.00     0.058 C 
HETATM    6  C8  UNL     1      26.197   2.647  50.812  1.00  0.00     0.028 C 
HETATM    7  C9  UNL     1      25.805   3.767  49.876  1.00  0.00     0.199 C 
HETATM    8  O1  UNL     1      25.109   4.677  50.683  1.00  0.00    -0.364 OA
HETATM    9  C10 UNL     1      23.767   4.232  50.855  1.00  0.00     0.172 C 
HETATM   10  C11 UNL     1      23.311   4.907  52.078  1.00  0.00     0.255 C 
HETATM   11  O2  UNL     1      23.814   4.559  53.181  1.00  0.00    -0.270 OA
HETATM   12  N4  UNL     1      22.344   5.905  51.992  1.00  0.00    -0.358 N 
HETATM   13  C12 UNL     1      21.293   5.787  51.011  1.00  0.00     0.130 C 
HETATM   14  C13 UNL     1      21.699   5.211  49.709  1.00  0.00     0.043 C 
HETATM   15  C19 UNL     1      22.982   4.495  49.623  1.00  0.00     0.061 C 
HETATM   16  C20 UNL     1      22.816   3.173  48.929  1.00  0.00    -0.020 C 
HETATM   17  C21 UNL     1      23.227   2.201  49.727  1.00  0.00    -0.003 C 
HETATM   18  C22 UNL     1      23.716   2.761  51.055  1.00  0.00     0.123 C 
HETATM   19  H11 UNL     1      22.394   6.739  52.654  1.00  0.00     0.162 HD
ENDROOT
BRANCH  14  20
HETATM   20  C14 UNL     1      21.597   6.275  48.586  1.00  0.00     0.279 C 
BRANCH  20  21
HETATM   21  N5  UNL     1      22.818   7.007  48.600  1.00  0.00     0.093 N 
HETATM   22  C15 UNL     1      22.771   8.318  49.143  1.00  0.00     0.298 C 
HETATM   23  C16 UNL     1      23.987   9.093  48.642  1.00  0.00     0.198 C 
HETATM   24  O3  UNL     1      25.144   8.327  48.665  1.00  0.00    -0.388 OA
HETATM   25  C17 UNL     1      25.031   7.282  47.756  1.00  0.00     0.198 C 
HETATM   26  C18 UNL     1      23.579   6.982  47.392  1.00  0.00     0.298 C 
ENDBRANCH  20  21
ENDBRANCH  14  20
BRANCH   1  27
HETATM   27  N1  UNL     1      21.396   2.694  52.097  1.00  0.00    -0.353 N 
HETATM   28  H6  UNL     1      21.276   3.746  52.220  1.00  0.00     0.166 HD
BRANCH  27  29
HETATM   29  C4  UNL     1      20.333   1.719  51.983  1.00  0.00     0.089 C 
HETATM   30  C3  UNL     1      19.744   1.252  50.896  1.00  0.00     0.013 C 
BRANCH  30  31
HETATM   31  C2  UNL     1      18.687   0.266  50.995  1.00  0.00    -0.025 C 
HETATM   32  C1  UNL     1      18.562  -0.259  52.196  1.00  0.00     0.031 C 
ENDBRANCH  30  31
ENDBRANCH  27  29
ENDBRANCH   1  27
TORSDOF 5
ENDMDL
MODEL 8
REMARK VINA RESULT:      -7.3      6.655     10.045
REMARK  5 active torsions:
REMARK  status: ('A' for Active; 'I' for Inactive)
REMARK    1  A    between atoms: C2_2  and  C3_3 
REMARK    2  A    between atoms: C4_4  and  N1_5 
REMARK    3  A    between atoms: N1_5  and  C5_6 
REMARK    4  A    between atoms: C13_19  and  C14_20 
REMARK    5  A    between atoms: C14_20  and  N5_21 
ROOT
HETATM    1  C5  UNL     1      27.743   9.750  47.628  1.00  0.00     0.127 C 
HETATM    2  N2  UNL     1      26.566  10.320  47.736  1.00  0.00    -0.227 NA
HETATM    3  C6  UNL     1      26.358  11.603  48.303  1.00  0.00     0.235 C 
HETATM    4  N3  UNL     1      27.399  12.277  48.733  1.00  0.00    -0.245 NA
HETATM    5  C7  UNL     1      28.712  11.728  48.618  1.00  0.00     0.058 C 
HETATM    6  C8  UNL     1      29.647  12.610  48.935  1.00  0.00     0.028 C 
HETATM    7  C9  UNL     1      30.969  11.898  48.762  1.00  0.00     0.199 C 
HETATM    8  O1  UNL     1      30.962  11.453  47.434  1.00  0.00    -0.364 OA
HETATM    9  C10 UNL     1      30.202  10.252  47.337  1.00  0.00     0.172 C 
HETATM   10  C11 UNL     1      29.816  10.174  45.922  1.00  0.00     0.255 C 
HETATM   11  O2  UNL     1      28.984  11.012  45.478  1.00  0.00    -0.270 OA
HETATM   12  N4  UNL     1      30.372   9.188  45.111  1.00  0.00    -0.358 N 
HETATM   13  C12 UNL     1      30.652   7.889  45.672  1.00  0.00     0.130 C 
HETATM   14  C13 UNL     1      31.148   7.891  47.066  1.00  0.00     0.043 C 
HETATM   15  C19 UNL     1      30.984   9.110  47.873  1.00  0.00     0.061 C 
HETATM   16  C20 UNL     1      30.409   8.791  49.223  1.00  0.00    -0.020 C 
HETATM   17  C21 UNL     1      29.287   9.472  49.397  1.00  0.00    -0.003 C 
HETATM   18  C22 UNL     1      28.979  10.328  48.178  1.00  0.00     0.123 C 
HETATM   19  H11 UNL     1      30.581   9.408  44.089  1.00  0.00     0.162 HD
ENDROOT
BRANCH  14  20
HETATM   20  C14 UNL     1      32.616   7.397  47.124  1.00  0.00     0.279 C 
BRANCH  20  21
HETATM   21  N5  UNL     1      32.594   6.003  46.837  1.00  0.00     0.093 N 
HETATM   22  C15 UNL     1      32.412   5.125  47.938  1.00  0.00     0.298 C 
HETATM   23  C16 UNL     1      32.893   3.735  47.533  1.00  0.00     0.198 C 
HETATM   24  O3  UNL     1      32.496   3.395  46.247  1.00  0.00    -0.388 OA
HETATM   25  C17 UNL     1      33.119   4.232  45.329  1.00  0.00     0.198 C 
HETATM   26  C18 UNL     1      33.620   5.524  45.967  1.00  0.00     0.298 C 
ENDBRANCH  20  21
ENDBRANCH  14  20
BRANCH   1  27
HETATM   27  N1  UNL     1      27.712   8.456  47.011  1.00  0.00    -0.353 N 
HETATM   28  H6  UNL     1      27.996   8.444  45.983  1.00  0.00     0.166 HD
BRANCH  27  29
HETATM   29  C4  UNL     1      27.312   7.313  47.801  1.00  0.00     0.089 C 
HETATM   30  C3  UNL     1      27.976   6.198  48.049  1.00  0.00     0.013 C 
BRANCH  30  31
HETATM   31  C2  UNL     1      27.394   5.160  48.876  1.00  0.00    -0.025 C 
HETATM   32  C1  UNL     1      26.084   5.236  48.978  1.00  0.00     0.031 C 
ENDBRANCH  30  31
ENDBRANCH  27  29
ENDBRANCH   1  27
TORSDOF 5
ENDMDL
MODEL 9
REMARK VINA RESULT:      -7.2      2.504      7.221
REMARK  5 active torsions:
REMARK  status: ('A' for Active; 'I' for Inactive)
REMARK    1  A    between atoms: C2_2  and  C3_3 
REMARK    2  A    between atoms: C4_4  and  N1_5 
REMARK    3  A    between atoms: N1_5  and  C5_6 
REMARK    4  A    between atoms: C13_19  and  C14_20 
REMARK    5  A    between atoms: C14_20  and  N5_21 
ROOT
HETATM    1  C5  UNL     1      24.130   2.139  51.209  1.00  0.00     0.127 C 
HETATM    2  N2  UNL     1      25.170   1.484  51.669  1.00  0.00    -0.227 NA
HETATM    3  C6  UNL     1      26.514   1.868  51.433  1.00  0.00     0.235 C 
HETATM    4  N3  UNL     1      26.744   2.951  50.728  1.00  0.00    -0.245 NA
HETATM    5  C7  UNL     1      25.657   3.727  50.222  1.00  0.00     0.058 C 
HETATM    6  C8  UNL     1      26.069   4.869  49.692  1.00  0.00     0.028 C 
HETATM    7  C9  UNL     1      24.824   5.578  49.210  1.00  0.00     0.199 C 
HETATM    8  O1  UNL     1      24.011   5.680  50.346  1.00  0.00    -0.364 OA
HETATM    9  C10 UNL     1      23.332   4.446  50.559  1.00  0.00     0.172 C 
HETATM   10  C11 UNL     1      22.963   4.469  51.981  1.00  0.00     0.255 C 
HETATM   11  O2  UNL     1      23.881   4.381  52.842  1.00  0.00    -0.270 OA
HETATM   12  N4  UNL     1      21.624   4.588  52.342  1.00  0.00    -0.358 N 
HETATM   13  C12 UNL     1      20.615   3.955  51.527  1.00  0.00     0.130 C 
HETATM   14  C13 UNL     1      20.864   3.983  50.068  1.00  0.00     0.043 C 
HETATM   15  C19 UNL     1      22.217   4.305  49.589  1.00  0.00     0.061 C 
HETATM   16  C20 UNL     1      22.671   3.317  48.552  1.00  0.00    -0.020 C 
HETATM   17  C21 UNL     1      23.800   2.750  48.948  1.00  0.00    -0.003 C 
HETATM   18  C22 UNL     1      24.233   3.293  50.301  1.00  0.00     0.123 C 
HETATM   19  H11 UNL     1      21.365   5.143  53.213  1.00  0.00     0.162 HD
ENDROOT
BRANCH  14  20
HETATM   20  C14 UNL     1      19.812   4.868  49.352  1.00  0.00     0.279 C 
BRANCH  20  21
HETATM   21  N5  UNL     1      18.740   4.010  48.976  1.00  0.00     0.093 N 
HETATM   22  C15 UNL     1      18.740   3.535  47.638  1.00  0.00     0.298 C 
HETATM   23  C16 UNL     1      17.331   3.066  47.290  1.00  0.00     0.198 C 
HETATM   24  O3  UNL     1      16.744   2.351  48.325  1.00  0.00    -0.388 OA
HETATM   25  C17 UNL     1      16.546   3.188  49.417  1.00  0.00     0.198 C 
HETATM   26  C18 UNL     1      17.432   4.429  49.368  1.00  0.00     0.298 C 
ENDBRANCH  20  21
ENDBRANCH  14  20
BRANCH   1  27
HETATM   27  N1  UNL     1      22.867   1.571  51.584  1.00  0.00    -0.353 N 
HETATM   28  H6  UNL     1      22.076   1.742  50.890  1.00  0.00     0.166 HD
BRANCH  27  29
HETATM   29  C4  UNL     1      22.771   0.839  52.828  1.00  0.00     0.089 C 
HETATM   30  C3  UNL     1      21.719   0.251  53.369  1.00  0.00     0.013 C 
BRANCH  30  31
HETATM   31  C2  UNL     1      21.829  -0.441  54.637  1.00  0.00    -0.025 C 
HETATM   32  C1  UNL     1      21.699  -1.748  54.541  1.00  0.00     0.031 C 
ENDBRANCH  30  31
ENDBRANCH  27  29
ENDBRANCH   1  27
TORSDOF 5
ENDMDL
