MODEL 1
REMARK VINA RESULT:      -8.8      0.000      0.000
REMARK  6 active torsions:
REMARK  status: ('A' for Active; 'I' for Inactive)
REMARK    1  A    between atoms: C2_2  and  C3_3 
REMARK    2  A    between atoms: C5_6  and  N2_7 
REMARK    3  A    between atoms: N2_7  and  C6_8 
REMARK    4  A    between atoms: C7_9  and  N3_10 
REMARK    5  A    between atoms: C20_25  and  C21_26 
REMARK    6  A    between atoms: C22_27  and  N4_28 
ROOT
HETATM    1  C6  UNL     1      22.429   0.686  52.149  1.00  0.00     0.035 C 
HETATM    2  C7  UNL     1      21.483   0.039  52.822  1.00  0.00     0.029 C 
HETATM    3  C8  UNL     1      20.276   0.951  52.758  1.00  0.00     0.100 C 
HETATM    4  C9  UNL     1      19.088   0.568  52.020  1.00  0.00    -0.005 A 
HETATM    5  C10 UNL     1      18.376  -0.523  52.516  1.00  0.00     0.123 A 
HETATM    6  F1  UNL     1      18.647  -1.137  53.655  1.00  0.00    -0.206 F 
HETATM    7  C11 UNL     1      17.229  -0.906  51.689  1.00  0.00     0.043 A 
HETATM    8  C12 UNL     1      17.065  -0.138  50.617  1.00  0.00     0.004 A 
HETATM    9  C13 UNL     1      17.738   0.942  50.103  1.00  0.00     0.010 A 
HETATM   10  C14 UNL     1      18.847   1.309  50.893  1.00  0.00    -0.025 A 
HETATM   11  C15 UNL     1      19.452   2.526  50.229  1.00  0.00     0.207 C 
HETATM   12  O1  UNL     1      19.827   2.081  48.916  1.00  0.00    -0.382 OA
HETATM   13  C16 UNL     1      20.707   1.041  49.166  1.00  0.00     0.202 C 
HETATM   14  C17 UNL     1      22.025   1.592  49.636  1.00  0.00    -0.059 C 
HETATM   15  C18 UNL     1      22.751   2.466  48.673  1.00  0.00     0.046 C 
HETATM   16  C19 UNL     1      22.362   1.240  50.829  1.00  0.00     0.030 C 
ENDROOT
BRANCH   1  17
HETATM   17  N2  UNL     1      23.724   0.290  52.569  1.00  0.00    -0.259 NA
HETATM   18  H8  UNL     1      23.376  -0.665  52.910  1.00  0.00     0.133 HD
BRANCH  17  19
HETATM   19  C5  UNL     1      24.806  -0.360  53.044  1.00  0.00     0.031 A 
HETATM   20  C4  UNL     1      25.979  -1.059  53.559  1.00  0.00     0.202 A 
HETATM   21  N1  UNL     1      27.071  -0.318  53.499  1.00  0.00    -0.287 NA
HETATM   22  C3  UNL     1      27.360   0.766  53.150  1.00  0.00     0.049 A 
HETATM   23  C20 UNL     1      25.750   0.670  52.856  1.00  0.00     0.062 A 
BRANCH  22  24
HETATM   24  C2  UNL     1      27.843   2.155  52.725  1.00  0.00     0.056 C 
HETATM   25  C1  UNL     1      28.889   2.493  53.759  1.00  0.00     0.011 C 
ENDBRANCH  22  24
BRANCH  23  26
HETATM   26  C21 UNL     1      25.236   2.137  52.192  1.00  0.00    -0.040 C 
HETATM   27  C22 UNL     1      24.899   3.158  51.720  1.00  0.00     0.014 C 
BRANCH  27  28
HETATM   28  N4  UNL     1      24.488   4.379  51.125  1.00  0.00    -0.337 N 
HETATM   29  C23 UNL     1      25.341   4.890  50.076  1.00  0.00     0.159 C 
HETATM   30  C24 UNL     1      25.419   6.374  50.184  1.00  0.00     0.188 C 
HETATM   31  O2  UNL     1      24.422   6.973  50.853  1.00  0.00    -0.388 OA
HETATM   32  C25 UNL     1      23.230   6.360  51.057  1.00  0.00     0.188 C 
HETATM   33  C26 UNL     1      23.263   4.964  51.620  1.00  0.00     0.159 C 
ENDBRANCH  27  28
ENDBRANCH  23  26
ENDBRANCH  17  19
ENDBRANCH   1  17
BRANCH   2  34
HETATM   34  N3  UNL     1      21.316  -0.949  53.810  1.00  0.00    -0.401 N 
HETATM   35  H9  UNL     1      22.004  -1.742  53.815  1.00  0.00     0.156 HD
HETATM   36  H10 UNL     1      20.479  -0.937  54.471  1.00  0.00     0.156 HD
ENDBRANCH   2  34
TORSDOF 6
ENDMDL
MODEL 2
REMARK VINA RESULT:      -8.7      3.207      5.756
REMARK  6 active torsions:
REMARK  status: ('A' for Active; 'I' for Inactive)
REMARK    1  A    between atoms: C2_2  and  C3_3 
REMARK    2  A    between atoms: C5_6  and  N2_7 
REMARK    3  A    between atoms: N2_7  and  C6_8 
REMARK    4  A    between atoms: C7_9  and  N3_10 
REMARK    5  A    between atoms: C20_25  and  C21_26 
REMARK    6  A    between atoms: C22_27  and  N4_28 
ROOT
HETATM    1  C6  UNL     1      25.317   3.794  50.311  1.00  0.00     0.035 C 
HETATM    2  C7  UNL     1      25.824   3.096  51.322  1.00  0.00     0.029 C 
HETATM    3  C8  UNL     1      24.703   3.025  52.338  1.00  0.00     0.100 C 
HETATM    4  C9  UNL     1      24.061   1.764  52.654  1.00  0.00    -0.005 A 
HETATM    5  C10 UNL     1      24.851   0.811  53.295  1.00  0.00     0.123 A 
HETATM    6  F1  UNL     1      26.082   1.027  53.725  1.00  0.00    -0.206 F 
HETATM    7  C11 UNL     1      24.169  -0.465  53.524  1.00  0.00     0.043 A 
HETATM    8  C12 UNL     1      22.913  -0.484  53.089  1.00  0.00     0.004 A 
HETATM    9  C13 UNL     1      22.106   0.432  52.463  1.00  0.00     0.010 A 
HETATM   10  C14 UNL     1      22.761   1.659  52.235  1.00  0.00    -0.025 A 
HETATM   11  C15 UNL     1      21.740   2.568  51.586  1.00  0.00     0.207 C 
HETATM   12  O1  UNL     1      21.371   1.898  50.370  1.00  0.00    -0.382 OA
HETATM   13  C16 UNL     1      22.573   1.775  49.692  1.00  0.00     0.202 C 
HETATM   14  C17 UNL     1      22.982   3.112  49.136  1.00  0.00    -0.059 C 
HETATM   15  C18 UNL     1      22.057   3.718  48.139  1.00  0.00     0.046 C 
HETATM   16  C19 UNL     1      24.092   3.572  49.602  1.00  0.00     0.030 C 
ENDROOT
BRANCH   1  17
HETATM   17  N2  UNL     1      26.338   4.431  49.560  1.00  0.00    -0.259 NA
HETATM   18  H8  UNL     1      27.046   3.652  49.767  1.00  0.00     0.133 HD
BRANCH  17  19
HETATM   19  C5  UNL     1      27.478   4.776  48.927  1.00  0.00     0.031 A 
HETATM   20  C4  UNL     1      28.710   5.155  48.243  1.00  0.00     0.202 A 
HETATM   21  N1  UNL     1      28.671   6.396  47.789  1.00  0.00    -0.287 NA
HETATM   22  C3  UNL     1      27.913   7.292  47.795  1.00  0.00     0.049 A 
HETATM   23  C20 UNL     1      27.124   6.100  48.597  1.00  0.00     0.062 A 
BRANCH  22  24
HETATM   24  C2  UNL     1      27.001   8.521  47.743  1.00  0.00     0.056 C 
HETATM   25  C1  UNL     1      26.789   8.738  46.265  1.00  0.00     0.011 C 
ENDBRANCH  22  24
BRANCH  23  26
HETATM   26  C21 UNL     1      25.603   6.677  49.059  1.00  0.00    -0.040 C 
HETATM   27  C22 UNL     1      24.541   7.079  49.356  1.00  0.00     0.014 C 
BRANCH  27  28
HETATM   28  N4  UNL     1      23.246   7.537  49.713  1.00  0.00    -0.337 N 
HETATM   29  C23 UNL     1      22.560   6.770  50.728  1.00  0.00     0.159 C 
HETATM   30  C24 UNL     1      21.112   6.685  50.387  1.00  0.00     0.188 C 
HETATM   31  O2  UNL     1      20.643   7.627  49.554  1.00  0.00    -0.388 OA
HETATM   32  C25 UNL     1      21.297   8.798  49.360  1.00  0.00     0.188 C 
HETATM   33  C26 UNL     1      22.765   8.719  49.035  1.00  0.00     0.159 C 
ENDBRANCH  27  28
ENDBRANCH  23  26
ENDBRANCH  17  19
ENDBRANCH   1  17
BRANCH   2  34
HETATM   34  N3  UNL     1      27.054   2.737  51.903  1.00  0.00    -0.401 N 
HETATM   35  H9  UNL     1      27.439   3.373  52.644  1.00  0.00     0.156 HD
HETATM   36  H10 UNL     1      27.612   1.899  51.548  1.00  0.00     0.156 HD
ENDBRANCH   2  34
TORSDOF 6
ENDMDL
MODEL 3
REMARK VINA RESULT:      -8.3      2.860      6.783
REMARK  6 active torsions:
REMARK  status: ('A' for Active; 'I' for Inactive)
REMARK    1  A    between atoms: C2_2  and  C3_3 
REMARK    2  A    between atoms: C5_6  and  N2_7 
REMARK    3  A    between atoms: N2_7  and  C6_8 
REMARK    4  A    between atoms: C7_9  and  N3_10 
REMARK    5  A    between atoms: C20_25  and  C21_26 
REMARK    6  A    between atoms: C22_27  and  N4_28 
ROOT
HETATM    1  C6  UNL     1      24.446   3.351  50.938  1.00  0.00     0.035 C 
HETATM    2  C7  UNL     1      25.622   3.733  50.452  1.00  0.00     0.029 C 
HETATM    3  C8  UNL     1      25.318   4.218  49.050  1.00  0.00     0.100 C 
HETATM    4  C9  UNL     1      25.461   5.617  48.696  1.00  0.00    -0.005 A 
HETATM    5  C10 UNL     1      26.756   6.131  48.712  1.00  0.00     0.123 A 
HETATM    6  F1  UNL     1      27.845   5.407  48.910  1.00  0.00    -0.206 F 
HETATM    7  C11 UNL     1      26.827   7.563  48.415  1.00  0.00     0.043 A 
HETATM    8  C12 UNL     1      25.644   8.118  48.174  1.00  0.00     0.004 A 
HETATM    9  C13 UNL     1      24.356   7.644  48.143  1.00  0.00     0.010 A 
HETATM   10  C14 UNL     1      24.283   6.267  48.435  1.00  0.00    -0.025 A 
HETATM   11  C15 UNL     1      22.822   5.889  48.320  1.00  0.00     0.207 C 
HETATM   12  O1  UNL     1      22.154   6.702  49.298  1.00  0.00    -0.382 OA
HETATM   13  C16 UNL     1      22.769   6.347  50.488  1.00  0.00     0.202 C 
HETATM   14  C17 UNL     1      22.295   4.985  50.918  1.00  0.00    -0.059 C 
HETATM   15  C18 UNL     1      20.838   4.858  51.203  1.00  0.00     0.046 C 
HETATM   16  C19 UNL     1      23.218   4.088  50.981  1.00  0.00     0.030 C 
ENDROOT
BRANCH   1  17
HETATM   17  N2  UNL     1      24.600   2.382  51.961  1.00  0.00    -0.259 NA
HETATM   18  H8  UNL     1      25.645   2.595  52.075  1.00  0.00     0.133 HD
BRANCH  17  19
HETATM   19  C5  UNL     1      25.050   1.566  52.938  1.00  0.00     0.031 A 
HETATM   20  C4  UNL     1      25.532   0.682  53.993  1.00  0.00     0.202 A 
HETATM   21  N1  UNL     1      24.707  -0.325  54.220  1.00  0.00    -0.287 NA
HETATM   22  C3  UNL     1      23.684  -0.714  53.795  1.00  0.00     0.049 A 
HETATM   23  C20 UNL     1      23.990   0.637  52.918  1.00  0.00     0.062 A 
BRANCH  22  24
HETATM   24  C2  UNL     1      22.356  -1.306  53.316  1.00  0.00     0.056 C 
HETATM   25  C1  UNL     1      21.586  -1.522  54.596  1.00  0.00     0.011 C 
ENDBRANCH  22  24
BRANCH  23  26
HETATM   26  C21 UNL     1      22.724   0.866  51.822  1.00  0.00    -0.040 C 
HETATM   27  C22 UNL     1      21.829   1.027  51.079  1.00  0.00     0.014 C 
BRANCH  27  28
HETATM   28  N4  UNL     1      20.749   1.251  50.186  1.00  0.00    -0.337 N 
HETATM   29  C23 UNL     1      21.108   1.508  48.810  1.00  0.00     0.159 C 
HETATM   30  C24 UNL     1      20.200   2.548  48.249  1.00  0.00     0.188 C 
HETATM   31  O2  UNL     1      19.026   2.710  48.879  1.00  0.00    -0.388 OA
HETATM   32  C25 UNL     1      18.510   1.752  49.687  1.00  0.00     0.188 C 
HETATM   33  C26 UNL     1      19.418   1.185  50.745  1.00  0.00     0.159 C 
ENDBRANCH  27  28
ENDBRANCH  23  26
ENDBRANCH  17  19
ENDBRANCH   1  17
BRANCH   2  34
HETATM   34  N3  UNL     1      27.003   3.528  50.626  1.00  0.00    -0.401 N 
HETATM   35  H9  UNL     1      27.517   4.211  51.234  1.00  0.00     0.156 HD
HETATM   36  H10 UNL     1      27.521   2.760  50.096  1.00  0.00     0.156 HD
ENDBRANCH   2  34
TORSDOF 6
ENDMDL
MODEL 4
REMARK VINA RESULT:      -8.3      2.436      6.910
REMARK  6 active torsions:
REMARK  status: ('A' for Active; 'I' for Inactive)
REMARK    1  A    between atoms: C2_2  and  C3_3 
REMARK    2  A    between atoms: C5_6  and  N2_7 
REMARK    3  A    between atoms: N2_7  and  C6_8 
REMARK    4  A    between atoms: C7_9  and  N3_10 
REMARK    5  A    between atoms: C20_25  and  C21_26 
REMARK    6  A    between atoms: C22_27  and  N4_28 
ROOT
HETATM    1  C6  UNL     1      21.514   0.432  52.636  1.00  0.00     0.035 C 
HETATM    2  C7  UNL     1      22.310  -0.376  53.329  1.00  0.00     0.029 C 
HETATM    3  C8  UNL     1      23.638  -0.319  52.603  1.00  0.00     0.100 C 
HETATM    4  C9  UNL     1      24.803   0.279  53.225  1.00  0.00    -0.005 A 
HETATM    5  C10 UNL     1      25.315  -0.380  54.342  1.00  0.00     0.123 A 
HETATM    6  F1  UNL     1      24.884  -1.549  54.784  1.00  0.00    -0.206 F 
HETATM    7  C11 UNL     1      26.447   0.309  54.967  1.00  0.00     0.043 A 
HETATM    8  C12 UNL     1      26.791   1.436  54.352  1.00  0.00     0.004 A 
HETATM    9  C13 UNL     1      26.316   2.107  53.253  1.00  0.00     0.010 A 
HETATM   10  C14 UNL     1      25.222   1.451  52.653  1.00  0.00    -0.025 A 
HETATM   11  C15 UNL     1      24.845   2.280  51.445  1.00  0.00     0.207 C 
HETATM   12  O1  UNL     1      24.497   3.568  51.977  1.00  0.00    -0.382 OA
HETATM   13  C16 UNL     1      23.461   3.286  52.852  1.00  0.00     0.202 C 
HETATM   14  C17 UNL     1      22.209   2.982  52.077  1.00  0.00    -0.059 C 
HETATM   15  C18 UNL     1      21.682   4.083  51.223  1.00  0.00     0.046 C 
HETATM   16  C19 UNL     1      21.747   1.791  52.246  1.00  0.00     0.030 C 
ENDROOT
BRANCH   1  17
HETATM   17  N2  UNL     1      20.150   0.081  52.802  1.00  0.00    -0.259 NA
HETATM   18  H8  UNL     1      20.395  -0.869  53.236  1.00  0.00     0.133 HD
BRANCH  17  19
HETATM   19  C5  UNL     1      18.976  -0.518  53.093  1.00  0.00     0.031 A 
HETATM   20  C4  UNL     1      17.706  -1.166  53.402  1.00  0.00     0.202 A 
HETATM   21  N1  UNL     1      16.850  -1.095  52.398  1.00  0.00    -0.287 NA
HETATM   22  C3  UNL     1      16.833  -0.659  51.308  1.00  0.00     0.049 A 
HETATM   23  C20 UNL     1      18.329  -0.284  51.862  1.00  0.00     0.062 A 
BRANCH  22  24
HETATM   24  C2  UNL     1      16.704  -0.127  49.878  1.00  0.00     0.056 C 
HETATM   25  C1  UNL     1      15.661  -1.028  49.262  1.00  0.00     0.011 C 
ENDBRANCH  22  24
BRANCH  23  26
HETATM   26  C21 UNL     1      19.159   0.550  50.649  1.00  0.00    -0.040 C 
HETATM   27  C22 UNL     1      19.746   1.109  49.799  1.00  0.00     0.014 C 
BRANCH  27  28
HETATM   28  N4  UNL     1      20.435   1.775  48.753  1.00  0.00    -0.337 N 
HETATM   29  C23 UNL     1      21.753   1.270  48.442  1.00  0.00     0.159 C 
HETATM   30  C24 UNL     1      22.657   2.411  48.125  1.00  0.00     0.188 C 
HETATM   31  O2  UNL     1      22.060   3.553  47.748  1.00  0.00    -0.388 OA
HETATM   32  C25 UNL     1      20.786   3.572  47.284  1.00  0.00     0.188 C 
HETATM   33  C26 UNL     1      19.743   2.868  48.110  1.00  0.00     0.159 C 
ENDBRANCH  27  28
ENDBRANCH  23  26
ENDBRANCH  17  19
ENDBRANCH   1  17
BRANCH   2  34
HETATM   34  N3  UNL     1      22.266  -1.468  54.216  1.00  0.00    -0.401 N 
HETATM   35  H9  UNL     1      21.529  -2.195  54.045  1.00  0.00     0.156 HD
HETATM   36  H10 UNL     1      22.901  -1.513  55.072  1.00  0.00     0.156 HD
ENDBRANCH   2  34
TORSDOF 6
ENDMDL
MODEL 5
REMARK VINA RESULT:      -7.7      6.274      9.096
REMARK  6 active torsions:
REMARK  status: ('A' for Active; 'I' for Inactive)
REMARK    1  A    between atoms: C2_2  and  C3_3 
REMARK    2  A    between atoms: C5_6  and  N2_7 
REMARK    3  A    between atoms: N2_7  and  C6_8 
REMARK    4  A    between atoms: C7_9  and  N3_10 
REMARK    5  A    between atoms: C20_25  and  C21_26 
REMARK    6  A    between atoms: C22_27  and  N4_28 
ROOT
HETATM    1  C6  UNL     1      28.168   6.664  47.987  1.00  0.00     0.035 C 
HETATM    2  C7  UNL     1      27.364   5.756  48.531  1.00  0.00     0.029 C 
HETATM    3  C8  UNL     1      26.233   6.561  49.137  1.00  0.00     0.100 C 
HETATM    4  C9  UNL     1      24.886   6.472  48.607  1.00  0.00    -0.005 A 
HETATM    5  C10 UNL     1      24.242   5.245  48.756  1.00  0.00     0.123 A 
HETATM    6  F1  UNL     1      24.729   4.222  49.439  1.00  0.00    -0.206 F 
HETATM    7  C11 UNL     1      22.914   5.196  48.140  1.00  0.00     0.043 A 
HETATM    8  C12 UNL     1      22.555   6.334  47.555  1.00  0.00     0.004 A 
HETATM    9  C13 UNL     1      23.158   7.557  47.396  1.00  0.00     0.010 A 
HETATM   10  C14 UNL     1      24.439   7.606  47.982  1.00  0.00    -0.025 A 
HETATM   11  C15 UNL     1      24.949   9.013  47.763  1.00  0.00     0.207 C 
HETATM   12  O1  UNL     1      24.983   9.174  46.336  1.00  0.00    -0.382 OA
HETATM   13  C16 UNL     1      25.831   8.162  45.917  1.00  0.00     0.202 C 
HETATM   14  C17 UNL     1      27.253   8.520  46.251  1.00  0.00    -0.059 C 
HETATM   15  C18 UNL     1      27.791   9.746  45.597  1.00  0.00     0.046 C 
HETATM   16  C19 UNL     1      27.833   7.716  47.073  1.00  0.00     0.030 C 
ENDROOT
BRANCH   1  17
HETATM   17  N2  UNL     1      29.498   6.183  47.888  1.00  0.00    -0.259 NA
HETATM   18  H8  UNL     1      29.185   5.158  47.940  1.00  0.00     0.133 HD
BRANCH  17  19
HETATM   19  C5  UNL     1      30.620   5.438  47.802  1.00  0.00     0.031 A 
HETATM   20  C4  UNL     1      31.835   4.637  47.711  1.00  0.00     0.202 A 
HETATM   21  N1  UNL     1      32.921   5.339  47.984  1.00  0.00    -0.287 NA
HETATM   22  C3  UNL     1      33.179   6.441  48.294  1.00  0.00     0.049 A 
HETATM   23  C20 UNL     1      31.546   6.442  48.150  1.00  0.00     0.062 A 
BRANCH  22  24
HETATM   24  C2  UNL     1      33.626   7.849  48.699  1.00  0.00     0.056 C 
HETATM   25  C1  UNL     1      35.060   7.909  48.234  1.00  0.00     0.011 C 
ENDBRANCH  22  24
BRANCH  23  26
HETATM   26  C21 UNL     1      30.976   7.995  48.498  1.00  0.00    -0.040 C 
HETATM   27  C22 UNL     1      30.575   9.077  48.716  1.00  0.00     0.014 C 
BRANCH  27  28
HETATM   28  N4  UNL     1      30.063  10.374  48.978  1.00  0.00    -0.337 N 
HETATM   29  C23 UNL     1      28.654  10.447  49.292  1.00  0.00     0.159 C 
HETATM   30  C24 UNL     1      28.071  11.666  48.663  1.00  0.00     0.188 C 
HETATM   31  O2  UNL     1      28.937  12.642  48.351  1.00  0.00    -0.388 OA
HETATM   32  C25 UNL     1      30.164  12.719  48.922  1.00  0.00     0.188 C 
HETATM   33  C26 UNL     1      31.003  11.469  48.915  1.00  0.00     0.159 C 
ENDBRANCH  27  28
ENDBRANCH  23  26
ENDBRANCH  17  19
ENDBRANCH   1  17
BRANCH   2  34
HETATM   34  N3  UNL     1      27.368   4.439  49.027  1.00  0.00    -0.401 N 
HETATM   35  H9  UNL     1      26.447   3.940  49.070  1.00  0.00     0.156 HD
HETATM   36  H10 UNL     1      28.257   3.997  49.420  1.00  0.00     0.156 HD
ENDBRANCH   2  34
TORSDOF 6
ENDMDL
MODEL 6
REMARK VINA RESULT:      -7.6      3.175      7.816
REMARK  6 active torsions:
REMARK  status: ('A' for Active; 'I' for Inactive)
REMARK    1  A    between atoms: C2_2  and  C3_3 
REMARK    2  A    between atoms: C5_6  and  N2_7 
REMARK    3  A    between atoms: N2_7  and  C6_8 
REMARK    4  A    between atoms: C7_9  and  N3_10 
REMARK    5  A    between atoms: C20_25  and  C21_26 
REMARK    6  A    between atoms: C22_27  and  N4_28 
ROOT
HETATM    1  C6  UNL     1      24.443   4.707  50.433  1.00  0.00     0.035 C 
HETATM    2  C7  UNL     1      25.701   4.667  50.006  1.00  0.00     0.029 C 
HETATM    3  C8  UNL     1      25.672   5.364  48.662  1.00  0.00     0.100 C 
HETATM    4  C9  UNL     1      26.342   6.634  48.465  1.00  0.00    -0.005 A 
HETATM    5  C10 UNL     1      27.733   6.621  48.553  1.00  0.00     0.123 A 
HETATM    6  F1  UNL     1      28.463   5.526  48.683  1.00  0.00    -0.206 F 
HETATM    7  C11 UNL     1      28.346   7.944  48.415  1.00  0.00     0.043 A 
HETATM    8  C12 UNL     1      27.468   8.922  48.222  1.00  0.00     0.004 A 
HETATM    9  C13 UNL     1      26.100   8.971  48.124  1.00  0.00     0.010 A 
HETATM   10  C14 UNL     1      25.505   7.700  48.263  1.00  0.00    -0.025 A 
HETATM   11  C15 UNL     1      24.017   7.911  48.090  1.00  0.00     0.207 C 
HETATM   12  O1  UNL     1      23.649   8.815  49.143  1.00  0.00    -0.382 OA
HETATM   13  C16 UNL     1      24.024   8.142  50.293  1.00  0.00     0.202 C 
HETATM   14  C17 UNL     1      23.057   7.022  50.566  1.00  0.00    -0.059 C 
HETATM   15  C18 UNL     1      21.645   7.423  50.818  1.00  0.00     0.046 C 
HETATM   16  C19 UNL     1      23.576   5.843  50.542  1.00  0.00     0.030 C 
ENDROOT
BRANCH   1  17
HETATM   17  N2  UNL     1      24.173   3.657  51.346  1.00  0.00    -0.259 NA
HETATM   18  H8  UNL     1      25.214   3.486  51.536  1.00  0.00     0.133 HD
BRANCH  17  19
HETATM   19  C5  UNL     1      24.235   2.653  52.245  1.00  0.00     0.031 A 
HETATM   20  C4  UNL     1      24.300   1.564  53.214  1.00  0.00     0.202 A 
HETATM   21  N1  UNL     1      23.340   0.674  53.033  1.00  0.00    -0.287 NA
HETATM   22  C3  UNL     1      22.445   0.509  52.291  1.00  0.00     0.049 A 
HETATM   23  C20 UNL     1      23.132   1.908  51.781  1.00  0.00     0.062 A 
BRANCH  22  24
HETATM   24  C2  UNL     1      21.253   0.200  51.381  1.00  0.00     0.056 C 
HETATM   25  C1  UNL     1      20.090   0.128  52.340  1.00  0.00     0.011 C 
ENDBRANCH  22  24
BRANCH  23  26
HETATM   26  C21 UNL     1      22.262   2.480  50.449  1.00  0.00    -0.040 C 
HETATM   27  C22 UNL     1      21.638   2.869  49.533  1.00  0.00     0.014 C 
BRANCH  27  28
HETATM   28  N4  UNL     1      20.875   3.362  48.443  1.00  0.00    -0.337 N 
HETATM   29  C23 UNL     1      19.492   3.669  48.727  1.00  0.00     0.159 C 
HETATM   30  C24 UNL     1      18.650   3.271  47.563  1.00  0.00     0.188 C 
HETATM   31  O2  UNL     1      19.284   3.155  46.386  1.00  0.00    -0.388 OA
HETATM   32  C25 UNL     1      20.484   3.743  46.160  1.00  0.00     0.188 C 
HETATM   33  C26 UNL     1      21.565   3.513  47.182  1.00  0.00     0.159 C 
ENDBRANCH  27  28
ENDBRANCH  23  26
ENDBRANCH  17  19
ENDBRANCH   1  17
BRANCH   2  34
HETATM   34  N3  UNL     1      26.896   3.943  50.173  1.00  0.00    -0.401 N 
HETATM   35  H9  UNL     1      26.843   2.900  50.071  1.00  0.00     0.156 HD
HETATM   36  H10 UNL     1      27.799   4.425  50.472  1.00  0.00     0.156 HD
ENDBRANCH   2  34
TORSDOF 6
ENDMDL
MODEL 7
REMARK VINA RESULT:      -7.4      3.353      7.389
REMARK  6 active torsions:
REMARK  status: ('A' for Active; 'I' for Inactive)
REMARK    1  A    between atoms: C2_2  and  C3_3 
REMARK    2  A    between atoms: C5_6  and  N2_7 
REMARK    3  A    between atoms: N2_7  and  C6_8 
REMARK    4  A    between atoms: C7_9  and  N3_10 
REMARK    5  A    between atoms: C20_25  and  C21_26 
REMARK    6  A    between atoms: C22_27  and  N4_28 
ROOT
HETATM    1  C6  UNL     1      19.929   2.957  51.537  1.00  0.00     0.035 C 
HETATM    2  C7  UNL     1      19.990   1.707  51.986  1.00  0.00     0.029 C 
HETATM    3  C8  UNL     1      21.206   1.115  51.304  1.00  0.00     0.100 C 
HETATM    4  C9  UNL     1      22.383   0.745  52.065  1.00  0.00    -0.005 A 
HETATM    5  C10 UNL     1      22.234  -0.311  52.962  1.00  0.00     0.123 A 
HETATM    6  F1  UNL     1      21.145  -1.052  53.070  1.00  0.00    -0.206 F 
HETATM    7  C11 UNL     1      23.436  -0.590  53.751  1.00  0.00     0.043 A 
HETATM    8  C12 UNL     1      24.460   0.207  53.464  1.00  0.00     0.004 A 
HETATM    9  C13 UNL     1      24.643   1.247  52.587  1.00  0.00     0.010 A 
HETATM   10  C14 UNL     1      23.486   1.524  51.831  1.00  0.00    -0.025 A 
HETATM   11  C15 UNL     1      23.856   2.651  50.892  1.00  0.00     0.207 C 
HETATM   12  O1  UNL     1      24.232   3.738  51.753  1.00  0.00    -0.382 OA
HETATM   13  C16 UNL     1      23.097   3.950  52.519  1.00  0.00     0.202 C 
HETATM   14  C17 UNL     1      22.043   4.631  51.689  1.00  0.00    -0.059 C 
HETATM   15  C18 UNL     1      22.392   5.981  51.165  1.00  0.00     0.046 C 
HETATM   16  C19 UNL     1      20.961   3.951  51.529  1.00  0.00     0.030 C 
ENDROOT
BRANCH   1  17
HETATM   17  N2  UNL     1      18.607   3.464  51.602  1.00  0.00    -0.259 NA
HETATM   18  H8  UNL     1      18.342   2.814  52.413  1.00  0.00     0.133 HD
BRANCH  17  19
HETATM   19  C5  UNL     1      17.322   3.742  51.908  1.00  0.00     0.031 A 
HETATM   20  C4  UNL     1      15.933   4.042  52.235  1.00  0.00     0.202 A 
HETATM   21  N1  UNL     1      15.195   4.241  51.156  1.00  0.00    -0.287 NA
HETATM   22  C3  UNL     1      15.350   4.234  49.993  1.00  0.00     0.049 A 
HETATM   23  C20 UNL     1      16.834   3.880  50.593  1.00  0.00     0.062 A 
BRANCH  22  24
HETATM   24  C2  UNL     1      15.442   4.250  48.464  1.00  0.00     0.056 C 
HETATM   25  C1  UNL     1      14.730   5.525  48.084  1.00  0.00     0.011 C 
ENDBRANCH  22  24
BRANCH  23  26
HETATM   26  C21 UNL     1      17.902   3.672  49.300  1.00  0.00    -0.040 C 
HETATM   27  C22 UNL     1      18.659   3.544  48.410  1.00  0.00     0.014 C 
BRANCH  27  28
HETATM   28  N4  UNL     1      19.590   3.373  47.353  1.00  0.00    -0.337 N 
HETATM   29  C23 UNL     1      20.793   2.643  47.682  1.00  0.00     0.159 C 
HETATM   30  C24 UNL     1      21.953   3.263  46.981  1.00  0.00     0.188 C 
HETATM   31  O2  UNL     1      21.664   4.009  45.904  1.00  0.00    -0.388 OA
HETATM   32  C25 UNL     1      20.486   3.886  45.245  1.00  0.00     0.188 C 
HETATM   33  C26 UNL     1      19.229   3.933  46.071  1.00  0.00     0.159 C 
ENDBRANCH  27  28
ENDBRANCH  23  26
ENDBRANCH  17  19
ENDBRANCH   1  17
BRANCH   2  34
HETATM   34  N3  UNL     1      19.184   0.698  52.544  1.00  0.00    -0.401 N 
HETATM   35  H9  UNL     1      19.500  -0.294  52.418  1.00  0.00     0.156 HD
HETATM   36  H10 UNL     1      18.248   0.927  53.004  1.00  0.00     0.156 HD
ENDBRANCH   2  34
TORSDOF 6
ENDMDL
MODEL 8
REMARK VINA RESULT:      -7.4      3.978      7.270
REMARK  6 active torsions:
REMARK  status: ('A' for Active; 'I' for Inactive)
REMARK    1  A    between atoms: C2_2  and  C3_3 
REMARK    2  A    between atoms: C5_6  and  N2_7 
REMARK    3  A    between atoms: N2_7  and  C6_8 
REMARK    4  A    between atoms: C7_9  and  N3_10 
REMARK    5  A    between atoms: C20_25  and  C21_26 
REMARK    6  A    between atoms: C22_27  and  N4_28 
ROOT
HETATM    1  C6  UNL     1      22.036   6.143  49.313  1.00  0.00     0.035 C 
HETATM    2  C7  UNL     1      22.510   6.160  50.555  1.00  0.00     0.029 C 
HETATM    3  C8  UNL     1      21.876   4.958  51.223  1.00  0.00     0.100 C 
HETATM    4  C9  UNL     1      22.678   3.824  51.637  1.00  0.00    -0.005 A 
HETATM    5  C10 UNL     1      23.591   4.053  52.665  1.00  0.00     0.123 A 
HETATM    6  F1  UNL     1      23.683   5.182  53.346  1.00  0.00    -0.206 F 
HETATM    7  C11 UNL     1      24.420   2.889  52.989  1.00  0.00     0.043 A 
HETATM    8  C12 UNL     1      24.148   1.818  52.252  1.00  0.00     0.004 A 
HETATM    9  C13 UNL     1      23.256   1.556  51.242  1.00  0.00     0.010 A 
HETATM   10  C14 UNL     1      22.461   2.675  50.922  1.00  0.00    -0.025 A 
HETATM   11  C15 UNL     1      21.511   2.221  49.835  1.00  0.00     0.207 C 
HETATM   12  O1  UNL     1      22.361   1.813  48.751  1.00  0.00    -0.382 OA
HETATM   13  C16 UNL     1      23.089   2.956  48.465  1.00  0.00     0.202 C 
HETATM   14  C17 UNL     1      22.216   3.949  47.748  1.00  0.00    -0.059 C 
HETATM   15  C18 UNL     1      21.676   3.515  46.429  1.00  0.00     0.046 C 
HETATM   16  C19 UNL     1      22.038   5.061  48.374  1.00  0.00     0.030 C 
ENDROOT
BRANCH   1  17
HETATM   17  N2  UNL     1      22.052   7.438  48.737  1.00  0.00    -0.259 NA
HETATM   18  H8  UNL     1      20.984   7.526  48.779  1.00  0.00     0.133 HD
BRANCH  17  19
HETATM   19  C5  UNL     1      21.750   8.653  48.232  1.00  0.00     0.031 A 
HETATM   20  C4  UNL     1      21.427   9.966  47.685  1.00  0.00     0.202 A 
HETATM   21  N1  UNL     1      22.506  10.630  47.307  1.00  0.00    -0.287 NA
HETATM   22  C3  UNL     1      23.665  10.448  47.280  1.00  0.00     0.049 A 
HETATM   23  C20 UNL     1      23.062   9.069  47.928  1.00  0.00     0.062 A 
BRANCH  22  24
HETATM   24  C2  UNL     1      25.188  10.315  47.201  1.00  0.00     0.056 C 
HETATM   25  C1  UNL     1      25.473  10.419  45.723  1.00  0.00     0.011 C 
ENDBRANCH  22  24
BRANCH  23  26
HETATM   26  C21 UNL     1      24.348   8.026  48.268  1.00  0.00    -0.040 C 
HETATM   27  C22 UNL     1      25.241   7.308  48.526  1.00  0.00     0.014 C 
BRANCH  27  28
HETATM   28  N4  UNL     1      26.301   6.423  48.850  1.00  0.00    -0.337 N 
HETATM   29  C23 UNL     1      27.637   6.950  48.691  1.00  0.00     0.159 C 
HETATM   30  C24 UNL     1      28.528   5.883  48.152  1.00  0.00     0.188 C 
HETATM   31  O2  UNL     1      28.116   4.619  48.336  1.00  0.00    -0.388 OA
HETATM   32  C25 UNL     1      27.201   4.297  49.282  1.00  0.00     0.188 C 
HETATM   33  C26 UNL     1      25.930   5.105  49.311  1.00  0.00     0.159 C 
ENDBRANCH  27  28
ENDBRANCH  23  26
ENDBRANCH  17  19
ENDBRANCH   1  17
BRANCH   2  34
HETATM   34  N3  UNL     1      23.065   7.033  51.509  1.00  0.00    -0.401 N 
HETATM   35  H9  UNL     1      22.487   7.861  51.795  1.00  0.00     0.156 HD
HETATM   36  H10 UNL     1      24.063   6.906  51.863  1.00  0.00     0.156 HD
ENDBRANCH   2  34
TORSDOF 6
ENDMDL
MODEL 9
REMARK VINA RESULT:      -7.3      7.459     11.947
REMARK  6 active torsions:
REMARK  status: ('A' for Active; 'I' for Inactive)
REMARK    1  A    between atoms: C2_2  and  C3_3 
REMARK    2  A    between atoms: C5_6  and  N2_7 
REMARK    3  A    between atoms: N2_7  and  C6_8 
REMARK    4  A    between atoms: C7_9  and  N3_10 
REMARK    5  A    between atoms: C20_25  and  C21_26 
REMARK    6  A    between atoms: C22_27  and  N4_28 
ROOT
HETATM    1  C6  UNL     1      29.120   6.997  47.220  1.00  0.00     0.035 C 
HETATM    2  C7  UNL     1      30.254   7.086  47.908  1.00  0.00     0.029 C 
HETATM    3  C8  UNL     1      31.343   7.053  46.856  1.00  0.00     0.100 C 
HETATM    4  C9  UNL     1      32.176   8.214  46.607  1.00  0.00    -0.005 A 
HETATM    5  C10 UNL     1      33.030   8.597  47.639  1.00  0.00     0.123 A 
HETATM    6  F1  UNL     1      33.207   7.912  48.756  1.00  0.00    -0.206 F 
HETATM    7  C11 UNL     1      33.792   9.815  47.354  1.00  0.00     0.043 A 
HETATM    8  C12 UNL     1      33.540  10.334  46.157  1.00  0.00     0.004 A 
HETATM    9  C13 UNL     1      32.715   9.982  45.118  1.00  0.00     0.010 A 
HETATM   10  C14 UNL     1      31.975   8.814  45.391  1.00  0.00    -0.025 A 
HETATM   11  C15 UNL     1      31.156   8.534  44.150  1.00  0.00     0.207 C 
HETATM   12  O1  UNL     1      30.325   9.694  43.989  1.00  0.00    -0.382 OA
HETATM   13  C16 UNL     1      29.610   9.747  45.174  1.00  0.00     0.202 C 
HETATM   14  C17 UNL     1      28.555   8.674  45.179  1.00  0.00    -0.059 C 
HETATM   15  C18 UNL     1      27.516   8.771  44.116  1.00  0.00     0.046 C 
HETATM   16  C19 UNL     1      28.688   7.792  46.110  1.00  0.00     0.030 C 
ENDROOT
BRANCH   1  17
HETATM   17  N2  UNL     1      28.077   6.455  48.012  1.00  0.00    -0.259 NA
HETATM   18  H8  UNL     1      28.338   5.446  47.756  1.00  0.00     0.133 HD
BRANCH  17  19
HETATM   19  C5  UNL     1      27.207   5.659  48.669  1.00  0.00     0.031 A 
HETATM   20  C4  UNL     1      26.264   4.803  49.379  1.00  0.00     0.202 A 
HETATM   21  N1  UNL     1      25.352   5.498  50.036  1.00  0.00    -0.287 NA
HETATM   22  C3  UNL     1      25.082   6.629  50.199  1.00  0.00     0.049 A 
HETATM   23  C20 UNL     1      26.400   6.672  49.225  1.00  0.00     0.062 A 
BRANCH  22  24
HETATM   24  C2  UNL     1      24.644   8.069  50.478  1.00  0.00     0.056 C 
HETATM   25  C1  UNL     1      23.181   8.069  50.106  1.00  0.00     0.011 C 
ENDBRANCH  22  24
BRANCH  23  26
HETATM   26  C21 UNL     1      26.778   8.287  48.902  1.00  0.00    -0.040 C 
HETATM   27  C22 UNL     1      27.019   9.412  48.667  1.00  0.00     0.014 C 
BRANCH  27  28
HETATM   28  N4  UNL     1      27.294  10.779  48.405  1.00  0.00    -0.337 N 
HETATM   29  C23 UNL     1      28.683  11.172  48.482  1.00  0.00     0.159 C 
HETATM   30  C24 UNL     1      28.780  12.525  49.099  1.00  0.00     0.188 C 
HETATM   31  O2  UNL     1      27.672  13.280  49.045  1.00  0.00    -0.388 OA
HETATM   32  C25 UNL     1      26.680  13.032  48.156  1.00  0.00     0.188 C 
HETATM   33  C26 UNL     1      26.165  11.620  48.079  1.00  0.00     0.159 C 
ENDBRANCH  27  28
ENDBRANCH  23  26
ENDBRANCH  17  19
ENDBRANCH   1  17
BRANCH   2  34
HETATM   34  N3  UNL     1      30.784   6.852  49.191  1.00  0.00    -0.401 N 
HETATM   35  H9  UNL     1      30.594   7.574  49.927  1.00  0.00     0.156 HD
HETATM   36  H10 UNL     1      31.420   6.018  49.384  1.00  0.00     0.156 HD
ENDBRANCH   2  34
TORSDOF 6
ENDMDL
