MODEL 1
REMARK VINA RESULT:      -8.9      0.000      0.000
REMARK  4 active torsions:
REMARK  status: ('A' for Active; 'I' for Inactive)
REMARK    1  A    between atoms: C7_7  and  O1_8 
REMARK    2  A    between atoms: O1_8  and  C8_9 
REMARK    3  A    between atoms: C12_14  and  C13_15 
REMARK    4  A    between atoms: C16_19  and  N3_20 
ROOT
HETATM    1  C1  UNL     1      29.033  -2.986  53.203  1.00  0.00     0.097 C 
HETATM    2  C2  UNL     1      28.619  -1.750  53.199  1.00  0.00    -0.144 C 
HETATM    3  C3  UNL     1      28.060  -0.558  53.347  1.00  0.00     0.022 C 
HETATM    4  C4  UNL     1      26.701  -0.527  52.899  1.00  0.00     0.046 C 
HETATM    5  C5  UNL     1      26.032   0.598  52.612  1.00  0.00     0.044 A 
HETATM    6  C6  UNL     1      24.622   0.615  52.148  1.00  0.00     0.147 A 
HETATM    7  C7  UNL     1      24.391   2.090  51.984  1.00  0.00     0.173 A 
HETATM    8  N5  UNL     1      25.432   2.785  52.283  1.00  0.00    -0.146 NA
HETATM    9  N6  UNL     1      26.478   1.953  52.676  1.00  0.00    -0.247 N 
HETATM   10  C18 UNL     1      27.737   2.482  53.055  1.00  0.00     0.117 C 
HETATM   11  C19 UNL     1      28.716   1.749  53.558  1.00  0.00     0.034 C 
HETATM   12  C20 UNL     1      29.028   0.349  53.929  1.00  0.00     0.235 C 
HETATM   13  F1  UNL     1      28.857   0.288  55.319  1.00  0.00    -0.239 F 
ENDROOT
BRANCH   7  14
HETATM   14  O1  UNL     1      23.224   2.714  51.564  1.00  0.00    -0.274 OA
BRANCH  14  15
HETATM   15  C8  UNL     1      22.752   2.534  50.271  1.00  0.00     0.183 A 
HETATM   16  N1  UNL     1      22.023   1.443  49.948  1.00  0.00    -0.236 NA
HETATM   17  C9  UNL     1      21.528   1.180  48.745  1.00  0.00     0.119 A 
HETATM   18  C10 UNL     1      21.797   2.117  47.772  1.00  0.00     0.020 A 
HETATM   19  C11 UNL     1      22.532   3.251  48.036  1.00  0.00     0.020 A 
HETATM   20  C12 UNL     1      23.036   3.498  49.297  1.00  0.00     0.047 A 
BRANCH  20  21
HETATM   21  C13 UNL     1      23.826   4.650  49.718  1.00  0.00     0.091 A 
HETATM   22  C14 UNL     1      23.306   5.599  50.574  1.00  0.00     0.053 A 
HETATM   23  C15 UNL     1      24.010   6.722  51.013  1.00  0.00     0.139 A 
HETATM   24  N2  UNL     1      25.287   6.860  50.550  1.00  0.00    -0.075 NA
HETATM   25  C16 UNL     1      25.771   5.930  49.724  1.00  0.00     0.722 A 
HETATM   26  N4  UNL     1      25.091   4.851  49.302  1.00  0.00    -0.062 NA
BRANCH  25  27
HETATM   27  N3  UNL     1      27.104   6.089  49.250  1.00  0.00    -0.227 N 
HETATM   28  C17 UNL     1      27.751   4.956  48.634  1.00  0.00     0.165 C 
HETATM   29  H11 UNL     1      27.633   6.989  49.327  1.00  0.00     0.177 HD
ENDBRANCH  25  27
ENDBRANCH  20  21
ENDBRANCH  14  15
ENDBRANCH   7  14
TORSDOF 4
ENDMDL
MODEL 2
REMARK VINA RESULT:      -8.6      1.708      2.253
REMARK  4 active torsions:
REMARK  status: ('A' for Active; 'I' for Inactive)
REMARK    1  A    between atoms: C7_7  and  O1_8 
REMARK    2  A    between atoms: O1_8  and  C8_9 
REMARK    3  A    between atoms: C12_14  and  C13_15 
REMARK    4  A    between atoms: C16_19  and  N3_20 
ROOT
HETATM    1  C1  UNL     1      29.781  -0.516  53.339  1.00  0.00     0.097 C 
HETATM    2  C2  UNL     1      28.501  -0.323  53.183  1.00  0.00    -0.144 C 
HETATM    3  C3  UNL     1      27.242  -0.139  52.815  1.00  0.00     0.022 C 
HETATM    4  C4  UNL     1      27.040   1.109  52.144  1.00  0.00     0.046 C 
HETATM    5  C5  UNL     1      25.843   1.689  51.987  1.00  0.00     0.044 A 
HETATM    6  C6  UNL     1      25.649   2.984  51.288  1.00  0.00     0.147 A 
HETATM    7  C7  UNL     1      24.160   3.152  51.401  1.00  0.00     0.173 A 
HETATM    8  N5  UNL     1      23.604   2.175  52.027  1.00  0.00    -0.146 NA
HETATM    9  N6  UNL     1      24.559   1.239  52.419  1.00  0.00    -0.247 N 
HETATM   10  C18 UNL     1      24.195   0.067  53.128  1.00  0.00     0.117 C 
HETATM   11  C19 UNL     1      25.040  -0.910  53.408  1.00  0.00     0.034 C 
HETATM   12  C20 UNL     1      26.460  -1.289  53.219  1.00  0.00     0.235 C 
HETATM   13  F1  UNL     1      26.463  -2.184  52.139  1.00  0.00    -0.239 F 
ENDROOT
BRANCH   7  14
HETATM   14  O1  UNL     1      23.397   4.205  50.917  1.00  0.00    -0.274 OA
BRANCH  14  15
HETATM   15  C8  UNL     1      22.844   4.152  49.644  1.00  0.00     0.183 A 
HETATM   16  N1  UNL     1      21.915   3.221  49.335  1.00  0.00    -0.236 NA
HETATM   17  C9  UNL     1      21.328   3.087  48.151  1.00  0.00     0.119 A 
HETATM   18  C10 UNL     1      21.721   3.988  47.186  1.00  0.00     0.020 A 
HETATM   19  C11 UNL     1      22.663   4.960  47.437  1.00  0.00     0.020 A 
HETATM   20  C12 UNL     1      23.257   5.075  48.678  1.00  0.00     0.047 A 
BRANCH  20  21
HETATM   21  C13 UNL     1      24.263   6.051  49.083  1.00  0.00     0.091 A 
HETATM   22  C14 UNL     1      23.908   7.215  49.734  1.00  0.00     0.053 A 
HETATM   23  C15 UNL     1      24.822   8.187  50.147  1.00  0.00     0.139 A 
HETATM   24  N2  UNL     1      26.136   7.940  49.877  1.00  0.00    -0.075 NA
HETATM   25  C16 UNL     1      26.458   6.809  49.247  1.00  0.00     0.722 A 
HETATM   26  N4  UNL     1      25.577   5.876  48.849  1.00  0.00    -0.062 NA
BRANCH  25  27
HETATM   27  N3  UNL     1      27.834   6.568  48.972  1.00  0.00    -0.227 N 
HETATM   28  C17 UNL     1      28.214   5.272  48.465  1.00  0.00     0.165 C 
HETATM   29  H11 UNL     1      28.580   7.289  49.119  1.00  0.00     0.177 HD
ENDBRANCH  25  27
ENDBRANCH  20  21
ENDBRANCH  14  15
ENDBRANCH   7  14
TORSDOF 4
ENDMDL
MODEL 3
REMARK VINA RESULT:      -8.5      2.654      6.571
REMARK  4 active torsions:
REMARK  status: ('A' for Active; 'I' for Inactive)
REMARK    1  A    between atoms: C7_7  and  O1_8 
REMARK    2  A    between atoms: O1_8  and  C8_9 
REMARK    3  A    between atoms: C12_14  and  C13_15 
REMARK    4  A    between atoms: C16_19  and  N3_20 
ROOT
HETATM    1  C1  UNL     1      28.177   8.239  46.865  1.00  0.00     0.097 C 
HETATM    2  C2  UNL     1      27.341   7.797  47.762  1.00  0.00    -0.144 C 
HETATM    3  C3  UNL     1      26.664   7.259  48.766  1.00  0.00     0.022 C 
HETATM    4  C4  UNL     1      26.643   5.829  48.714  1.00  0.00     0.046 C 
HETATM    5  C5  UNL     1      25.764   5.069  49.379  1.00  0.00     0.044 A 
HETATM    6  C6  UNL     1      25.754   3.586  49.316  1.00  0.00     0.147 A 
HETATM    7  C7  UNL     1      24.600   3.266  50.223  1.00  0.00     0.173 A 
HETATM    8  N5  UNL     1      24.053   4.325  50.710  1.00  0.00    -0.146 NA
HETATM    9  N6  UNL     1      24.702   5.467  50.246  1.00  0.00    -0.247 N 
HETATM   10  C18 UNL     1      24.284   6.763  50.640  1.00  0.00     0.117 C 
HETATM   11  C19 UNL     1      24.942   7.868  50.334  1.00  0.00     0.034 C 
HETATM   12  C20 UNL     1      26.155   8.319  49.612  1.00  0.00     0.235 C 
HETATM   13  F1  UNL     1      27.116   8.542  50.608  1.00  0.00    -0.239 F 
ENDROOT
BRANCH   7  14
HETATM   14  O1  UNL     1      24.115   2.007  50.550  1.00  0.00    -0.274 OA
BRANCH  14  15
HETATM   15  C8  UNL     1      22.972   1.869  51.327  1.00  0.00     0.183 A 
HETATM   16  N1  UNL     1      21.760   2.207  50.835  1.00  0.00    -0.236 NA
HETATM   17  C9  UNL     1      20.612   2.113  51.494  1.00  0.00     0.119 A 
HETATM   18  C10 UNL     1      20.701   1.627  52.780  1.00  0.00     0.020 A 
HETATM   19  C11 UNL     1      21.906   1.264  53.340  1.00  0.00     0.020 A 
HETATM   20  C12 UNL     1      23.084   1.373  52.630  1.00  0.00     0.047 A 
BRANCH  20  21
HETATM   21  C13 UNL     1      24.424   1.028  53.093  1.00  0.00     0.091 A 
HETATM   22  C14 UNL     1      24.804  -0.287  53.265  1.00  0.00     0.053 A 
HETATM   23  C15 UNL     1      26.069  -0.682  53.705  1.00  0.00     0.139 A 
HETATM   24  N2  UNL     1      26.960   0.317  53.972  1.00  0.00    -0.075 NA
HETATM   25  C16 UNL     1      26.572   1.582  53.798  1.00  0.00     0.722 A 
HETATM   26  N4  UNL     1      25.354   1.959  53.376  1.00  0.00    -0.062 NA
BRANCH  25  27
HETATM   27  N3  UNL     1      27.514   2.612  54.082  1.00  0.00    -0.227 N 
HETATM   28  C17 UNL     1      28.915   2.333  53.878  1.00  0.00     0.165 C 
HETATM   29  H11 UNL     1      27.235   3.559  54.430  1.00  0.00     0.177 HD
ENDBRANCH  25  27
ENDBRANCH  20  21
ENDBRANCH  14  15
ENDBRANCH   7  14
TORSDOF 4
ENDMDL
MODEL 4
REMARK VINA RESULT:      -8.4      2.989      7.106
REMARK  4 active torsions:
REMARK  status: ('A' for Active; 'I' for Inactive)
REMARK    1  A    between atoms: C7_7  and  O1_8 
REMARK    2  A    between atoms: O1_8  and  C8_9 
REMARK    3  A    between atoms: C12_14  and  C13_15 
REMARK    4  A    between atoms: C16_19  and  N3_20 
ROOT
HETATM    1  C1  UNL     1      28.804   8.091  46.183  1.00  0.00     0.097 C 
HETATM    2  C2  UNL     1      28.043   7.724  47.176  1.00  0.00    -0.144 C 
HETATM    3  C3  UNL     1      27.451   7.285  48.277  1.00  0.00     0.022 C 
HETATM    4  C4  UNL     1      27.511   5.861  48.404  1.00  0.00     0.046 C 
HETATM    5  C5  UNL     1      26.713   5.147  49.210  1.00  0.00     0.044 A 
HETATM    6  C6  UNL     1      26.787   3.670  49.332  1.00  0.00     0.147 A 
HETATM    7  C7  UNL     1      25.702   3.409  50.338  1.00  0.00     0.173 A 
HETATM    8  N5  UNL     1      25.120   4.492  50.721  1.00  0.00    -0.146 NA
HETATM    9  N6  UNL     1      25.676   5.598  50.081  1.00  0.00    -0.247 N 
HETATM   10  C18 UNL     1      25.204   6.910  50.334  1.00  0.00     0.117 C 
HETATM   11  C19 UNL     1      25.779   7.999  49.855  1.00  0.00     0.034 C 
HETATM   12  C20 UNL     1      26.925   8.416  49.013  1.00  0.00     0.235 C 
HETATM   13  F1  UNL     1      27.921   8.814  49.915  1.00  0.00    -0.239 F 
ENDROOT
BRANCH   7  14
HETATM   14  O1  UNL     1      25.309   2.180  50.848  1.00  0.00    -0.274 OA
BRANCH  14  15
HETATM   15  C8  UNL     1      25.907   1.663  51.989  1.00  0.00     0.183 A 
HETATM   16  N1  UNL     1      27.251   1.668  52.126  1.00  0.00    -0.236 NA
HETATM   17  C9  UNL     1      27.917   1.199  53.175  1.00  0.00     0.119 A 
HETATM   18  C10 UNL     1      27.143   0.674  54.186  1.00  0.00     0.020 A 
HETATM   19  C11 UNL     1      25.768   0.639  54.108  1.00  0.00     0.020 A 
HETATM   20  C12 UNL     1      25.103   1.134  53.005  1.00  0.00     0.047 A 
BRANCH  20  21
HETATM   21  C13 UNL     1      23.660   1.162  52.788  1.00  0.00     0.091 A 
HETATM   22  C14 UNL     1      22.928  -0.005  52.705  1.00  0.00     0.053 A 
HETATM   23  C15 UNL     1      21.547  -0.045  52.499  1.00  0.00     0.139 A 
HETATM   24  N2  UNL     1      20.915   1.158  52.377  1.00  0.00    -0.075 NA
HETATM   25  C16 UNL     1      21.642   2.274  52.461  1.00  0.00     0.722 A 
HETATM   26  N4  UNL     1      22.970   2.310  52.658  1.00  0.00    -0.062 NA
BRANCH  25  27
HETATM   27  N3  UNL     1      20.966   3.520  52.331  1.00  0.00    -0.227 N 
HETATM   28  C17 UNL     1      21.605   4.570  51.574  1.00  0.00     0.165 C 
HETATM   29  H11 UNL     1      20.028   3.708  52.757  1.00  0.00     0.177 HD
ENDBRANCH  25  27
ENDBRANCH  20  21
ENDBRANCH  14  15
ENDBRANCH   7  14
TORSDOF 4
ENDMDL
MODEL 5
REMARK VINA RESULT:      -8.3      2.366      3.614
REMARK  4 active torsions:
REMARK  status: ('A' for Active; 'I' for Inactive)
REMARK    1  A    between atoms: C7_7  and  O1_8 
REMARK    2  A    between atoms: O1_8  and  C8_9 
REMARK    3  A    between atoms: C12_14  and  C13_15 
REMARK    4  A    between atoms: C16_19  and  N3_20 
ROOT
HETATM    1  C1  UNL     1      29.017  -2.752  53.099  1.00  0.00     0.097 C 
HETATM    2  C2  UNL     1      28.466  -1.574  53.196  1.00  0.00    -0.144 C 
HETATM    3  C3  UNL     1      27.803  -0.459  53.464  1.00  0.00     0.022 C 
HETATM    4  C4  UNL     1      26.395  -0.587  53.238  1.00  0.00     0.046 C 
HETATM    5  C5  UNL     1      25.563   0.453  53.092  1.00  0.00     0.044 A 
HETATM    6  C6  UNL     1      24.105   0.305  52.858  1.00  0.00     0.147 A 
HETATM    7  C7  UNL     1      23.679   1.744  52.774  1.00  0.00     0.173 A 
HETATM    8  N5  UNL     1      24.667   2.555  52.925  1.00  0.00    -0.146 NA
HETATM    9  N6  UNL     1      25.852   1.851  53.123  1.00  0.00    -0.247 N 
HETATM   10  C18 UNL     1      27.085   2.523  53.313  1.00  0.00     0.117 C 
HETATM   11  C19 UNL     1      28.211   1.908  53.633  1.00  0.00     0.034 C 
HETATM   12  C20 UNL     1      28.739   0.552  53.911  1.00  0.00     0.235 C 
HETATM   13  F1  UNL     1      28.802   0.459  55.309  1.00  0.00    -0.239 F 
ENDROOT
BRANCH   7  14
HETATM   14  O1  UNL     1      22.395   2.227  52.562  1.00  0.00    -0.274 OA
BRANCH  14  15
HETATM   15  C8  UNL     1      21.311   1.360  52.522  1.00  0.00     0.183 A 
HETATM   16  N1  UNL     1      20.932   0.678  53.625  1.00  0.00    -0.236 NA
HETATM   17  C9  UNL     1      19.914  -0.171  53.689  1.00  0.00     0.119 A 
HETATM   18  C10 UNL     1      19.208  -0.344  52.519  1.00  0.00     0.020 A 
HETATM   19  C11 UNL     1      19.541   0.322  51.361  1.00  0.00     0.020 A 
HETATM   20  C12 UNL     1      20.607   1.199  51.324  1.00  0.00     0.047 A 
BRANCH  20  21
HETATM   21  C13 UNL     1      21.072   1.968  50.174  1.00  0.00     0.091 A 
HETATM   22  C14 UNL     1      21.850   1.387  49.194  1.00  0.00     0.053 A 
HETATM   23  C15 UNL     1      22.326   2.069  48.072  1.00  0.00     0.139 A 
HETATM   24  N2  UNL     1      21.983   3.386  47.968  1.00  0.00    -0.075 NA
HETATM   25  C16 UNL     1      21.230   3.927  48.927  1.00  0.00     0.722 A 
HETATM   26  N4  UNL     1      20.774   3.270  50.006  1.00  0.00    -0.062 NA
BRANCH  25  27
HETATM   27  N3  UNL     1      20.883   5.302  48.804  1.00  0.00    -0.227 N 
HETATM   28  C17 UNL     1      21.615   6.266  49.591  1.00  0.00     0.165 C 
HETATM   29  H11 UNL     1      20.124   5.645  48.170  1.00  0.00     0.177 HD
ENDBRANCH  25  27
ENDBRANCH  20  21
ENDBRANCH  14  15
ENDBRANCH   7  14
TORSDOF 4
ENDMDL
MODEL 6
REMARK VINA RESULT:      -8.3      4.092      7.168
REMARK  4 active torsions:
REMARK  status: ('A' for Active; 'I' for Inactive)
REMARK    1  A    between atoms: C7_7  and  O1_8 
REMARK    2  A    between atoms: O1_8  and  C8_9 
REMARK    3  A    between atoms: C12_14  and  C13_15 
REMARK    4  A    between atoms: C16_19  and  N3_20 
ROOT
HETATM    1  C1  UNL     1      16.233  -0.367  49.287  1.00  0.00     0.097 C 
HETATM    2  C2  UNL     1      16.999  -0.485  50.336  1.00  0.00    -0.144 C 
HETATM    3  C3  UNL     1      17.726  -0.400  51.440  1.00  0.00     0.022 C 
HETATM    4  C4  UNL     1      18.844   0.482  51.297  1.00  0.00     0.046 C 
HETATM    5  C5  UNL     1      19.908   0.479  52.112  1.00  0.00     0.044 A 
HETATM    6  C6  UNL     1      21.061   1.400  51.952  1.00  0.00     0.147 A 
HETATM    7  C7  UNL     1      21.932   0.973  53.099  1.00  0.00     0.173 A 
HETATM    8  N5  UNL     1      21.408   0.015  53.781  1.00  0.00    -0.146 NA
HETATM    9  N6  UNL     1      20.173  -0.346  53.246  1.00  0.00    -0.247 N 
HETATM   10  C18 UNL     1      19.396  -1.383  53.821  1.00  0.00     0.117 C 
HETATM   11  C19 UNL     1      18.167  -1.676  53.433  1.00  0.00     0.034 C 
HETATM   12  C20 UNL     1      17.137  -1.245  52.458  1.00  0.00     0.235 C 
HETATM   13  F1  UNL     1      16.248  -0.444  53.189  1.00  0.00    -0.239 F 
ENDROOT
BRANCH   7  14
HETATM   14  O1  UNL     1      23.168   1.496  53.453  1.00  0.00    -0.274 OA
BRANCH  14  15
HETATM   15  C8  UNL     1      24.341   0.869  53.056  1.00  0.00     0.183 A 
HETATM   16  N1  UNL     1      24.780  -0.239  53.693  1.00  0.00    -0.236 NA
HETATM   17  C9  UNL     1      25.885  -0.910  53.392  1.00  0.00     0.119 A 
HETATM   18  C10 UNL     1      26.618  -0.409  52.339  1.00  0.00     0.020 A 
HETATM   19  C11 UNL     1      26.225   0.716  51.648  1.00  0.00     0.020 A 
HETATM   20  C12 UNL     1      25.071   1.394  51.984  1.00  0.00     0.047 A 
BRANCH  20  21
HETATM   21  C13 UNL     1      24.537   2.591  51.344  1.00  0.00     0.091 A 
HETATM   22  C14 UNL     1      23.946   2.532  50.099  1.00  0.00     0.053 A 
HETATM   23  C15 UNL     1      23.417   3.640  49.434  1.00  0.00     0.139 A 
HETATM   24  N2  UNL     1      23.505   4.838  50.082  1.00  0.00    -0.075 NA
HETATM   25  C16 UNL     1      24.080   4.873  51.285  1.00  0.00     0.722 A 
HETATM   26  N4  UNL     1      24.589   3.806  51.922  1.00  0.00    -0.062 NA
BRANCH  25  27
HETATM   27  N3  UNL     1      24.164   6.131  51.946  1.00  0.00    -0.227 N 
HETATM   28  C17 UNL     1      23.802   7.317  51.209  1.00  0.00     0.165 C 
HETATM   29  H11 UNL     1      24.475   6.233  52.941  1.00  0.00     0.177 HD
ENDBRANCH  25  27
ENDBRANCH  20  21
ENDBRANCH  14  15
ENDBRANCH   7  14
TORSDOF 4
ENDMDL
MODEL 7
REMARK VINA RESULT:      -8.2      2.307      3.453
REMARK  4 active torsions:
REMARK  status: ('A' for Active; 'I' for Inactive)
REMARK    1  A    between atoms: C7_7  and  O1_8 
REMARK    2  A    between atoms: O1_8  and  C8_9 
REMARK    3  A    between atoms: C12_14  and  C13_15 
REMARK    4  A    between atoms: C16_19  and  N3_20 
ROOT
HETATM    1  C1  UNL     1      22.082  -1.455  54.658  1.00  0.00     0.097 C 
HETATM    2  C2  UNL     1      23.085  -0.878  54.058  1.00  0.00    -0.144 C 
HETATM    3  C3  UNL     1      24.085  -0.141  53.598  1.00  0.00     0.022 C 
HETATM    4  C4  UNL     1      23.646   1.113  53.066  1.00  0.00     0.046 C 
HETATM    5  C5  UNL     1      24.378   1.874  52.241  1.00  0.00     0.044 A 
HETATM    6  C6  UNL     1      23.910   3.173  51.697  1.00  0.00     0.147 A 
HETATM    7  C7  UNL     1      25.092   3.578  50.862  1.00  0.00     0.173 A 
HETATM    8  N5  UNL     1      26.042   2.711  50.906  1.00  0.00    -0.146 NA
HETATM    9  N6  UNL     1      25.689   1.640  51.724  1.00  0.00    -0.247 N 
HETATM   10  C18 UNL     1      26.570   0.551  51.934  1.00  0.00     0.117 C 
HETATM   11  C19 UNL     1      26.338  -0.422  52.799  1.00  0.00     0.034 C 
HETATM   12  C20 UNL     1      25.328  -0.859  53.791  1.00  0.00     0.235 C 
HETATM   13  F1  UNL     1      25.838  -0.464  55.036  1.00  0.00    -0.239 F 
ENDROOT
BRANCH   7  14
HETATM   14  O1  UNL     1      25.225   4.732  50.103  1.00  0.00    -0.274 OA
BRANCH  14  15
HETATM   15  C8  UNL     1      24.309   5.031  49.103  1.00  0.00     0.183 A 
HETATM   16  N1  UNL     1      23.361   4.138  48.747  1.00  0.00    -0.236 NA
HETATM   17  C9  UNL     1      22.443   4.327  47.807  1.00  0.00     0.119 A 
HETATM   18  C10 UNL     1      22.490   5.545  47.165  1.00  0.00     0.020 A 
HETATM   19  C11 UNL     1      23.431   6.499  47.481  1.00  0.00     0.020 A 
HETATM   20  C12 UNL     1      24.374   6.274  48.463  1.00  0.00     0.047 A 
BRANCH  20  21
HETATM   21  C13 UNL     1      25.424   7.189  48.900  1.00  0.00     0.091 A 
HETATM   22  C14 UNL     1      25.124   8.331  49.614  1.00  0.00     0.053 A 
HETATM   23  C15 UNL     1      26.081   9.245  50.059  1.00  0.00     0.139 A 
HETATM   24  N2  UNL     1      27.381   8.962  49.755  1.00  0.00    -0.075 NA
HETATM   25  C16 UNL     1      27.649   7.852  49.064  1.00  0.00     0.722 A 
HETATM   26  N4  UNL     1      26.726   6.975  48.635  1.00  0.00    -0.062 NA
BRANCH  25  27
HETATM   27  N3  UNL     1      29.010   7.573  48.754  1.00  0.00    -0.227 N 
HETATM   28  C17 UNL     1      29.985   8.620  48.948  1.00  0.00     0.165 C 
HETATM   29  H11 UNL     1      29.334   6.645  48.393  1.00  0.00     0.177 HD
ENDBRANCH  25  27
ENDBRANCH  20  21
ENDBRANCH  14  15
ENDBRANCH   7  14
TORSDOF 4
ENDMDL
MODEL 8
REMARK VINA RESULT:      -8.2      3.426      7.226
REMARK  4 active torsions:
REMARK  status: ('A' for Active; 'I' for Inactive)
REMARK    1  A    between atoms: C7_7  and  O1_8 
REMARK    2  A    between atoms: O1_8  and  C8_9 
REMARK    3  A    between atoms: C12_14  and  C13_15 
REMARK    4  A    between atoms: C16_19  and  N3_20 
ROOT
HETATM    1  C1  UNL     1      27.537  11.160  48.495  1.00  0.00     0.097 C 
HETATM    2  C2  UNL     1      27.806   9.892  48.355  1.00  0.00    -0.144 C 
HETATM    3  C3  UNL     1      27.902   8.597  48.091  1.00  0.00     0.022 C 
HETATM    4  C4  UNL     1      26.848   7.833  48.687  1.00  0.00     0.046 C 
HETATM    5  C5  UNL     1      26.898   6.507  48.873  1.00  0.00     0.044 A 
HETATM    6  C6  UNL     1      25.797   5.728  49.492  1.00  0.00     0.147 A 
HETATM    7  C7  UNL     1      26.369   4.339  49.451  1.00  0.00     0.173 A 
HETATM    8  N5  UNL     1      27.543   4.309  48.925  1.00  0.00    -0.146 NA
HETATM    9  N6  UNL     1      27.941   5.589  48.546  1.00  0.00    -0.247 N 
HETATM   10  C18 UNL     1      29.202   5.820  47.941  1.00  0.00     0.117 C 
HETATM   11  C19 UNL     1      29.573   6.988  47.447  1.00  0.00     0.034 C 
HETATM   12  C20 UNL     1      29.069   8.370  47.264  1.00  0.00     0.235 C 
HETATM   13  F1  UNL     1      28.640   8.433  45.930  1.00  0.00    -0.239 F 
ENDROOT
BRANCH   7  14
HETATM   14  O1  UNL     1      25.769   3.172  49.904  1.00  0.00    -0.274 OA
BRANCH  14  15
HETATM   15  C8  UNL     1      25.951   2.745  51.213  1.00  0.00     0.183 A 
HETATM   16  N1  UNL     1      27.135   2.230  51.611  1.00  0.00    -0.236 NA
HETATM   17  C9  UNL     1      27.409   1.795  52.835  1.00  0.00     0.119 A 
HETATM   18  C10 UNL     1      26.381   1.893  53.746  1.00  0.00     0.020 A 
HETATM   19  C11 UNL     1      25.151   2.409  53.404  1.00  0.00     0.020 A 
HETATM   20  C12 UNL     1      24.894   2.853  52.123  1.00  0.00     0.047 A 
BRANCH  20  21
HETATM   21  C13 UNL     1      23.646   3.419  51.622  1.00  0.00     0.091 A 
HETATM   22  C14 UNL     1      22.716   2.633  50.972  1.00  0.00     0.053 A 
HETATM   23  C15 UNL     1      21.505   3.114  50.471  1.00  0.00     0.139 A 
HETATM   24  N2  UNL     1      21.256   4.443  50.650  1.00  0.00    -0.075 NA
HETATM   25  C16 UNL     1      22.169   5.185  51.280  1.00  0.00     0.722 A 
HETATM   26  N4  UNL     1      23.334   4.721  51.761  1.00  0.00    -0.062 NA
BRANCH  25  27
HETATM   27  N3  UNL     1      21.894   6.570  51.457  1.00  0.00    -0.227 N 
HETATM   28  C17 UNL     1      22.225   7.477  50.384  1.00  0.00     0.165 C 
HETATM   29  H11 UNL     1      21.463   6.960  52.329  1.00  0.00     0.177 HD
ENDBRANCH  25  27
ENDBRANCH  20  21
ENDBRANCH  14  15
ENDBRANCH   7  14
TORSDOF 4
ENDMDL
MODEL 9
REMARK VINA RESULT:      -8.1      3.533      6.921
REMARK  4 active torsions:
REMARK  status: ('A' for Active; 'I' for Inactive)
REMARK    1  A    between atoms: C7_7  and  O1_8 
REMARK    2  A    between atoms: O1_8  and  C8_9 
REMARK    3  A    between atoms: C12_14  and  C13_15 
REMARK    4  A    between atoms: C16_19  and  N3_20 
ROOT
HETATM    1  C1  UNL     1      16.970  -0.323  50.673  1.00  0.00     0.097 C 
HETATM    2  C2  UNL     1      18.057  -0.349  51.393  1.00  0.00    -0.144 C 
HETATM    3  C3  UNL     1      19.087  -0.194  52.211  1.00  0.00     0.022 C 
HETATM    4  C4  UNL     1      19.887   0.946  51.882  1.00  0.00     0.046 C 
HETATM    5  C5  UNL     1      21.144   1.128  52.309  1.00  0.00     0.044 A 
HETATM    6  C6  UNL     1      21.961   2.317  51.960  1.00  0.00     0.147 A 
HETATM    7  C7  UNL     1      23.241   2.009  52.685  1.00  0.00     0.173 A 
HETATM    8  N5  UNL     1      23.187   0.890  53.319  1.00  0.00    -0.146 NA
HETATM    9  N6  UNL     1      21.943   0.288  53.142  1.00  0.00    -0.247 N 
HETATM   10  C18 UNL     1      21.636  -0.959  53.742  1.00  0.00     0.117 C 
HETATM   11  C19 UNL     1      20.434  -1.508  53.713  1.00  0.00     0.034 C 
HETATM   12  C20 UNL     1      19.068  -1.253  53.199  1.00  0.00     0.235 C 
HETATM   13  F1  UNL     1      18.343  -0.771  54.299  1.00  0.00    -0.239 F 
ENDROOT
BRANCH   7  14
HETATM   14  O1  UNL     1      24.391   2.785  52.720  1.00  0.00    -0.274 OA
BRANCH  14  15
HETATM   15  C8  UNL     1      24.982   3.228  51.544  1.00  0.00     0.183 A 
HETATM   16  N1  UNL     1      24.344   4.107  50.741  1.00  0.00    -0.236 NA
HETATM   17  C9  UNL     1      24.821   4.589  49.599  1.00  0.00     0.119 A 
HETATM   18  C10 UNL     1      26.070   4.136  49.238  1.00  0.00     0.020 A 
HETATM   19  C11 UNL     1      26.774   3.241  50.012  1.00  0.00     0.020 A 
HETATM   20  C12 UNL     1      26.252   2.755  51.194  1.00  0.00     0.047 A 
BRANCH  20  21
HETATM   21  C13 UNL     1      26.880   1.809  52.110  1.00  0.00     0.091 A 
HETATM   22  C14 UNL     1      27.794   2.229  53.054  1.00  0.00     0.053 A 
HETATM   23  C15 UNL     1      28.429   1.374  53.957  1.00  0.00     0.139 A 
HETATM   24  N2  UNL     1      28.105   0.051  53.875  1.00  0.00    -0.075 NA
HETATM   25  C16 UNL     1      27.219  -0.334  52.954  1.00  0.00     0.722 A 
HETATM   26  N4  UNL     1      26.610   0.490  52.086  1.00  0.00    -0.062 NA
BRANCH  25  27
HETATM   27  N3  UNL     1      26.893  -1.717  52.881  1.00  0.00    -0.227 N 
HETATM   28  C17 UNL     1      27.973  -2.673  52.833  1.00  0.00     0.165 C 
HETATM   29  H11 UNL     1      25.908  -2.071  52.862  1.00  0.00     0.177 HD
ENDBRANCH  25  27
ENDBRANCH  20  21
ENDBRANCH  14  15
ENDBRANCH   7  14
TORSDOF 4
ENDMDL
