MODEL 1
REMARK VINA RESULT:      -8.1      0.000      0.000
REMARK  9 active torsions:
REMARK  status: ('A' for Active; 'I' for Inactive)
REMARK    1  A    between atoms: C7_8  and  O1_9 
REMARK    2  A    between atoms: O1_9  and  C8_10 
REMARK    3  A    between atoms: C8_10  and  C9_11 
REMARK    4  A    between atoms: C9_11  and  O2_12 
REMARK    5  A    between atoms: C10_13  and  C11_14 
REMARK    6  A    between atoms: C11_14  and  O3_15 
REMARK    7  A    between atoms: O3_15  and  C12_16 
REMARK    8  A    between atoms: C12_16  and  C13_17 
REMARK    9  A    between atoms: C13_17  and  O4_18 
ROOT
HETATM    1  C1  UNL     1      22.639   7.787  50.531  1.00  0.00     0.013 C 
HETATM    2  C2  UNL     1      22.139   6.698  50.767  1.00  0.00    -0.102 C 
HETATM    3  C3  UNL     1      21.544   5.399  51.024  1.00  0.00     0.137 C 
HETATM    4  C4  UNL     1      22.246   4.875  52.292  1.00  0.00     0.112 C 
HETATM    5  N1  UNL     1      22.685   3.780  52.190  1.00  0.00    -0.263 NA
HETATM    6  C5  UNL     1      23.298   2.662  52.522  1.00  0.00     0.066 A 
HETATM    7  C6  UNL     1      24.553   2.813  53.060  1.00  0.00     0.069 A 
HETATM    8  C7  UNL     1      25.402   1.788  53.460  1.00  0.00     0.079 A 
HETATM    9  C10 UNL     1      24.937   0.506  53.301  1.00  0.00    -0.001 A 
HETATM   10  C14 UNL     1      23.679   0.340  52.763  1.00  0.00     0.023 A 
HETATM   11  C15 UNL     1      22.788   1.347  52.346  1.00  0.00    -0.011 A 
HETATM   12  C16 UNL     1      21.511   0.850  51.836  1.00  0.00     0.160 C 
HETATM   13  N2  UNL     1      21.403   0.799  50.385  1.00  0.00    -0.386 N 
HETATM   14  C17 UNL     1      21.752   2.052  49.760  1.00  0.00     0.028 A 
HETATM   15  C18 UNL     1      22.458   2.149  48.581  1.00  0.00     0.029 A 
HETATM   16  C19 UNL     1      22.873   3.366  48.086  1.00  0.00     0.003 A 
HETATM   17  C20 UNL     1      22.614   4.553  48.738  1.00  0.00     0.009 A 
HETATM   18  C21 UNL     1      21.912   4.463  49.914  1.00  0.00    -0.035 A 
HETATM   19  C22 UNL     1      21.493   3.239  50.398  1.00  0.00     0.038 A 
HETATM   20  H20 UNL     1      21.144   0.105  49.653  1.00  0.00     0.160 HD
ENDROOT
BRANCH   8  21
HETATM   21  O1  UNL     1      26.660   1.989  53.997  1.00  0.00    -0.348 OA
BRANCH  21  22
HETATM   22  C8  UNL     1      27.733   2.106  53.098  1.00  0.00     0.201 C 
BRANCH  22  23
HETATM   23  C9  UNL     1      29.026   1.533  53.591  1.00  0.00     0.190 C 
BRANCH  23  24
HETATM   24  O2  UNL     1      29.544   2.416  54.549  1.00  0.00    -0.399 OA
HETATM   25  H9  UNL     1      30.517   2.437  54.585  1.00  0.00     0.209 HD
ENDBRANCH  23  24
ENDBRANCH  22  23
ENDBRANCH  21  22
ENDBRANCH   8  21
BRANCH   9  26
HETATM   26  C11 UNL     1      25.807  -0.623  53.714  1.00  0.00     0.209 C 
BRANCH  26  27
HETATM   27  O3  UNL     1      26.478  -1.066  52.588  1.00  0.00    -0.385 OA
BRANCH  27  28
HETATM   28  C12 UNL     1      27.037  -2.327  52.754  1.00  0.00     0.194 C 
BRANCH  28  29
HETATM   29  C13 UNL     1      28.494  -2.303  53.132  1.00  0.00     0.190 C 
BRANCH  29  30
HETATM   30  O4  UNL     1      28.969  -3.550  53.479  1.00  0.00    -0.399 OA
HETATM   31  H16 UNL     1      29.434  -4.019  52.742  1.00  0.00     0.209 HD
ENDBRANCH  29  30
ENDBRANCH  28  29
ENDBRANCH  27  28
ENDBRANCH  26  27
ENDBRANCH   9  26
TORSDOF 9
ENDMDL
MODEL 2
REMARK VINA RESULT:      -7.9      2.263      4.234
REMARK  9 active torsions:
REMARK  status: ('A' for Active; 'I' for Inactive)
REMARK    1  A    between atoms: C7_8  and  O1_9 
REMARK    2  A    between atoms: O1_9  and  C8_10 
REMARK    3  A    between atoms: C8_10  and  C9_11 
REMARK    4  A    between atoms: C9_11  and  O2_12 
REMARK    5  A    between atoms: C10_13  and  C11_14 
REMARK    6  A    between atoms: C11_14  and  O3_15 
REMARK    7  A    between atoms: O3_15  and  C12_16 
REMARK    8  A    between atoms: C12_16  and  C13_17 
REMARK    9  A    between atoms: C13_17  and  O4_18 
ROOT
HETATM    1  C1  UNL     1      19.571   4.111  48.375  1.00  0.00     0.013 C 
HETATM    2  C2  UNL     1      20.784   3.967  48.367  1.00  0.00    -0.102 C 
HETATM    3  C3  UNL     1      22.228   3.819  48.365  1.00  0.00     0.137 C 
HETATM    4  C4  UNL     1      22.496   2.446  49.012  1.00  0.00     0.112 C 
HETATM    5  N1  UNL     1      23.286   2.468  49.894  1.00  0.00    -0.263 NA
HETATM    6  C5  UNL     1      24.056   2.033  50.870  1.00  0.00     0.066 A 
HETATM    7  C6  UNL     1      23.423   1.281  51.831  1.00  0.00     0.069 A 
HETATM    8  C7  UNL     1      24.014   0.737  52.965  1.00  0.00     0.079 A 
HETATM    9  C10 UNL     1      25.355   0.975  53.136  1.00  0.00    -0.001 A 
HETATM   10  C14 UNL     1      26.002   1.727  52.179  1.00  0.00     0.023 A 
HETATM   11  C15 UNL     1      25.445   2.296  51.018  1.00  0.00    -0.011 A 
HETATM   12  C16 UNL     1      26.400   3.023  50.183  1.00  0.00     0.160 C 
HETATM   13  N2  UNL     1      26.381   4.471  50.342  1.00  0.00    -0.386 N 
HETATM   14  C17 UNL     1      25.056   5.024  50.206  1.00  0.00     0.028 A 
HETATM   15  C18 UNL     1      24.576   6.060  50.977  1.00  0.00     0.029 A 
HETATM   16  C19 UNL     1      23.264   6.475  50.895  1.00  0.00     0.003 A 
HETATM   17  C20 UNL     1      22.357   5.879  50.045  1.00  0.00     0.009 A 
HETATM   18  C21 UNL     1      22.827   4.846  49.275  1.00  0.00    -0.035 A 
HETATM   19  C22 UNL     1      24.147   4.443  49.358  1.00  0.00     0.038 A 
HETATM   20  H20 UNL     1      27.061   5.236  50.530  1.00  0.00     0.160 HD
ENDROOT
BRANCH   8  21
HETATM   21  O1  UNL     1      23.335  -0.014  53.907  1.00  0.00    -0.348 OA
BRANCH  21  22
HETATM   22  C8  UNL     1      22.403  -0.952  53.432  1.00  0.00     0.201 C 
BRANCH  22  23
HETATM   23  C9  UNL     1      21.657  -1.687  54.502  1.00  0.00     0.190 C 
BRANCH  23  24
HETATM   24  O2  UNL     1      22.558  -1.950  55.544  1.00  0.00    -0.399 OA
HETATM   25  H9  UNL     1      23.493  -1.939  55.274  1.00  0.00     0.209 HD
ENDBRANCH  23  24
ENDBRANCH  22  23
ENDBRANCH  21  22
ENDBRANCH   8  21
BRANCH   9  26
HETATM   26  C11 UNL     1      26.030   0.414  54.332  1.00  0.00     0.209 C 
BRANCH  26  27
HETATM   27  O3  UNL     1      27.161   1.177  54.570  1.00  0.00    -0.385 OA
BRANCH  27  28
HETATM   28  C12 UNL     1      28.286   0.406  54.835  1.00  0.00     0.194 C 
BRANCH  28  29
HETATM   29  C13 UNL     1      29.326   0.453  53.747  1.00  0.00     0.190 C 
BRANCH  29  30
HETATM   30  O4  UNL     1      29.387   1.685  53.130  1.00  0.00    -0.399 OA
HETATM   31  H16 UNL     1      29.967   2.337  53.597  1.00  0.00     0.209 HD
ENDBRANCH  29  30
ENDBRANCH  28  29
ENDBRANCH  27  28
ENDBRANCH  26  27
ENDBRANCH   9  26
TORSDOF 9
ENDMDL
MODEL 3
REMARK VINA RESULT:      -7.4      2.636      4.552
REMARK  9 active torsions:
REMARK  status: ('A' for Active; 'I' for Inactive)
REMARK    1  A    between atoms: C7_8  and  O1_9 
REMARK    2  A    between atoms: O1_9  and  C8_10 
REMARK    3  A    between atoms: C8_10  and  C9_11 
REMARK    4  A    between atoms: C9_11  and  O2_12 
REMARK    5  A    between atoms: C10_13  and  C11_14 
REMARK    6  A    between atoms: C11_14  and  O3_15 
REMARK    7  A    between atoms: O3_15  and  C12_16 
REMARK    8  A    between atoms: C12_16  and  C13_17 
REMARK    9  A    between atoms: C13_17  and  O4_18 
ROOT
HETATM    1  C1  UNL     1      20.152   6.017  48.120  1.00  0.00     0.013 C 
HETATM    2  C2  UNL     1      21.350   5.835  47.964  1.00  0.00    -0.102 C 
HETATM    3  C3  UNL     1      22.777   5.641  47.787  1.00  0.00     0.137 C 
HETATM    4  C4  UNL     1      23.043   4.181  48.203  1.00  0.00     0.112 C 
HETATM    5  N1  UNL     1      23.918   4.049  48.990  1.00  0.00    -0.263 NA
HETATM    6  C5  UNL     1      24.759   3.452  49.808  1.00  0.00     0.066 A 
HETATM    7  C6  UNL     1      24.191   2.590  50.716  1.00  0.00     0.069 A 
HETATM    8  C7  UNL     1      24.866   1.869  51.693  1.00  0.00     0.079 A 
HETATM    9  C10 UNL     1      26.227   2.035  51.752  1.00  0.00    -0.001 A 
HETATM   10  C14 UNL     1      26.810   2.895  50.847  1.00  0.00     0.023 A 
HETATM   11  C15 UNL     1      26.167   3.644  49.843  1.00  0.00    -0.011 A 
HETATM   12  C16 UNL     1      27.068   4.452  49.022  1.00  0.00     0.160 C 
HETATM   13  N2  UNL     1      27.135   5.861  49.384  1.00  0.00    -0.386 N 
HETATM   14  C17 UNL     1      25.830   6.472  49.468  1.00  0.00     0.028 A 
HETATM   15  C18 UNL     1      25.481   7.402  50.423  1.00  0.00     0.029 A 
HETATM   16  C19 UNL     1      24.189   7.867  50.540  1.00  0.00     0.003 A 
HETATM   17  C20 UNL     1      23.173   7.431  49.716  1.00  0.00     0.009 A 
HETATM   18  C21 UNL     1      23.514   6.505  48.763  1.00  0.00    -0.035 A 
HETATM   19  C22 UNL     1      24.814   6.051  48.649  1.00  0.00     0.038 A 
HETATM   20  H20 UNL     1      27.866   6.569  49.604  1.00  0.00     0.160 HD
ENDROOT
BRANCH   8  21
HETATM   21  O1  UNL     1      24.250   1.012  52.587  1.00  0.00    -0.348 OA
BRANCH  21  22
HETATM   22  C8  UNL     1      22.926   1.308  52.955  1.00  0.00     0.201 C 
BRANCH  22  23
HETATM   23  C9  UNL     1      22.176   0.162  53.560  1.00  0.00     0.190 C 
BRANCH  23  24
HETATM   24  O2  UNL     1      22.825  -1.020  53.176  1.00  0.00    -0.399 OA
HETATM   25  H9  UNL     1      23.602  -0.882  52.607  1.00  0.00     0.209 HD
ENDBRANCH  23  24
ENDBRANCH  22  23
ENDBRANCH  21  22
ENDBRANCH   8  21
BRANCH   9  26
HETATM   26  C11 UNL     1      26.992   1.285  52.779  1.00  0.00     0.209 C 
BRANCH  26  27
HETATM   27  O3  UNL     1      28.281   1.786  52.790  1.00  0.00    -0.385 OA
BRANCH  27  28
HETATM   28  C12 UNL     1      29.022   1.349  53.881  1.00  0.00     0.194 C 
BRANCH  28  29
HETATM   29  C13 UNL     1      28.739  -0.075  54.277  1.00  0.00     0.190 C 
BRANCH  29  30
HETATM   30  O4  UNL     1      29.746  -0.938  53.897  1.00  0.00    -0.399 OA
HETATM   31  H16 UNL     1      29.423  -1.741  53.418  1.00  0.00     0.209 HD
ENDBRANCH  29  30
ENDBRANCH  28  29
ENDBRANCH  27  28
ENDBRANCH  26  27
ENDBRANCH   9  26
TORSDOF 9
ENDMDL
MODEL 4
REMARK VINA RESULT:      -7.3      4.458      7.834
REMARK  9 active torsions:
REMARK  status: ('A' for Active; 'I' for Inactive)
REMARK    1  A    between atoms: C7_8  and  O1_9 
REMARK    2  A    between atoms: O1_9  and  C8_10 
REMARK    3  A    between atoms: C8_10  and  C9_11 
REMARK    4  A    between atoms: C9_11  and  O2_12 
REMARK    5  A    between atoms: C10_13  and  C11_14 
REMARK    6  A    between atoms: C11_14  and  O3_15 
REMARK    7  A    between atoms: O3_15  and  C12_16 
REMARK    8  A    between atoms: C12_16  and  C13_17 
REMARK    9  A    between atoms: C13_17  and  O4_18 
ROOT
HETATM    1  C1  UNL     1      26.772  -0.533  52.207  1.00  0.00     0.013 C 
HETATM    2  C2  UNL     1      26.209   0.512  52.493  1.00  0.00    -0.102 C 
HETATM    3  C3  UNL     1      25.549   1.764  52.814  1.00  0.00     0.137 C 
HETATM    4  C4  UNL     1      24.125   1.372  53.255  1.00  0.00     0.112 C 
HETATM    5  N1  UNL     1      23.261   1.965  52.702  1.00  0.00    -0.263 NA
HETATM    6  C5  UNL     1      22.045   2.345  52.370  1.00  0.00     0.066 A 
HETATM    7  C6  UNL     1      21.179   1.331  52.037  1.00  0.00     0.069 A 
HETATM    8  C7  UNL     1      19.859   1.483  51.630  1.00  0.00     0.079 A 
HETATM    9  C10 UNL     1      19.381   2.768  51.556  1.00  0.00    -0.001 A 
HETATM   10  C14 UNL     1      20.239   3.794  51.887  1.00  0.00     0.023 A 
HETATM   11  C15 UNL     1      21.579   3.686  52.305  1.00  0.00    -0.011 A 
HETATM   12  C16 UNL     1      22.222   4.964  52.609  1.00  0.00     0.160 C 
HETATM   13  N2  UNL     1      23.077   5.491  51.554  1.00  0.00    -0.386 N 
HETATM   14  C17 UNL     1      24.046   4.526  51.095  1.00  0.00     0.028 A 
HETATM   15  C18 UNL     1      24.416   4.382  49.775  1.00  0.00     0.029 A 
HETATM   16  C19 UNL     1      25.253   3.366  49.367  1.00  0.00     0.003 A 
HETATM   17  C20 UNL     1      25.766   2.437  50.247  1.00  0.00     0.009 A 
HETATM   18  C21 UNL     1      25.401   2.575  51.563  1.00  0.00    -0.035 A 
HETATM   19  C22 UNL     1      24.567   3.601  51.964  1.00  0.00     0.038 A 
HETATM   20  H20 UNL     1      23.192   6.380  51.025  1.00  0.00     0.160 HD
ENDROOT
BRANCH   8  21
HETATM   21  O1  UNL     1      19.023   0.431  51.304  1.00  0.00    -0.348 OA
BRANCH  21  22
HETATM   22  C8  UNL     1      18.832  -0.565  52.276  1.00  0.00     0.201 C 
BRANCH  22  23
HETATM   23  C9  UNL     1      17.417  -0.723  52.738  1.00  0.00     0.190 C 
BRANCH  23  24
HETATM   24  O2  UNL     1      17.450  -1.242  54.040  1.00  0.00    -0.399 OA
HETATM   25  H9  UNL     1      17.863  -2.121  54.108  1.00  0.00     0.209 HD
ENDBRANCH  23  24
ENDBRANCH  22  23
ENDBRANCH  21  22
ENDBRANCH   8  21
BRANCH   9  26
HETATM   26  C11 UNL     1      17.977   2.981  51.125  1.00  0.00     0.209 C 
BRANCH  26  27
HETATM   27  O3  UNL     1      17.393   3.859  52.022  1.00  0.00    -0.385 OA
BRANCH  27  28
HETATM   28  C12 UNL     1      16.059   4.118  51.733  1.00  0.00     0.194 C 
BRANCH  28  29
HETATM   29  C13 UNL     1      15.111   3.736  52.839  1.00  0.00     0.190 C 
BRANCH  29  30
HETATM   30  O4  UNL     1      15.275   4.515  53.965  1.00  0.00    -0.399 OA
HETATM   31  H16 UNL     1      14.846   5.404  53.901  1.00  0.00     0.209 HD
ENDBRANCH  29  30
ENDBRANCH  28  29
ENDBRANCH  27  28
ENDBRANCH  26  27
ENDBRANCH   9  26
TORSDOF 9
ENDMDL
MODEL 5
REMARK VINA RESULT:      -7.2      9.107     12.205
REMARK  9 active torsions:
REMARK  status: ('A' for Active; 'I' for Inactive)
REMARK    1  A    between atoms: C7_8  and  O1_9 
REMARK    2  A    between atoms: O1_9  and  C8_10 
REMARK    3  A    between atoms: C8_10  and  C9_11 
REMARK    4  A    between atoms: C9_11  and  O2_12 
REMARK    5  A    between atoms: C10_13  and  C11_14 
REMARK    6  A    between atoms: C11_14  and  O3_15 
REMARK    7  A    between atoms: O3_15  and  C12_16 
REMARK    8  A    between atoms: C12_16  and  C13_17 
REMARK    9  A    between atoms: C13_17  and  O4_18 
ROOT
HETATM    1  C1  UNL     1      32.232   1.302  46.699  1.00  0.00     0.013 C 
HETATM    2  C2  UNL     1      32.852   2.317  46.979  1.00  0.00    -0.102 C 
HETATM    3  C3  UNL     1      33.594   3.525  47.288  1.00  0.00     0.137 C 
HETATM    4  C4  UNL     1      32.752   4.259  48.349  1.00  0.00     0.112 C 
HETATM    5  N1  UNL     1      32.534   5.396  48.100  1.00  0.00    -0.263 NA
HETATM    6  C5  UNL     1      32.066   6.619  48.235  1.00  0.00     0.066 A 
HETATM    7  C6  UNL     1      30.721   6.711  48.501  1.00  0.00     0.069 A 
HETATM    8  C7  UNL     1      29.996   7.886  48.658  1.00  0.00     0.079 A 
HETATM    9  C10 UNL     1      30.694   9.063  48.535  1.00  0.00    -0.001 A 
HETATM   10  C14 UNL     1      32.044   8.984  48.268  1.00  0.00     0.023 A 
HETATM   11  C15 UNL     1      32.816   7.819  48.103  1.00  0.00    -0.011 A 
HETATM   12  C16 UNL     1      34.235   8.066  47.851  1.00  0.00     0.160 C 
HETATM   13  N2  UNL     1      34.639   7.975  46.455  1.00  0.00    -0.386 N 
HETATM   14  C17 UNL     1      34.216   6.742  45.837  1.00  0.00     0.028 A 
HETATM   15  C18 UNL     1      33.756   6.654  44.541  1.00  0.00     0.029 A 
HETATM   16  C19 UNL     1      33.248   5.478  44.033  1.00  0.00     0.003 A 
HETATM   17  C20 UNL     1      33.166   4.326  44.786  1.00  0.00     0.009 A 
HETATM   18  C21 UNL     1      33.621   4.407  46.078  1.00  0.00    -0.035 A 
HETATM   19  C22 UNL     1      34.137   5.589  46.576  1.00  0.00     0.038 A 
HETATM   20  H20 UNL     1      35.155   8.554  45.760  1.00  0.00     0.160 HD
ENDROOT
BRANCH   8  21
HETATM   21  O1  UNL     1      28.640   7.930  48.925  1.00  0.00    -0.348 OA
BRANCH  21  22
HETATM   22  C8  UNL     1      27.806   7.091  48.167  1.00  0.00     0.201 C 
BRANCH  22  23
HETATM   23  C9  UNL     1      26.971   6.147  48.974  1.00  0.00     0.190 C 
BRANCH  23  24
HETATM   24  O2  UNL     1      27.785   5.067  49.341  1.00  0.00    -0.399 OA
HETATM   25  H9  UNL     1      27.987   4.454  48.613  1.00  0.00     0.209 HD
ENDBRANCH  23  24
ENDBRANCH  22  23
ENDBRANCH  21  22
ENDBRANCH   8  21
BRANCH   9  26
HETATM   26  C11 UNL     1      29.963  10.344  48.694  1.00  0.00     0.209 C 
BRANCH  26  27
HETATM   27  O3  UNL     1      30.887  11.312  49.044  1.00  0.00    -0.385 OA
BRANCH  27  28
HETATM   28  C12 UNL     1      30.366  12.599  48.995  1.00  0.00     0.194 C 
BRANCH  28  29
HETATM   29  C13 UNL     1      28.887  12.647  48.721  1.00  0.00     0.190 C 
BRANCH  29  30
HETATM   30  O4  UNL     1      28.173  13.184  49.771  1.00  0.00    -0.399 OA
HETATM   31  H16 UNL     1      28.570  12.999  50.659  1.00  0.00     0.209 HD
ENDBRANCH  29  30
ENDBRANCH  28  29
ENDBRANCH  27  28
ENDBRANCH  26  27
ENDBRANCH   9  26
TORSDOF 9
ENDMDL
MODEL 6
REMARK VINA RESULT:      -7.0      3.586      7.345
REMARK  9 active torsions:
REMARK  status: ('A' for Active; 'I' for Inactive)
REMARK    1  A    between atoms: C7_8  and  O1_9 
REMARK    2  A    between atoms: O1_9  and  C8_10 
REMARK    3  A    between atoms: C8_10  and  C9_11 
REMARK    4  A    between atoms: C9_11  and  O2_12 
REMARK    5  A    between atoms: C10_13  and  C11_14 
REMARK    6  A    between atoms: C11_14  and  O3_15 
REMARK    7  A    between atoms: O3_15  and  C12_16 
REMARK    8  A    between atoms: C12_16  and  C13_17 
REMARK    9  A    between atoms: C13_17  and  O4_18 
ROOT
HETATM    1  C1  UNL     1      29.007   0.747  53.643  1.00  0.00     0.013 C 
HETATM    2  C2  UNL     1      27.968   0.268  53.216  1.00  0.00    -0.102 C 
HETATM    3  C3  UNL     1      26.729  -0.311  52.731  1.00  0.00     0.137 C 
HETATM    4  C4  UNL     1      26.057   0.802  51.903  1.00  0.00     0.112 C 
HETATM    5  N1  UNL     1      24.928   1.013  52.193  1.00  0.00    -0.263 NA
HETATM    6  C5  UNL     1      23.733   1.564  52.170  1.00  0.00     0.066 A 
HETATM    7  C6  UNL     1      23.714   2.937  52.238  1.00  0.00     0.069 A 
HETATM    8  C7  UNL     1      22.580   3.740  52.257  1.00  0.00     0.079 A 
HETATM    9  C10 UNL     1      21.368   3.097  52.201  1.00  0.00    -0.001 A 
HETATM   10  C14 UNL     1      21.373   1.721  52.133  1.00  0.00     0.023 A 
HETATM   11  C15 UNL     1      22.494   0.870  52.110  1.00  0.00    -0.011 A 
HETATM   12  C16 UNL     1      22.171  -0.552  52.009  1.00  0.00     0.160 C 
HETATM   13  N2  UNL     1      22.218  -1.287  53.266  1.00  0.00    -0.386 N 
HETATM   14  C17 UNL     1      23.460  -1.092  53.974  1.00  0.00     0.028 A 
HETATM   15  C18 UNL     1      23.548  -0.965  55.343  1.00  0.00     0.029 A 
HETATM   16  C19 UNL     1      24.740  -0.659  55.964  1.00  0.00     0.003 A 
HETATM   17  C20 UNL     1      25.907  -0.459  55.258  1.00  0.00     0.009 A 
HETATM   18  C21 UNL     1      25.826  -0.583  53.894  1.00  0.00    -0.035 A 
HETATM   19  C22 UNL     1      24.628  -0.898  53.281  1.00  0.00     0.038 A 
HETATM   20  H20 UNL     1      21.601  -1.923  53.812  1.00  0.00     0.160 HD
ENDROOT
BRANCH   8  21
HETATM   21  O1  UNL     1      22.610   5.121  52.326  1.00  0.00    -0.348 OA
BRANCH  21  22
HETATM   22  C8  UNL     1      22.875   5.820  51.136  1.00  0.00     0.201 C 
BRANCH  22  23
HETATM   23  C9  UNL     1      24.213   6.490  51.091  1.00  0.00     0.190 C 
BRANCH  23  24
HETATM   24  O2  UNL     1      24.536   6.884  52.397  1.00  0.00    -0.399 OA
HETATM   25  H9  UNL     1      23.763   7.060  52.962  1.00  0.00     0.209 HD
ENDBRANCH  23  24
ENDBRANCH  22  23
ENDBRANCH  21  22
ENDBRANCH   8  21
BRANCH   9  26
HETATM   26  C11 UNL     1      20.129   3.913  52.219  1.00  0.00     0.209 C 
BRANCH  26  27
HETATM   27  O3  UNL     1      19.072   3.075  51.908  1.00  0.00    -0.385 OA
BRANCH  27  28
HETATM   28  C12 UNL     1      18.018   3.740  51.294  1.00  0.00     0.194 C 
BRANCH  28  29
HETATM   29  C13 UNL     1      16.673   3.434  51.895  1.00  0.00     0.190 C 
BRANCH  29  30
HETATM   30  O4  UNL     1      16.214   4.451  52.705  1.00  0.00    -0.399 OA
HETATM   31  H16 UNL     1      15.459   4.960  52.319  1.00  0.00     0.209 HD
ENDBRANCH  29  30
ENDBRANCH  28  29
ENDBRANCH  27  28
ENDBRANCH  26  27
ENDBRANCH   9  26
TORSDOF 9
ENDMDL
MODEL 7
REMARK VINA RESULT:      -7.0      4.253      7.497
REMARK  9 active torsions:
REMARK  status: ('A' for Active; 'I' for Inactive)
REMARK    1  A    between atoms: C7_8  and  O1_9 
REMARK    2  A    between atoms: O1_9  and  C8_10 
REMARK    3  A    between atoms: C8_10  and  C9_11 
REMARK    4  A    between atoms: C9_11  and  O2_12 
REMARK    5  A    between atoms: C10_13  and  C11_14 
REMARK    6  A    between atoms: C11_14  and  O3_15 
REMARK    7  A    between atoms: O3_15  and  C12_16 
REMARK    8  A    between atoms: C12_16  and  C13_17 
REMARK    9  A    between atoms: C13_17  and  O4_18 
ROOT
HETATM    1  C1  UNL     1      28.318   2.197  53.282  1.00  0.00     0.013 C 
HETATM    2  C2  UNL     1      27.437   2.049  52.448  1.00  0.00    -0.102 C 
HETATM    3  C3  UNL     1      26.375   1.873  51.476  1.00  0.00     0.137 C 
HETATM    4  C4  UNL     1      26.718   2.833  50.320  1.00  0.00     0.112 C 
HETATM    5  N1  UNL     1      25.830   3.545  49.995  1.00  0.00    -0.263 NA
HETATM    6  C5  UNL     1      25.177   4.477  49.334  1.00  0.00     0.066 A 
HETATM    7  C6  UNL     1      25.810   5.695  49.249  1.00  0.00     0.069 A 
HETATM    8  C7  UNL     1      25.312   6.834  48.629  1.00  0.00     0.079 A 
HETATM    9  C10 UNL     1      24.073   6.729  48.048  1.00  0.00    -0.001 A 
HETATM   10  C14 UNL     1      23.427   5.514  48.126  1.00  0.00     0.023 A 
HETATM   11  C15 UNL     1      23.893   4.337  48.741  1.00  0.00    -0.011 A 
HETATM   12  C16 UNL     1      22.981   3.198  48.634  1.00  0.00     0.160 C 
HETATM   13  N2  UNL     1      22.169   2.944  49.816  1.00  0.00    -0.386 N 
HETATM   14  C17 UNL     1      22.959   2.857  51.020  1.00  0.00     0.028 A 
HETATM   15  C18 UNL     1      22.560   3.367  52.236  1.00  0.00     0.029 A 
HETATM   16  C19 UNL     1      23.399   3.369  53.329  1.00  0.00     0.003 A 
HETATM   17  C20 UNL     1      24.681   2.866  53.273  1.00  0.00     0.009 A 
HETATM   18  C21 UNL     1      25.086   2.357  52.065  1.00  0.00    -0.035 A 
HETATM   19  C22 UNL     1      24.234   2.352  50.976  1.00  0.00     0.038 A 
HETATM   20  H20 UNL     1      21.164   2.805  50.047  1.00  0.00     0.160 HD
ENDROOT
BRANCH   8  21
HETATM   21  O1  UNL     1      25.987   8.040  48.569  1.00  0.00    -0.348 OA
BRANCH  21  22
HETATM   22  C8  UNL     1      27.005   8.257  49.513  1.00  0.00     0.201 C 
BRANCH  22  23
HETATM   23  C9  UNL     1      27.182   9.686  49.923  1.00  0.00     0.190 C 
BRANCH  23  24
HETATM   24  O2  UNL     1      27.578   9.696  51.268  1.00  0.00    -0.399 OA
HETATM   25  H9  UNL     1      28.481   9.367  51.420  1.00  0.00     0.209 HD
ENDBRANCH  23  24
ENDBRANCH  22  23
ENDBRANCH  21  22
ENDBRANCH   8  21
BRANCH   9  26
HETATM   26  C11 UNL     1      23.500   7.921  47.374  1.00  0.00     0.209 C 
BRANCH  26  27
HETATM   27  O3  UNL     1      22.183   8.040  47.784  1.00  0.00    -0.385 OA
BRANCH  27  28
HETATM   28  C12 UNL     1      22.045   8.798  48.940  1.00  0.00     0.194 C 
BRANCH  28  29
HETATM   29  C13 UNL     1      21.328   8.083  50.055  1.00  0.00     0.190 C 
BRANCH  29  30
HETATM   30  O4  UNL     1      22.197   7.469  50.932  1.00  0.00    -0.399 OA
HETATM   31  H16 UNL     1      21.802   6.700  51.413  1.00  0.00     0.209 HD
ENDBRANCH  29  30
ENDBRANCH  28  29
ENDBRANCH  27  28
ENDBRANCH  26  27
ENDBRANCH   9  26
TORSDOF 9
ENDMDL
MODEL 8
REMARK VINA RESULT:      -7.0      2.351      3.373
REMARK  9 active torsions:
REMARK  status: ('A' for Active; 'I' for Inactive)
REMARK    1  A    between atoms: C7_8  and  O1_9 
REMARK    2  A    between atoms: O1_9  and  C8_10 
REMARK    3  A    between atoms: C8_10  and  C9_11 
REMARK    4  A    between atoms: C9_11  and  O2_12 
REMARK    5  A    between atoms: C10_13  and  C11_14 
REMARK    6  A    between atoms: C11_14  and  O3_15 
REMARK    7  A    between atoms: O3_15  and  C12_16 
REMARK    8  A    between atoms: C12_16  and  C13_17 
REMARK    9  A    between atoms: C13_17  and  O4_18 
ROOT
HETATM    1  C1  UNL     1      25.647   8.064  49.911  1.00  0.00     0.013 C 
HETATM    2  C2  UNL     1      24.620   7.531  50.304  1.00  0.00    -0.102 C 
HETATM    3  C3  UNL     1      23.394   6.894  50.747  1.00  0.00     0.137 C 
HETATM    4  C4  UNL     1      23.798   6.040  51.965  1.00  0.00     0.112 C 
HETATM    5  N1  UNL     1      23.439   4.913  51.913  1.00  0.00    -0.263 NA
HETATM    6  C5  UNL     1      23.264   3.658  52.270  1.00  0.00     0.066 A 
HETATM    7  C6  UNL     1      24.405   2.984  52.639  1.00  0.00     0.069 A 
HETATM    8  C7  UNL     1      24.479   1.652  53.027  1.00  0.00     0.079 A 
HETATM    9  C10 UNL     1      23.300   0.948  53.043  1.00  0.00    -0.001 A 
HETATM   10  C14 UNL     1      22.150   1.611  52.675  1.00  0.00     0.023 A 
HETATM   11  C15 UNL     1      22.029   2.956  52.277  1.00  0.00    -0.011 A 
HETATM   12  C16 UNL     1      20.661   3.374  51.970  1.00  0.00     0.160 C 
HETATM   13  N2  UNL     1      20.329   3.407  50.553  1.00  0.00    -0.386 N 
HETATM   14  C17 UNL     1      21.283   4.164  49.779  1.00  0.00     0.028 A 
HETATM   15  C18 UNL     1      21.709   3.801  48.520  1.00  0.00     0.029 A 
HETATM   16  C19 UNL     1      22.711   4.488  47.870  1.00  0.00     0.003 A 
HETATM   17  C20 UNL     1      23.347   5.572  48.437  1.00  0.00     0.009 A 
HETATM   18  C21 UNL     1      22.929   5.939  49.691  1.00  0.00    -0.035 A 
HETATM   19  C22 UNL     1      21.917   5.248  50.332  1.00  0.00     0.038 A 
HETATM   20  H20 UNL     1      19.589   3.034  49.924  1.00  0.00     0.160 HD
ENDROOT
BRANCH   8  21
HETATM   21  O1  UNL     1      25.652   1.015  53.391  1.00  0.00    -0.348 OA
BRANCH  21  22
HETATM   22  C8  UNL     1      26.722   1.070  52.483  1.00  0.00     0.201 C 
BRANCH  22  23
HETATM   23  C9  UNL     1      28.025   1.503  53.080  1.00  0.00     0.190 C 
BRANCH  23  24
HETATM   24  O2  UNL     1      28.240   2.838  52.709  1.00  0.00    -0.399 OA
HETATM   25  H9  UNL     1      28.775   3.347  53.343  1.00  0.00     0.209 HD
ENDBRANCH  23  24
ENDBRANCH  22  23
ENDBRANCH  21  22
ENDBRANCH   8  21
BRANCH   9  26
HETATM   26  C11 UNL     1      23.329  -0.479  53.451  1.00  0.00     0.209 C 
BRANCH  26  27
HETATM   27  O3  UNL     1      22.376  -0.650  54.439  1.00  0.00    -0.385 OA
BRANCH  27  28
HETATM   28  C12 UNL     1      21.457  -1.647  54.136  1.00  0.00     0.194 C 
BRANCH  28  29
HETATM   29  C13 UNL     1      20.093  -1.126  53.768  1.00  0.00     0.190 C 
BRANCH  29  30
HETATM   30  O4  UNL     1      19.083  -1.992  54.132  1.00  0.00    -0.399 OA
HETATM   31  H16 UNL     1      19.347  -2.945  54.109  1.00  0.00     0.209 HD
ENDBRANCH  29  30
ENDBRANCH  28  29
ENDBRANCH  27  28
ENDBRANCH  26  27
ENDBRANCH   9  26
TORSDOF 9
ENDMDL
MODEL 9
REMARK VINA RESULT:      -6.7      4.780      6.389
REMARK  9 active torsions:
REMARK  status: ('A' for Active; 'I' for Inactive)
REMARK    1  A    between atoms: C7_8  and  O1_9 
REMARK    2  A    between atoms: O1_9  and  C8_10 
REMARK    3  A    between atoms: C8_10  and  C9_11 
REMARK    4  A    between atoms: C9_11  and  O2_12 
REMARK    5  A    between atoms: C10_13  and  C11_14 
REMARK    6  A    between atoms: C11_14  and  O3_15 
REMARK    7  A    between atoms: O3_15  and  C12_16 
REMARK    8  A    between atoms: C12_16  and  C13_17 
REMARK    9  A    between atoms: C13_17  and  O4_18 
ROOT
HETATM    1  C1  UNL     1      20.628   9.206  49.516  1.00  0.00     0.013 C 
HETATM    2  C2  UNL     1      21.194   8.186  49.878  1.00  0.00    -0.102 C 
HETATM    3  C3  UNL     1      21.854   6.962  50.293  1.00  0.00     0.137 C 
HETATM    4  C4  UNL     1      23.327   7.352  50.520  1.00  0.00     0.112 C 
HETATM    5  N1  UNL     1      24.108   6.657  49.963  1.00  0.00    -0.263 NA
HETATM    6  C5  UNL     1      25.269   6.187  49.556  1.00  0.00     0.066 A 
HETATM    7  C6  UNL     1      26.118   7.113  48.996  1.00  0.00     0.069 A 
HETATM    8  C7  UNL     1      27.379   6.855  48.473  1.00  0.00     0.079 A 
HETATM    9  C10 UNL     1      27.814   5.554  48.523  1.00  0.00    -0.001 A 
HETATM   10  C14 UNL     1      26.973   4.616  49.082  1.00  0.00     0.023 A 
HETATM   11  C15 UNL     1      25.691   4.832  49.623  1.00  0.00    -0.011 A 
HETATM   12  C16 UNL     1      25.055   3.632  50.166  1.00  0.00     0.160 C 
HETATM   13  N2  UNL     1      24.074   3.005  49.292  1.00  0.00    -0.386 N 
HETATM   14  C17 UNL     1      23.084   3.939  48.813  1.00  0.00     0.028 A 
HETATM   15  C18 UNL     1      22.571   3.922  47.534  1.00  0.00     0.029 A 
HETATM   16  C19 UNL     1      21.718   4.907  47.085  1.00  0.00     0.003 A 
HETATM   17  C20 UNL     1      21.332   5.964  47.881  1.00  0.00     0.009 A 
HETATM   18  C21 UNL     1      21.839   5.988  49.155  1.00  0.00    -0.035 A 
HETATM   19  C22 UNL     1      22.687   4.991  49.599  1.00  0.00     0.038 A 
HETATM   20  H20 UNL     1      23.877   2.059  48.904  1.00  0.00     0.160 HD
ENDROOT
BRANCH   8  21
HETATM   21  O1  UNL     1      28.199   7.821  47.918  1.00  0.00    -0.348 OA
BRANCH  21  22
HETATM   22  C8  UNL     1      28.359   9.019  48.635  1.00  0.00     0.201 C 
BRANCH  22  23
HETATM   23  C9  UNL     1      29.771   9.510  48.722  1.00  0.00     0.190 C 
BRANCH  23  24
HETATM   24  O2  UNL     1      30.050   9.764  50.072  1.00  0.00    -0.399 OA
HETATM   25  H9  UNL     1      29.316   9.558  50.676  1.00  0.00     0.209 HD
ENDBRANCH  23  24
ENDBRANCH  22  23
ENDBRANCH  21  22
ENDBRANCH   8  21
BRANCH   9  26
HETATM   26  C11 UNL     1      29.154   5.230  47.976  1.00  0.00     0.209 C 
BRANCH  26  27
HETATM   27  O3  UNL     1      30.087   5.523  48.955  1.00  0.00    -0.385 OA
BRANCH  27  28
HETATM   28  C12 UNL     1      31.373   5.668  48.450  1.00  0.00     0.194 C 
BRANCH  28  29
HETATM   29  C13 UNL     1      32.197   6.702  49.169  1.00  0.00     0.190 C 
BRANCH  29  30
HETATM   30  O4  UNL     1      31.585   7.159  50.317  1.00  0.00    -0.399 OA
HETATM   31  H16 UNL     1      31.894   6.706  51.141  1.00  0.00     0.209 HD
ENDBRANCH  29  30
ENDBRANCH  28  29
ENDBRANCH  27  28
ENDBRANCH  26  27
ENDBRANCH   9  26
TORSDOF 9
ENDMDL
