MODEL 1
REMARK VINA RESULT:      -7.6      0.000      0.000
REMARK  7 active torsions:
REMARK  status: ('A' for Active; 'I' for Inactive)
REMARK    1  A    between atoms: O1_2  and  C2_3 
REMARK    2  A    between atoms: C2_3  and  O2_4 
REMARK    3  A    between atoms: O2_4  and  C3_5 
REMARK    4  A    between atoms: C3_5  and  O3_6 
REMARK    5  A    between atoms: C6_9  and  N1_10 
REMARK    6  A    between atoms: N1_10  and  C7_11 
REMARK    7  A    between atoms: C11_17  and  O4_18 
ROOT
HETATM    1  C7  UNL     1      23.263  -0.183  53.334  1.00  0.00     0.141 A 
HETATM    2  N2  UNL     1      23.720  -0.780  54.433  1.00  0.00    -0.224 NA
HETATM    3  C8  UNL     1      22.882  -1.438  55.287  1.00  0.00     0.236 A 
HETATM    4  N3  UNL     1      21.547  -1.486  55.011  1.00  0.00    -0.241 NA
HETATM    5  C9  UNL     1      21.103  -0.867  53.879  1.00  0.00     0.074 A 
HETATM    6  C10 UNL     1      19.730  -0.941  53.634  1.00  0.00     0.070 A 
HETATM    7  C11 UNL     1      19.274  -0.311  52.481  1.00  0.00     0.076 A 
HETATM    8  C13 UNL     1      20.115   0.366  51.598  1.00  0.00    -0.028 A 
HETATM    9  C14 UNL     1      19.598   1.028  50.375  1.00  0.00     0.051 C 
HETATM   10  C15 UNL     1      21.467   0.418  51.871  1.00  0.00     0.027 A 
HETATM   11  C16 UNL     1      21.926  -0.197  53.002  1.00  0.00     0.039 A 
ENDROOT
BRANCH   1  12
HETATM   12  N1  UNL     1      24.232   0.466  52.531  1.00  0.00    -0.344 N 
HETATM   13  H10 UNL     1      24.157   0.934  51.605  1.00  0.00     0.167 HD
BRANCH  12  14
HETATM   14  C6  UNL     1      25.580   0.547  52.977  1.00  0.00     0.018 A 
HETATM   15  C5  UNL     1      26.611  -0.009  52.419  1.00  0.00     0.066 A 
HETATM   16  C3  UNL     1      27.517   0.524  53.416  1.00  0.00     0.192 A 
HETATM   17  C17 UNL     1      26.360   1.162  54.062  1.00  0.00     0.130 A 
BRANCH  16  18
HETATM   18  O2  UNL     1      28.097  -0.460  54.253  1.00  0.00    -0.327 OA
BRANCH  18  19
HETATM   19  C2  UNL     1      29.433  -0.533  53.865  1.00  0.00     0.341 C 
BRANCH  19  20
HETATM   20  O1  UNL     1      29.688  -1.589  52.993  1.00  0.00    -0.372 OA
HETATM   21  C1  UNL     1      28.983  -2.720  53.317  1.00  0.00     0.204 C 
ENDBRANCH  19  20
ENDBRANCH  18  19
ENDBRANCH  16  18
BRANCH  16  22
HETATM   22  O3  UNL     1      28.540   1.345  52.965  1.00  0.00    -0.356 OA
HETATM   23  C4  UNL     1      28.699   2.515  53.656  1.00  0.00     0.206 C 
ENDBRANCH  16  22
ENDBRANCH  12  14
ENDBRANCH   1  12
BRANCH   7  24
HETATM   24  O4  UNL     1      17.920  -0.332  52.154  1.00  0.00    -0.355 OA
HETATM   25  C12 UNL     1      17.022  -1.168  52.882  1.00  0.00     0.210 C 
ENDBRANCH   7  24
TORSDOF 7
ENDMDL
MODEL 2
REMARK VINA RESULT:      -7.3      4.187      6.578
REMARK  7 active torsions:
REMARK  status: ('A' for Active; 'I' for Inactive)
REMARK    1  A    between atoms: O1_2  and  C2_3 
REMARK    2  A    between atoms: C2_3  and  O2_4 
REMARK    3  A    between atoms: O2_4  and  C3_5 
REMARK    4  A    between atoms: C3_5  and  O3_6 
REMARK    5  A    between atoms: C6_9  and  N1_10 
REMARK    6  A    between atoms: N1_10  and  C7_11 
REMARK    7  A    between atoms: C11_17  and  O4_18 
ROOT
HETATM    1  C7  UNL     1      23.956   3.163  51.255  1.00  0.00     0.141 A 
HETATM    2  N2  UNL     1      22.858   3.363  51.981  1.00  0.00    -0.224 NA
HETATM    3  C8  UNL     1      22.366   4.618  52.197  1.00  0.00     0.236 A 
HETATM    4  N3  UNL     1      23.010   5.692  51.658  1.00  0.00    -0.241 NA
HETATM    5  C9  UNL     1      24.133   5.462  50.917  1.00  0.00     0.074 A 
HETATM    6  C10 UNL     1      24.761   6.589  50.383  1.00  0.00     0.070 A 
HETATM    7  C11 UNL     1      25.907   6.358  49.628  1.00  0.00     0.076 A 
HETATM    8  C13 UNL     1      26.423   5.083  49.398  1.00  0.00    -0.028 A 
HETATM    9  C14 UNL     1      27.647   4.870  48.586  1.00  0.00     0.051 C 
HETATM   10  C15 UNL     1      25.776   3.992  49.940  1.00  0.00     0.027 A 
HETATM   11  C16 UNL     1      24.651   4.207  50.685  1.00  0.00     0.039 A 
ENDROOT
BRANCH   1  12
HETATM   12  N1  UNL     1      24.365   1.816  51.105  1.00  0.00    -0.344 N 
HETATM   13  H10 UNL     1      24.178   1.119  50.356  1.00  0.00     0.167 HD
BRANCH  12  14
HETATM   14  C6  UNL     1      25.180   1.210  52.101  1.00  0.00     0.018 A 
HETATM   15  C5  UNL     1      24.913   1.126  53.368  1.00  0.00     0.066 A 
HETATM   16  C3  UNL     1      26.150   0.425  53.647  1.00  0.00     0.192 A 
HETATM   17  C17 UNL     1      26.469   0.510  52.213  1.00  0.00     0.130 A 
BRANCH  16  18
HETATM   18  O2  UNL     1      27.071   1.168  54.425  1.00  0.00    -0.327 OA
BRANCH  18  19
HETATM   19  C2  UNL     1      28.046   0.253  54.815  1.00  0.00     0.341 C 
BRANCH  19  20
HETATM   20  O1  UNL     1      29.296   0.522  54.262  1.00  0.00    -0.372 OA
HETATM   21  C1  UNL     1      29.829  -0.566  53.617  1.00  0.00     0.204 C 
ENDBRANCH  19  20
ENDBRANCH  18  19
ENDBRANCH  16  18
BRANCH  16  22
HETATM   22  O3  UNL     1      26.047  -0.836  54.212  1.00  0.00    -0.356 OA
HETATM   23  C4  UNL     1      25.034  -0.992  55.119  1.00  0.00     0.206 C 
ENDBRANCH  16  22
ENDBRANCH  12  14
ENDBRANCH   1  12
BRANCH   7  24
HETATM   24  O4  UNL     1      26.600   7.421  49.055  1.00  0.00    -0.355 OA
HETATM   25  C12 UNL     1      27.000   8.530  49.859  1.00  0.00     0.210 C 
ENDBRANCH   7  24
TORSDOF 7
ENDMDL
MODEL 3
REMARK VINA RESULT:      -7.2      2.102      3.236
REMARK  7 active torsions:
REMARK  status: ('A' for Active; 'I' for Inactive)
REMARK    1  A    between atoms: O1_2  and  C2_3 
REMARK    2  A    between atoms: C2_3  and  O2_4 
REMARK    3  A    between atoms: O2_4  and  C3_5 
REMARK    4  A    between atoms: C3_5  and  O3_6 
REMARK    5  A    between atoms: C6_9  and  N1_10 
REMARK    6  A    between atoms: N1_10  and  C7_11 
REMARK    7  A    between atoms: C11_17  and  O4_18 
ROOT
HETATM    1  C7  UNL     1      24.299   2.715  52.095  1.00  0.00     0.141 A 
HETATM    2  N2  UNL     1      24.788   3.312  51.009  1.00  0.00    -0.224 NA
HETATM    3  C8  UNL     1      24.165   3.211  49.799  1.00  0.00     0.236 A 
HETATM    4  N3  UNL     1      23.015   2.485  49.696  1.00  0.00    -0.241 NA
HETATM    5  C9  UNL     1      22.533   1.883  50.821  1.00  0.00     0.074 A 
HETATM    6  C10 UNL     1      21.354   1.149  50.672  1.00  0.00     0.070 A 
HETATM    7  C11 UNL     1      20.860   0.534  51.817  1.00  0.00     0.076 A 
HETATM    8  C13 UNL     1      21.484   0.625  53.061  1.00  0.00    -0.028 A 
HETATM    9  C14 UNL     1      20.931  -0.042  54.265  1.00  0.00     0.051 C 
HETATM   10  C15 UNL     1      22.647   1.360  53.173  1.00  0.00     0.027 A 
HETATM   11  C16 UNL     1      23.142   1.967  52.053  1.00  0.00     0.039 A 
ENDROOT
BRANCH   1  12
HETATM   12  N1  UNL     1      25.037   2.894  53.289  1.00  0.00    -0.344 N 
HETATM   13  H10 UNL     1      24.942   3.585  54.060  1.00  0.00     0.167 HD
BRANCH  12  14
HETATM   14  C6  UNL     1      26.127   2.027  53.583  1.00  0.00     0.018 A 
HETATM   15  C5  UNL     1      27.364   2.199  53.232  1.00  0.00     0.066 A 
HETATM   16  C3  UNL     1      27.782   0.970  53.875  1.00  0.00     0.192 A 
HETATM   17  C17 UNL     1      26.384   0.759  54.282  1.00  0.00     0.130 A 
BRANCH  16  18
HETATM   18  O2  UNL     1      28.214  -0.035  52.974  1.00  0.00    -0.327 OA
BRANCH  18  19
HETATM   19  C2  UNL     1      28.873  -0.976  53.761  1.00  0.00     0.341 C 
BRANCH  19  20
HETATM   20  O1  UNL     1      28.665  -2.285  53.331  1.00  0.00    -0.372 OA
HETATM   21  C1  UNL     1      27.471  -2.437  52.672  1.00  0.00     0.204 C 
ENDBRANCH  19  20
ENDBRANCH  18  19
ENDBRANCH  16  18
BRANCH  16  22
HETATM   22  O3  UNL     1      28.738   1.073  54.874  1.00  0.00    -0.356 OA
HETATM   23  C4  UNL     1      29.692   2.034  54.676  1.00  0.00     0.206 C 
ENDBRANCH  16  22
ENDBRANCH  12  14
ENDBRANCH   1  12
BRANCH   7  24
HETATM   24  O4  UNL     1      19.689  -0.219  51.764  1.00  0.00    -0.355 OA
HETATM   25  C12 UNL     1      18.453   0.405  51.420  1.00  0.00     0.210 C 
ENDBRANCH   7  24
TORSDOF 7
ENDMDL
MODEL 4
REMARK VINA RESULT:      -7.2      1.943      3.443
REMARK  7 active torsions:
REMARK  status: ('A' for Active; 'I' for Inactive)
REMARK    1  A    between atoms: O1_2  and  C2_3 
REMARK    2  A    between atoms: C2_3  and  O2_4 
REMARK    3  A    between atoms: O2_4  and  C3_5 
REMARK    4  A    between atoms: C3_5  and  O3_6 
REMARK    5  A    between atoms: C6_9  and  N1_10 
REMARK    6  A    between atoms: N1_10  and  C7_11 
REMARK    7  A    between atoms: C11_17  and  O4_18 
ROOT
HETATM    1  C7  UNL     1      23.476   2.032  51.268  1.00  0.00     0.141 A 
HETATM    2  N2  UNL     1      23.520   2.438  50.001  1.00  0.00    -0.224 NA
HETATM    3  C8  UNL     1      22.497   2.182  49.134  1.00  0.00     0.236 A 
HETATM    4  N3  UNL     1      21.404   1.495  49.574  1.00  0.00    -0.241 NA
HETATM    5  C9  UNL     1      21.381   1.088  50.877  1.00  0.00     0.074 A 
HETATM    6  C10 UNL     1      20.244   0.388  51.285  1.00  0.00     0.070 A 
HETATM    7  C11 UNL     1      20.219  -0.028  52.612  1.00  0.00     0.076 A 
HETATM    8  C13 UNL     1      21.255   0.225  53.510  1.00  0.00    -0.028 A 
HETATM    9  C14 UNL     1      21.197  -0.231  54.920  1.00  0.00     0.051 C 
HETATM   10  C15 UNL     1      22.364   0.921  53.072  1.00  0.00     0.027 A 
HETATM   11  C16 UNL     1      22.400   1.333  51.770  1.00  0.00     0.039 A 
ENDROOT
BRANCH   1  12
HETATM   12  N1  UNL     1      24.600   2.359  52.065  1.00  0.00    -0.344 N 
HETATM   13  H10 UNL     1      24.892   3.253  52.508  1.00  0.00     0.167 HD
BRANCH  12  14
HETATM   14  C6  UNL     1      25.563   1.358  52.374  1.00  0.00     0.018 A 
HETATM   15  C5  UNL     1      25.984   1.034  53.558  1.00  0.00     0.066 A 
HETATM   16  C3  UNL     1      26.875   0.020  53.031  1.00  0.00     0.192 A 
HETATM   17  C17 UNL     1      26.409   0.374  51.682  1.00  0.00     0.130 A 
BRANCH  16  18
HETATM   18  O2  UNL     1      28.250   0.319  53.196  1.00  0.00    -0.327 OA
BRANCH  18  19
HETATM   19  C2  UNL     1      28.528   0.046  54.533  1.00  0.00     0.341 C 
BRANCH  19  20
HETATM   20  O1  UNL     1      28.927   1.174  55.246  1.00  0.00    -0.372 OA
HETATM   21  C1  UNL     1      29.480   2.136  54.439  1.00  0.00     0.204 C 
ENDBRANCH  19  20
ENDBRANCH  18  19
ENDBRANCH  16  18
BRANCH  16  22
HETATM   22  O3  UNL     1      26.676  -1.282  53.463  1.00  0.00    -0.356 OA
HETATM   23  C4  UNL     1      26.974  -2.255  52.548  1.00  0.00     0.206 C 
ENDBRANCH  16  22
ENDBRANCH  12  14
ENDBRANCH   1  12
BRANCH   7  24
HETATM   24  O4  UNL     1      19.125  -0.732  53.109  1.00  0.00    -0.355 OA
HETATM   25  C12 UNL     1      17.882  -0.710  52.409  1.00  0.00     0.210 C 
ENDBRANCH   7  24
TORSDOF 7
ENDMDL
MODEL 5
REMARK VINA RESULT:      -7.1      4.814      7.641
REMARK  7 active torsions:
REMARK  status: ('A' for Active; 'I' for Inactive)
REMARK    1  A    between atoms: O1_2  and  C2_3 
REMARK    2  A    between atoms: C2_3  and  O2_4 
REMARK    3  A    between atoms: O2_4  and  C3_5 
REMARK    4  A    between atoms: C3_5  and  O3_6 
REMARK    5  A    between atoms: C6_9  and  N1_10 
REMARK    6  A    between atoms: N1_10  and  C7_11 
REMARK    7  A    between atoms: C11_17  and  O4_18 
ROOT
HETATM    1  C7  UNL     1      25.780   3.424  50.118  1.00  0.00     0.141 A 
HETATM    2  N2  UNL     1      24.548   3.335  50.616  1.00  0.00    -0.224 NA
HETATM    3  C8  UNL     1      23.673   4.381  50.544  1.00  0.00     0.236 A 
HETATM    4  N3  UNL     1      24.067   5.543  49.949  1.00  0.00    -0.241 NA
HETATM    5  C9  UNL     1      25.334   5.611  49.446  1.00  0.00     0.074 A 
HETATM    6  C10 UNL     1      25.696   6.819  48.846  1.00  0.00     0.070 A 
HETATM    7  C11 UNL     1      26.987   6.891  48.333  1.00  0.00     0.076 A 
HETATM    8  C13 UNL     1      27.893   5.833  48.398  1.00  0.00    -0.028 A 
HETATM    9  C14 UNL     1      29.263   5.941  47.840  1.00  0.00     0.051 C 
HETATM   10  C15 UNL     1      27.501   4.653  48.998  1.00  0.00     0.027 A 
HETATM   11  C16 UNL     1      26.235   4.572  49.506  1.00  0.00     0.039 A 
ENDROOT
BRANCH   1  12
HETATM   12  N1  UNL     1      26.591   2.272  50.255  1.00  0.00    -0.344 N 
HETATM   13  H10 UNL     1      27.104   1.703  49.551  1.00  0.00     0.167 HD
BRANCH  12  14
HETATM   14  C6  UNL     1      26.807   1.709  51.544  1.00  0.00     0.018 A 
HETATM   15  C5  UNL     1      26.528   0.497  51.911  1.00  0.00     0.066 A 
HETATM   16  C3  UNL     1      27.016   0.725  53.256  1.00  0.00     0.192 A 
HETATM   17  C17 UNL     1      27.339   2.103  52.857  1.00  0.00     0.130 A 
BRANCH  16  18
HETATM   18  O2  UNL     1      26.006   0.699  54.249  1.00  0.00    -0.327 OA
BRANCH  18  19
HETATM   19  C2  UNL     1      25.466  -0.583  54.192  1.00  0.00     0.341 C 
BRANCH  19  20
HETATM   20  O1  UNL     1      25.085  -1.069  55.440  1.00  0.00    -0.372 OA
HETATM   21  C1  UNL     1      23.735  -1.303  55.522  1.00  0.00     0.204 C 
ENDBRANCH  19  20
ENDBRANCH  18  19
ENDBRANCH  16  18
BRANCH  16  22
HETATM   22  O3  UNL     1      28.055  -0.081  53.696  1.00  0.00    -0.356 OA
HETATM   23  C4  UNL     1      28.597   0.269  54.903  1.00  0.00     0.206 C 
ENDBRANCH  16  22
ENDBRANCH  12  14
ENDBRANCH   1  12
BRANCH   7  24
HETATM   24  O4  UNL     1      27.436   8.056  47.716  1.00  0.00    -0.355 OA
HETATM   25  C12 UNL     1      27.393   9.298  48.416  1.00  0.00     0.210 C 
ENDBRANCH   7  24
TORSDOF 7
ENDMDL
MODEL 6
REMARK VINA RESULT:      -7.0      4.003      7.194
REMARK  7 active torsions:
REMARK  status: ('A' for Active; 'I' for Inactive)
REMARK    1  A    between atoms: O1_2  and  C2_3 
REMARK    2  A    between atoms: C2_3  and  O2_4 
REMARK    3  A    between atoms: O2_4  and  C3_5 
REMARK    4  A    between atoms: C3_5  and  O3_6 
REMARK    5  A    between atoms: C6_9  and  N1_10 
REMARK    6  A    between atoms: N1_10  and  C7_11 
REMARK    7  A    between atoms: C11_17  and  O4_18 
ROOT
HETATM    1  C7  UNL     1      24.213   2.278  53.116  1.00  0.00     0.141 A 
HETATM    2  N2  UNL     1      23.034   1.690  52.922  1.00  0.00    -0.224 NA
HETATM    3  C8  UNL     1      22.895   0.333  52.994  1.00  0.00     0.236 A 
HETATM    4  N3  UNL     1      23.985  -0.438  53.269  1.00  0.00    -0.241 NA
HETATM    5  C9  UNL     1      25.182   0.188  53.464  1.00  0.00     0.074 A 
HETATM    6  C10 UNL     1      26.272  -0.639  53.743  1.00  0.00     0.070 A 
HETATM    7  C11 UNL     1      27.494  -0.004  53.942  1.00  0.00     0.076 A 
HETATM    8  C13 UNL     1      27.654   1.379  53.872  1.00  0.00    -0.028 A 
HETATM    9  C14 UNL     1      28.971   2.027  54.089  1.00  0.00     0.051 C 
HETATM   10  C15 UNL     1      26.555   2.166  53.595  1.00  0.00     0.027 A 
HETATM   11  C16 UNL     1      25.350   1.553  53.397  1.00  0.00     0.039 A 
ENDROOT
BRANCH   1  12
HETATM   12  N1  UNL     1      24.227   3.691  53.015  1.00  0.00    -0.344 N 
HETATM   13  H10 UNL     1      24.303   4.432  53.740  1.00  0.00     0.167 HD
BRANCH  12  14
HETATM   14  C6  UNL     1      24.122   4.309  51.737  1.00  0.00     0.018 A 
HETATM   15  C5  UNL     1      24.960   4.190  50.754  1.00  0.00     0.066 A 
HETATM   16  C3  UNL     1      24.178   5.063  49.901  1.00  0.00     0.192 A 
HETATM   17  C17 UNL     1      23.217   5.208  51.005  1.00  0.00     0.130 A 
BRANCH  16  18
HETATM   18  O2  UNL     1      24.810   6.295  49.603  1.00  0.00    -0.327 OA
BRANCH  18  19
HETATM   19  C2  UNL     1      25.620   6.036  48.501  1.00  0.00     0.341 C 
BRANCH  19  20
HETATM   20  O1  UNL     1      26.960   6.344  48.726  1.00  0.00    -0.372 OA
HETATM   21  C1  UNL     1      27.783   5.259  48.558  1.00  0.00     0.204 C 
ENDBRANCH  19  20
ENDBRANCH  18  19
ENDBRANCH  16  18
BRANCH  16  22
HETATM   22  O3  UNL     1      23.716   4.531  48.708  1.00  0.00    -0.356 OA
HETATM   23  C4  UNL     1      22.601   5.133  48.190  1.00  0.00     0.206 C 
ENDBRANCH  16  22
ENDBRANCH  12  14
ENDBRANCH   1  12
BRANCH   7  24
HETATM   24  O4  UNL     1      28.637  -0.748  54.226  1.00  0.00    -0.355 OA
HETATM   25  C12 UNL     1      29.161  -1.653  53.256  1.00  0.00     0.210 C 
ENDBRANCH   7  24
TORSDOF 7
ENDMDL
MODEL 7
REMARK VINA RESULT:      -6.8      2.601      3.803
REMARK  7 active torsions:
REMARK  status: ('A' for Active; 'I' for Inactive)
REMARK    1  A    between atoms: O1_2  and  C2_3 
REMARK    2  A    between atoms: C2_3  and  O2_4 
REMARK    3  A    between atoms: O2_4  and  C3_5 
REMARK    4  A    between atoms: C3_5  and  O3_6 
REMARK    5  A    between atoms: C6_9  and  N1_10 
REMARK    6  A    between atoms: N1_10  and  C7_11 
REMARK    7  A    between atoms: C11_17  and  O4_18 
ROOT
HETATM    1  C7  UNL     1      23.658   2.798  51.362  1.00  0.00     0.141 A 
HETATM    2  N2  UNL     1      24.331   3.942  51.474  1.00  0.00    -0.224 NA
HETATM    3  C8  UNL     1      23.694   5.121  51.734  1.00  0.00     0.236 A 
HETATM    4  N3  UNL     1      22.338   5.131  51.882  1.00  0.00    -0.241 NA
HETATM    5  C9  UNL     1      21.670   3.947  51.762  1.00  0.00     0.074 A 
HETATM    6  C10 UNL     1      20.284   4.003  51.921  1.00  0.00     0.070 A 
HETATM    7  C11 UNL     1      19.599   2.798  51.799  1.00  0.00     0.076 A 
HETATM    8  C13 UNL     1      20.234   1.585  51.534  1.00  0.00    -0.028 A 
HETATM    9  C14 UNL     1      19.476   0.315  51.411  1.00  0.00     0.051 C 
HETATM   10  C15 UNL     1      21.606   1.567  51.384  1.00  0.00     0.027 A 
HETATM   11  C16 UNL     1      22.288   2.745  51.500  1.00  0.00     0.039 A 
ENDROOT
BRANCH   1  12
HETATM   12  N1  UNL     1      24.432   1.644  51.091  1.00  0.00    -0.344 N 
HETATM   13  H10 UNL     1      24.549   1.082  50.224  1.00  0.00     0.167 HD
BRANCH  12  14
HETATM   14  C6  UNL     1      25.229   1.070  52.121  1.00  0.00     0.018 A 
HETATM   15  C5  UNL     1      24.963   1.072  53.390  1.00  0.00     0.066 A 
HETATM   16  C3  UNL     1      26.176   0.346  53.709  1.00  0.00     0.192 A 
HETATM   17  C17 UNL     1      26.492   0.333  52.272  1.00  0.00     0.130 A 
BRANCH  16  18
HETATM   18  O2  UNL     1      27.126   1.100  54.439  1.00  0.00    -0.327 OA
BRANCH  18  19
HETATM   19  C2  UNL     1      28.100   0.186  54.831  1.00  0.00     0.341 C 
BRANCH  19  20
HETATM   20  O1  UNL     1      29.328   0.400  54.210  1.00  0.00    -0.372 OA
HETATM   21  C1  UNL     1      29.842  -0.745  53.655  1.00  0.00     0.204 C 
ENDBRANCH  19  20
ENDBRANCH  18  19
ENDBRANCH  16  18
BRANCH  16  22
HETATM   22  O3  UNL     1      26.031  -0.876  54.349  1.00  0.00    -0.356 OA
HETATM   23  C4  UNL     1      24.984  -0.957  55.227  1.00  0.00     0.206 C 
ENDBRANCH  16  22
ENDBRANCH  12  14
ENDBRANCH   1  12
BRANCH   7  24
HETATM   24  O4  UNL     1      18.215   2.756  51.942  1.00  0.00    -0.355 OA
HETATM   25  C12 UNL     1      17.416   3.849  51.493  1.00  0.00     0.210 C 
ENDBRANCH   7  24
TORSDOF 7
ENDMDL
MODEL 8
REMARK VINA RESULT:      -6.8      4.222      7.557
REMARK  7 active torsions:
REMARK  status: ('A' for Active; 'I' for Inactive)
REMARK    1  A    between atoms: O1_2  and  C2_3 
REMARK    2  A    between atoms: C2_3  and  O2_4 
REMARK    3  A    between atoms: O2_4  and  C3_5 
REMARK    4  A    between atoms: C3_5  and  O3_6 
REMARK    5  A    between atoms: C6_9  and  N1_10 
REMARK    6  A    between atoms: N1_10  and  C7_11 
REMARK    7  A    between atoms: C11_17  and  O4_18 
ROOT
HETATM    1  C7  UNL     1      24.191   2.263  52.973  1.00  0.00     0.141 A 
HETATM    2  N2  UNL     1      23.014   1.655  52.838  1.00  0.00    -0.224 NA
HETATM    3  C8  UNL     1      22.881   0.309  53.027  1.00  0.00     0.236 A 
HETATM    4  N3  UNL     1      23.976  -0.431  53.363  1.00  0.00    -0.241 NA
HETATM    5  C9  UNL     1      25.171   0.214  53.497  1.00  0.00     0.074 A 
HETATM    6  C10 UNL     1      26.266  -0.581  53.842  1.00  0.00     0.070 A 
HETATM    7  C11 UNL     1      27.486   0.073  53.978  1.00  0.00     0.076 A 
HETATM    8  C13 UNL     1      27.640   1.446  53.788  1.00  0.00    -0.028 A 
HETATM    9  C14 UNL     1      28.955   2.115  53.941  1.00  0.00     0.051 C 
HETATM   10  C15 UNL     1      26.536   2.201  53.448  1.00  0.00     0.027 A 
HETATM   11  C16 UNL     1      25.333   1.569  53.311  1.00  0.00     0.039 A 
ENDROOT
BRANCH   1  12
HETATM   12  N1  UNL     1      24.199   3.661  52.750  1.00  0.00    -0.344 N 
HETATM   13  H10 UNL     1      24.226   4.463  53.411  1.00  0.00     0.167 HD
BRANCH  12  14
HETATM   14  C6  UNL     1      24.163   4.164  51.419  1.00  0.00     0.018 A 
HETATM   15  C5  UNL     1      23.156   4.744  50.843  1.00  0.00     0.066 A 
HETATM   16  C3  UNL     1      23.890   4.930  49.607  1.00  0.00     0.192 A 
HETATM   17  C17 UNL     1      25.042   4.274  50.246  1.00  0.00     0.130 A 
BRANCH  16  18
HETATM   18  O2  UNL     1      23.396   4.164  48.523  1.00  0.00    -0.327 OA
BRANCH  18  19
HETATM   19  C2  UNL     1      22.324   4.893  48.015  1.00  0.00     0.341 C 
BRANCH  19  20
HETATM   20  O1  UNL     1      22.335   4.980  46.625  1.00  0.00    -0.372 OA
HETATM   21  C1  UNL     1      21.837   3.851  46.025  1.00  0.00     0.204 C 
ENDBRANCH  19  20
ENDBRANCH  18  19
ENDBRANCH  16  18
BRANCH  16  22
HETATM   22  O3  UNL     1      24.054   6.232  49.160  1.00  0.00    -0.356 OA
HETATM   23  C4  UNL     1      25.206   6.471  48.461  1.00  0.00     0.206 C 
ENDBRANCH  16  22
ENDBRANCH  12  14
ENDBRANCH   1  12
BRANCH   7  24
HETATM   24  O4  UNL     1      28.633  -0.639  54.321  1.00  0.00    -0.355 OA
HETATM   25  C12 UNL     1      29.229  -1.530  53.380  1.00  0.00     0.210 C 
ENDBRANCH   7  24
TORSDOF 7
ENDMDL
MODEL 9
REMARK VINA RESULT:      -6.7      4.890      6.650
REMARK  7 active torsions:
REMARK  status: ('A' for Active; 'I' for Inactive)
REMARK    1  A    between atoms: O1_2  and  C2_3 
REMARK    2  A    between atoms: C2_3  and  O2_4 
REMARK    3  A    between atoms: O2_4  and  C3_5 
REMARK    4  A    between atoms: C3_5  and  O3_6 
REMARK    5  A    between atoms: C6_9  and  N1_10 
REMARK    6  A    between atoms: N1_10  and  C7_11 
REMARK    7  A    between atoms: C11_17  and  O4_18 
ROOT
HETATM    1  C7  UNL     1      26.394   2.375  51.252  1.00  0.00     0.141 A 
HETATM    2  N2  UNL     1      27.551   2.506  51.898  1.00  0.00    -0.224 NA
HETATM    3  C8  UNL     1      27.706   2.059  53.179  1.00  0.00     0.236 A 
HETATM    4  N3  UNL     1      26.655   1.464  53.813  1.00  0.00    -0.241 NA
HETATM    5  C9  UNL     1      25.480   1.340  53.130  1.00  0.00     0.074 A 
HETATM    6  C10 UNL     1      24.430   0.726  53.816  1.00  0.00     0.070 A 
HETATM    7  C11 UNL     1      23.231   0.599  53.123  1.00  0.00     0.076 A 
HETATM    8  C13 UNL     1      23.055   1.050  51.815  1.00  0.00    -0.028 A 
HETATM    9  C14 UNL     1      21.762   0.898  51.103  1.00  0.00     0.051 C 
HETATM   10  C15 UNL     1      24.114   1.652  51.168  1.00  0.00     0.027 A 
HETATM   11  C16 UNL     1      25.297   1.783  51.839  1.00  0.00     0.039 A 
ENDROOT
BRANCH   1  12
HETATM   12  N1  UNL     1      26.360   2.879  49.929  1.00  0.00    -0.344 N 
HETATM   13  H10 UNL     1      26.555   2.424  49.014  1.00  0.00     0.167 HD
BRANCH  12  14
HETATM   14  C6  UNL     1      26.008   4.238  49.700  1.00  0.00     0.018 A 
HETATM   15  C5  UNL     1      26.746   5.137  49.126  1.00  0.00     0.066 A 
HETATM   16  C3  UNL     1      25.731   6.160  49.281  1.00  0.00     0.192 A 
HETATM   17  C17 UNL     1      24.881   5.152  49.934  1.00  0.00     0.130 A 
BRANCH  16  18
HETATM   18  O2  UNL     1      26.088   7.195  50.180  1.00  0.00    -0.327 OA
BRANCH  18  19
HETATM   19  C2  UNL     1      26.772   8.132  49.410  1.00  0.00     0.341 C 
BRANCH  19  20
HETATM   20  O1  UNL     1      27.506   9.033  50.177  1.00  0.00    -0.372 OA
HETATM   21  C1  UNL     1      28.615   9.501  49.518  1.00  0.00     0.204 C 
ENDBRANCH  19  20
ENDBRANCH  18  19
ENDBRANCH  16  18
BRANCH  16  22
HETATM   22  O3  UNL     1      25.254   6.756  48.125  1.00  0.00    -0.356 OA
HETATM   23  C4  UNL     1      23.914   7.034  48.118  1.00  0.00     0.206 C 
ENDBRANCH  16  22
ENDBRANCH  12  14
ENDBRANCH   1  12
BRANCH   7  24
HETATM   24  O4  UNL     1      22.129  -0.002  53.726  1.00  0.00    -0.355 OA
HETATM   25  C12 UNL     1      22.317  -1.015  54.713  1.00  0.00     0.210 C 
ENDBRANCH   7  24
TORSDOF 7
ENDMDL
