MODEL 1
REMARK VINA RESULT:      -7.5      0.000      0.000
REMARK  5 active torsions:
REMARK  status: ('A' for Active; 'I' for Inactive)
REMARK    1  A    between atoms: O1_2  and  C2_3 
REMARK    2  A    between atoms: C2_3  and  O2_4 
REMARK    3  A    between atoms: O2_4  and  C3_5 
REMARK    4  A    between atoms: C9_13  and  N3_14 
REMARK    5  A    between atoms: N3_14  and  C11_16 
ROOT
HETATM    1  C3  UNL     1      23.445   2.485  50.048  1.00  0.00     0.088 A 
HETATM    2  C4  UNL     1      22.985   2.523  48.745  1.00  0.00     0.038 A 
HETATM    3  C5  UNL     1      21.920   1.792  48.261  1.00  0.00     0.005 A 
HETATM    4  C6  UNL     1      21.279   0.967  49.162  1.00  0.00     0.033 A 
HETATM    5  C7  UNL     1      21.673   0.870  50.480  1.00  0.00     0.075 A 
HETATM    6  N1  UNL     1      21.039   0.049  51.368  1.00  0.00    -0.241 NA
HETATM    7  C8  UNL     1      21.535   0.052  52.622  1.00  0.00     0.236 A 
HETATM    8  N2  UNL     1      22.578   0.781  53.056  1.00  0.00    -0.223 NA
HETATM    9  C9  UNL     1      23.204   1.597  52.162  1.00  0.00     0.146 A 
HETATM   10  C17 UNL     1      22.747   1.637  50.877  1.00  0.00     0.072 A 
ENDROOT
BRANCH   9  11
HETATM   11  N3  UNL     1      24.262   2.303  52.811  1.00  0.00    -0.335 N 
HETATM   12  C10 UNL     1      24.308   3.638  53.428  1.00  0.00     0.158 C 
BRANCH  11  13
HETATM   13  C11 UNL     1      25.485   1.571  52.870  1.00  0.00     0.037 A 
HETATM   14  C12 UNL     1      25.635   0.319  52.315  1.00  0.00     0.033 A 
HETATM   15  C13 UNL     1      26.788  -0.436  52.343  1.00  0.00     0.046 A 
HETATM   16  C14 UNL     1      27.897   0.084  52.971  1.00  0.00     0.138 A 
HETATM   17  F1  UNL     1      29.071  -0.573  53.053  1.00  0.00    -0.204 F 
HETATM   18  C15 UNL     1      27.831   1.330  53.551  1.00  0.00     0.074 A 
HETATM   19 CL1  UNL     1      29.232   2.018  54.360  1.00  0.00    -0.081 Cl
HETATM   20  C16 UNL     1      26.641   2.017  53.479  1.00  0.00     0.056 A 
ENDBRANCH  11  13
ENDBRANCH   9  11
BRANCH   1  21
HETATM   21  O2  UNL     1      24.522   3.241  50.476  1.00  0.00    -0.325 OA
BRANCH  21  22
HETATM   22  C2  UNL     1      25.220   3.980  49.491  1.00  0.00     0.344 C 
BRANCH  22  23
HETATM   23  O1  UNL     1      26.539   3.561  49.357  1.00  0.00    -0.371 OA
HETATM   24  C1  UNL     1      27.272   4.638  48.882  1.00  0.00     0.204 C 
ENDBRANCH  22  23
ENDBRANCH  21  22
ENDBRANCH   1  21
TORSDOF 5
ENDMDL
MODEL 2
REMARK VINA RESULT:      -7.2      3.493      5.682
REMARK  5 active torsions:
REMARK  status: ('A' for Active; 'I' for Inactive)
REMARK    1  A    between atoms: O1_2  and  C2_3 
REMARK    2  A    between atoms: C2_3  and  O2_4 
REMARK    3  A    between atoms: O2_4  and  C3_5 
REMARK    4  A    between atoms: C9_13  and  N3_14 
REMARK    5  A    between atoms: N3_14  and  C11_16 
ROOT
HETATM    1  C3  UNL     1      21.541   0.545  52.814  1.00  0.00     0.088 A 
HETATM    2  C4  UNL     1      20.892  -0.137  53.826  1.00  0.00     0.038 A 
HETATM    3  C5  UNL     1      21.517  -0.894  54.795  1.00  0.00     0.005 A 
HETATM    4  C6  UNL     1      22.893  -0.962  54.731  1.00  0.00     0.033 A 
HETATM    5  C7  UNL     1      23.618  -0.312  53.755  1.00  0.00     0.075 A 
HETATM    6  N1  UNL     1      24.979  -0.386  53.692  1.00  0.00    -0.241 NA
HETATM    7  C8  UNL     1      25.555   0.296  52.682  1.00  0.00     0.236 A 
HETATM    8  N2  UNL     1      24.910   1.026  51.754  1.00  0.00    -0.223 NA
HETATM    9  C9  UNL     1      23.551   1.093  51.825  1.00  0.00     0.146 A 
HETATM   10  C17 UNL     1      22.912   0.422  52.828  1.00  0.00     0.072 A 
ENDROOT
BRANCH   9  11
HETATM   11  N3  UNL     1      23.053   1.927  50.779  1.00  0.00    -0.335 N 
HETATM   12  C10 UNL     1      22.290   1.612  49.562  1.00  0.00     0.158 C 
BRANCH  11  13
HETATM   13  C11 UNL     1      23.351   3.311  50.960  1.00  0.00     0.037 A 
HETATM   14  C12 UNL     1      23.154   3.967  52.156  1.00  0.00     0.033 A 
HETATM   15  C13 UNL     1      23.420   5.300  52.390  1.00  0.00     0.046 A 
HETATM   16  C14 UNL     1      23.925   6.059  51.359  1.00  0.00     0.138 A 
HETATM   17  F1  UNL     1      24.217   7.368  51.483  1.00  0.00    -0.204 F 
HETATM   18  C15 UNL     1      24.150   5.478  50.131  1.00  0.00     0.074 A 
HETATM   19 CL1  UNL     1      24.793   6.424  48.796  1.00  0.00    -0.081 Cl
HETATM   20  C16 UNL     1      23.857   4.143  49.982  1.00  0.00     0.056 A 
ENDBRANCH  11  13
ENDBRANCH   9  11
BRANCH   1  21
HETATM   21  O2  UNL     1      20.859   1.290  51.866  1.00  0.00    -0.325 OA
BRANCH  21  22
HETATM   22  C2  UNL     1      19.623   1.853  52.260  1.00  0.00     0.344 C 
BRANCH  22  23
HETATM   23  O1  UNL     1      19.730   3.211  52.541  1.00  0.00    -0.371 OA
HETATM   24  C1  UNL     1      19.588   3.896  51.345  1.00  0.00     0.204 C 
ENDBRANCH  22  23
ENDBRANCH  21  22
ENDBRANCH   1  21
TORSDOF 5
ENDMDL
MODEL 3
REMARK VINA RESULT:      -7.2      3.899      5.958
REMARK  5 active torsions:
REMARK  status: ('A' for Active; 'I' for Inactive)
REMARK    1  A    between atoms: O1_2  and  C2_3 
REMARK    2  A    between atoms: C2_3  and  O2_4 
REMARK    3  A    between atoms: O2_4  and  C3_5 
REMARK    4  A    between atoms: C9_13  and  N3_14 
REMARK    5  A    between atoms: N3_14  and  C11_16 
ROOT
HETATM    1  C3  UNL     1      21.425   1.277  53.218  1.00  0.00     0.088 A 
HETATM    2  C4  UNL     1      20.726   0.329  53.942  1.00  0.00     0.038 A 
HETATM    3  C5  UNL     1      21.265  -0.838  54.442  1.00  0.00     0.005 A 
HETATM    4  C6  UNL     1      22.604  -1.056  54.191  1.00  0.00     0.033 A 
HETATM    5  C7  UNL     1      23.374  -0.161  53.478  1.00  0.00     0.075 A 
HETATM    6  N1  UNL     1      24.697  -0.382  53.227  1.00  0.00    -0.241 NA
HETATM    7  C8  UNL     1      25.324   0.575  52.514  1.00  0.00     0.236 A 
HETATM    8  N2  UNL     1      24.762   1.702  52.041  1.00  0.00    -0.223 NA
HETATM    9  C9  UNL     1      23.441   1.914  52.297  1.00  0.00     0.146 A 
HETATM   10  C17 UNL     1      22.753   0.979  53.015  1.00  0.00     0.072 A 
ENDROOT
BRANCH   9  11
HETATM   11  N3  UNL     1      23.035   3.165  51.742  1.00  0.00    -0.335 N 
HETATM   12  C10 UNL     1      22.835   4.485  52.359  1.00  0.00     0.158 C 
BRANCH  11  13
HETATM   13  C11 UNL     1      22.789   3.114  50.338  1.00  0.00     0.037 A 
HETATM   14  C12 UNL     1      22.442   1.953  49.681  1.00  0.00     0.033 A 
HETATM   15  C13 UNL     1      22.195   1.842  48.330  1.00  0.00     0.046 A 
HETATM   16  C14 UNL     1      22.297   2.971  47.549  1.00  0.00     0.138 A 
HETATM   17  F1  UNL     1      22.077   2.969  46.219  1.00  0.00    -0.204 F 
HETATM   18  C15 UNL     1      22.640   4.171  48.128  1.00  0.00     0.074 A 
HETATM   19 CL1  UNL     1      22.778   5.629  47.155  1.00  0.00    -0.081 Cl
HETATM   20  C16 UNL     1      22.870   4.195  49.484  1.00  0.00     0.056 A 
ENDBRANCH  11  13
ENDBRANCH   9  11
BRANCH   1  21
HETATM   21  O2  UNL     1      20.829   2.431  52.738  1.00  0.00    -0.325 OA
BRANCH  21  22
HETATM   22  C2  UNL     1      19.554   2.293  52.139  1.00  0.00     0.344 C 
BRANCH  22  23
HETATM   23  O1  UNL     1      18.873   3.504  52.071  1.00  0.00    -0.371 OA
HETATM   24  C1  UNL     1      19.167   4.078  50.844  1.00  0.00     0.204 C 
ENDBRANCH  22  23
ENDBRANCH  21  22
ENDBRANCH   1  21
TORSDOF 5
ENDMDL
MODEL 4
REMARK VINA RESULT:      -7.2      3.263      5.121
REMARK  5 active torsions:
REMARK  status: ('A' for Active; 'I' for Inactive)
REMARK    1  A    between atoms: O1_2  and  C2_3 
REMARK    2  A    between atoms: C2_3  and  O2_4 
REMARK    3  A    between atoms: O2_4  and  C3_5 
REMARK    4  A    between atoms: C9_13  and  N3_14 
REMARK    5  A    between atoms: N3_14  and  C11_16 
ROOT
HETATM    1  C3  UNL     1      25.633   1.737  51.911  1.00  0.00     0.088 A 
HETATM    2  C4  UNL     1      26.782   0.973  52.005  1.00  0.00     0.038 A 
HETATM    3  C5  UNL     1      26.854  -0.276  52.584  1.00  0.00     0.005 A 
HETATM    4  C6  UNL     1      25.681  -0.785  53.102  1.00  0.00     0.033 A 
HETATM    5  C7  UNL     1      24.491  -0.091  53.050  1.00  0.00     0.075 A 
HETATM    6  N1  UNL     1      23.334  -0.594  53.567  1.00  0.00    -0.241 NA
HETATM    7  C8  UNL     1      22.249   0.196  53.449  1.00  0.00     0.236 A 
HETATM    8  N2  UNL     1      22.217   1.413  52.876  1.00  0.00    -0.223 NA
HETATM    9  C9  UNL     1      23.378   1.907  52.363  1.00  0.00     0.146 A 
HETATM   10  C17 UNL     1      24.511   1.151  52.452  1.00  0.00     0.072 A 
ENDROOT
BRANCH   9  11
HETATM   11  N3  UNL     1      23.141   3.189  51.779  1.00  0.00    -0.335 N 
HETATM   12  C10 UNL     1      23.161   4.541  52.357  1.00  0.00     0.158 C 
BRANCH  11  13
HETATM   13  C11 UNL     1      22.836   3.134  50.386  1.00  0.00     0.037 A 
HETATM   14  C12 UNL     1      22.479   1.969  49.744  1.00  0.00     0.033 A 
HETATM   15  C13 UNL     1      22.177   1.855  48.403  1.00  0.00     0.046 A 
HETATM   16  C14 UNL     1      22.230   2.985  47.620  1.00  0.00     0.138 A 
HETATM   17  F1  UNL     1      21.955   2.980  46.301  1.00  0.00    -0.204 F 
HETATM   18  C15 UNL     1      22.580   4.190  48.185  1.00  0.00     0.074 A 
HETATM   19 CL1  UNL     1      22.657   5.650  47.209  1.00  0.00    -0.081 Cl
HETATM   20  C16 UNL     1      22.866   4.217  49.530  1.00  0.00     0.056 A 
ENDBRANCH  11  13
ENDBRANCH   9  11
BRANCH   1  21
HETATM   21  O2  UNL     1      25.620   2.988  51.320  1.00  0.00    -0.325 OA
BRANCH  21  22
HETATM   22  C2  UNL     1      26.522   3.202  50.251  1.00  0.00     0.344 C 
BRANCH  22  23
HETATM   23  O1  UNL     1      26.383   4.467  49.690  1.00  0.00    -0.371 OA
HETATM   24  C1  UNL     1      27.427   4.645  48.797  1.00  0.00     0.204 C 
ENDBRANCH  22  23
ENDBRANCH  21  22
ENDBRANCH   1  21
TORSDOF 5
ENDMDL
MODEL 5
REMARK VINA RESULT:      -6.5      3.787      6.066
REMARK  5 active torsions:
REMARK  status: ('A' for Active; 'I' for Inactive)
REMARK    1  A    between atoms: O1_2  and  C2_3 
REMARK    2  A    between atoms: C2_3  and  O2_4 
REMARK    3  A    between atoms: O2_4  and  C3_5 
REMARK    4  A    between atoms: C9_13  and  N3_14 
REMARK    5  A    between atoms: N3_14  and  C11_16 
ROOT
HETATM    1  C3  UNL     1      25.929   4.002  50.215  1.00  0.00     0.088 A 
HETATM    2  C4  UNL     1      26.989   4.037  49.329  1.00  0.00     0.038 A 
HETATM    3  C5  UNL     1      27.339   5.126  48.559  1.00  0.00     0.005 A 
HETATM    4  C6  UNL     1      26.558   6.255  48.697  1.00  0.00     0.033 A 
HETATM    5  C7  UNL     1      25.482   6.305  49.558  1.00  0.00     0.075 A 
HETATM    6  N1  UNL     1      24.709   7.422  49.690  1.00  0.00    -0.241 NA
HETATM    7  C8  UNL     1      23.689   7.326  50.564  1.00  0.00     0.236 A 
HETATM    8  N2  UNL     1      23.379   6.244  51.300  1.00  0.00    -0.223 NA
HETATM    9  C9  UNL     1      24.157   5.133  51.162  1.00  0.00     0.146 A 
HETATM   10  C17 UNL     1      25.206   5.171  50.290  1.00  0.00     0.072 A 
ENDROOT
BRANCH   9  11
HETATM   11  N3  UNL     1      23.690   4.105  52.036  1.00  0.00    -0.335 N 
HETATM   12  C10 UNL     1      24.209   3.608  53.320  1.00  0.00     0.158 C 
BRANCH  11  13
HETATM   13  C11 UNL     1      22.507   3.455  51.574  1.00  0.00     0.037 A 
HETATM   14  C12 UNL     1      21.288   3.587  52.203  1.00  0.00     0.033 A 
HETATM   15  C13 UNL     1      20.114   2.983  51.805  1.00  0.00     0.046 A 
HETATM   16  C14 UNL     1      20.136   2.176  50.691  1.00  0.00     0.138 A 
HETATM   17  F1  UNL     1      19.045   1.540  50.220  1.00  0.00    -0.204 F 
HETATM   18  C15 UNL     1      21.316   1.992  50.005  1.00  0.00     0.074 A 
HETATM   19 CL1  UNL     1      21.373   0.967  48.578  1.00  0.00    -0.081 Cl
HETATM   20  C16 UNL     1      22.442   2.631  50.469  1.00  0.00     0.056 A 
ENDBRANCH  11  13
ENDBRANCH   9  11
BRANCH   1  21
HETATM   21  O2  UNL     1      25.624   2.877  50.963  1.00  0.00    -0.325 OA
BRANCH  21  22
HETATM   22  C2  UNL     1      26.678   1.966  51.211  1.00  0.00     0.344 C 
BRANCH  22  23
HETATM   23  O1  UNL     1      27.580   2.452  52.152  1.00  0.00    -0.371 OA
HETATM   24  C1  UNL     1      27.566   1.581  53.230  1.00  0.00     0.204 C 
ENDBRANCH  22  23
ENDBRANCH  21  22
ENDBRANCH   1  21
TORSDOF 5
ENDMDL
MODEL 6
REMARK VINA RESULT:      -6.2      2.677      4.290
REMARK  5 active torsions:
REMARK  status: ('A' for Active; 'I' for Inactive)
REMARK    1  A    between atoms: O1_2  and  C2_3 
REMARK    2  A    between atoms: C2_3  and  O2_4 
REMARK    3  A    between atoms: O2_4  and  C3_5 
REMARK    4  A    between atoms: C9_13  and  N3_14 
REMARK    5  A    between atoms: N3_14  and  C11_16 
ROOT
HETATM    1  C3  UNL     1      22.419   3.501  48.929  1.00  0.00     0.088 A 
HETATM    2  C4  UNL     1      22.200   3.802  47.598  1.00  0.00     0.038 A 
HETATM    3  C5  UNL     1      22.473   5.018  47.008  1.00  0.00     0.005 A 
HETATM    4  C6  UNL     1      23.004   5.995  47.825  1.00  0.00     0.033 A 
HETATM    5  C7  UNL     1      23.253   5.778  49.164  1.00  0.00     0.075 A 
HETATM    6  N1  UNL     1      23.774   6.747  49.971  1.00  0.00    -0.241 NA
HETATM    7  C8  UNL     1      23.961   6.397  51.259  1.00  0.00     0.236 A 
HETATM    8  N2  UNL     1      23.682   5.197  51.799  1.00  0.00    -0.223 NA
HETATM    9  C9  UNL     1      23.163   4.235  50.985  1.00  0.00     0.146 A 
HETATM   10  C17 UNL     1      22.951   4.532  49.669  1.00  0.00     0.072 A 
ENDROOT
BRANCH   9  11
HETATM   11  N3  UNL     1      22.959   3.032  51.727  1.00  0.00    -0.335 N 
HETATM   12  C10 UNL     1      21.748   2.452  52.328  1.00  0.00     0.158 C 
BRANCH  11  13
HETATM   13  C11 UNL     1      24.147   2.263  51.905  1.00  0.00     0.037 A 
HETATM   14  C12 UNL     1      25.296   2.483  51.177  1.00  0.00     0.033 A 
HETATM   15  C13 UNL     1      26.470   1.771  51.303  1.00  0.00     0.046 A 
HETATM   16  C14 UNL     1      26.524   0.751  52.225  1.00  0.00     0.138 A 
HETATM   17  F1  UNL     1      27.623  -0.003  52.425  1.00  0.00    -0.204 F 
HETATM   18  C15 UNL     1      25.418   0.467  52.993  1.00  0.00     0.074 A 
HETATM   19 CL1  UNL     1      25.458  -0.830  54.178  1.00  0.00    -0.081 Cl
HETATM   20  C16 UNL     1      24.286   1.225  52.804  1.00  0.00     0.056 A 
ENDBRANCH  11  13
ENDBRANCH   9  11
BRANCH   1  21
HETATM   21  O2  UNL     1      22.123   2.260  49.467  1.00  0.00    -0.325 OA
BRANCH  21  22
HETATM   22  C2  UNL     1      21.205   1.454  48.754  1.00  0.00     0.344 C 
BRANCH  22  23
HETATM   23  O1  UNL     1      20.167   1.000  49.562  1.00  0.00    -0.371 OA
HETATM   24  C1  UNL     1      19.143   1.930  49.484  1.00  0.00     0.204 C 
ENDBRANCH  22  23
ENDBRANCH  21  22
ENDBRANCH   1  21
TORSDOF 5
ENDMDL
MODEL 7
REMARK VINA RESULT:      -6.1      6.847      9.599
REMARK  5 active torsions:
REMARK  status: ('A' for Active; 'I' for Inactive)
REMARK    1  A    between atoms: O1_2  and  C2_3 
REMARK    2  A    between atoms: C2_3  and  O2_4 
REMARK    3  A    between atoms: O2_4  and  C3_5 
REMARK    4  A    between atoms: C9_13  and  N3_14 
REMARK    5  A    between atoms: N3_14  and  C11_16 
ROOT
HETATM    1  C3  UNL     1      28.348   6.185  47.978  1.00  0.00     0.088 A 
HETATM    2  C4  UNL     1      28.149   4.971  48.608  1.00  0.00     0.038 A 
HETATM    3  C5  UNL     1      26.948   4.541  49.132  1.00  0.00     0.005 A 
HETATM    4  C6  UNL     1      25.877   5.402  49.008  1.00  0.00     0.033 A 
HETATM    5  C7  UNL     1      25.989   6.632  48.394  1.00  0.00     0.075 A 
HETATM    6  N1  UNL     1      24.929   7.483  48.277  1.00  0.00    -0.241 NA
HETATM    7  C8  UNL     1      25.186   8.652  47.658  1.00  0.00     0.236 A 
HETATM    8  N2  UNL     1      26.374   9.037  47.158  1.00  0.00    -0.223 NA
HETATM    9  C9  UNL     1      27.426   8.180  47.279  1.00  0.00     0.146 A 
HETATM   10  C17 UNL     1      27.227   6.979  47.898  1.00  0.00     0.072 A 
ENDROOT
BRANCH   9  11
HETATM   11  N3  UNL     1      28.585   8.749  46.671  1.00  0.00    -0.335 N 
HETATM   12  C10 UNL     1      29.271   8.443  45.406  1.00  0.00     0.158 C 
BRANCH  11  13
HETATM   13  C11 UNL     1      29.170   9.804  47.432  1.00  0.00     0.037 A 
HETATM   14  C12 UNL     1      29.938   9.580  48.554  1.00  0.00     0.033 A 
HETATM   15  C13 UNL     1      30.525  10.557  49.329  1.00  0.00     0.046 A 
HETATM   16  C14 UNL     1      30.344  11.874  48.974  1.00  0.00     0.138 A 
HETATM   17  F1  UNL     1      30.874  12.903  49.664  1.00  0.00    -0.204 F 
HETATM   18  C15 UNL     1      29.590  12.183  47.864  1.00  0.00     0.074 A 
HETATM   19 CL1  UNL     1      29.342  13.857  47.386  1.00  0.00    -0.081 Cl
HETATM   20  C16 UNL     1      29.039  11.148  47.146  1.00  0.00     0.056 A 
ENDBRANCH  11  13
ENDBRANCH   9  11
BRANCH   1  21
HETATM   21  O2  UNL     1      29.579   6.564  47.472  1.00  0.00    -0.325 OA
BRANCH  21  22
HETATM   22  C2  UNL     1      30.674   5.709  47.739  1.00  0.00     0.344 C 
BRANCH  22  23
HETATM   23  O1  UNL     1      31.797   6.410  48.165  1.00  0.00    -0.371 OA
HETATM   24  C1  UNL     1      31.796   6.395  49.551  1.00  0.00     0.204 C 
ENDBRANCH  22  23
ENDBRANCH  21  22
ENDBRANCH   1  21
TORSDOF 5
ENDMDL
MODEL 8
REMARK VINA RESULT:      -5.9      7.990     10.844
REMARK  5 active torsions:
REMARK  status: ('A' for Active; 'I' for Inactive)
REMARK    1  A    between atoms: O1_2  and  C2_3 
REMARK    2  A    between atoms: C2_3  and  O2_4 
REMARK    3  A    between atoms: O2_4  and  C3_5 
REMARK    4  A    between atoms: C9_13  and  N3_14 
REMARK    5  A    between atoms: N3_14  and  C11_16 
ROOT
HETATM    1  C3  UNL     1      28.383   7.913  48.559  1.00  0.00     0.088 A 
HETATM    2  C4  UNL     1      27.225   7.159  48.592  1.00  0.00     0.038 A 
HETATM    3  C5  UNL     1      27.176   5.783  48.512  1.00  0.00     0.005 A 
HETATM    4  C6  UNL     1      28.384   5.129  48.389  1.00  0.00     0.033 A 
HETATM    5  C7  UNL     1      29.586   5.804  48.348  1.00  0.00     0.075 A 
HETATM    6  N1  UNL     1      30.779   5.155  48.222  1.00  0.00    -0.241 NA
HETATM    7  C8  UNL     1      31.872   5.942  48.191  1.00  0.00     0.236 A 
HETATM    8  N2  UNL     1      31.880   7.285  48.273  1.00  0.00    -0.223 NA
HETATM    9  C9  UNL     1      30.683   7.924  48.399  1.00  0.00     0.146 A 
HETATM   10  C17 UNL     1      29.541   7.179  48.436  1.00  0.00     0.072 A 
ENDROOT
BRANCH   9  11
HETATM   11  N3  UNL     1      30.896   9.333  48.495  1.00  0.00    -0.335 N 
HETATM   12  C10 UNL     1      30.808  10.255  49.638  1.00  0.00     0.158 C 
BRANCH  11  13
HETATM   13  C11 UNL     1      31.264   9.942  47.259  1.00  0.00     0.037 A 
HETATM   14  C12 UNL     1      32.304  10.840  47.147  1.00  0.00     0.033 A 
HETATM   15  C13 UNL     1      32.702  11.461  45.983  1.00  0.00     0.046 A 
HETATM   16  C14 UNL     1      32.022  11.176  44.821  1.00  0.00     0.138 A 
HETATM   17  F1  UNL     1      32.332  11.729  43.632  1.00  0.00    -0.204 F 
HETATM   18  C15 UNL     1      30.970  10.288  44.847  1.00  0.00     0.074 A 
HETATM   19 CL1  UNL     1      30.082   9.906  43.378  1.00  0.00    -0.081 Cl
HETATM   20  C16 UNL     1      30.636   9.713  46.051  1.00  0.00     0.056 A 
ENDBRANCH  11  13
ENDBRANCH   9  11
BRANCH   1  21
HETATM   21  O2  UNL     1      28.371   9.295  48.642  1.00  0.00    -0.325 OA
BRANCH  21  22
HETATM   22  C2  UNL     1      27.221   9.893  49.208  1.00  0.00     0.344 C 
BRANCH  22  23
HETATM   23  O1  UNL     1      27.231  11.278  49.078  1.00  0.00    -0.371 OA
HETATM   24  C1  UNL     1      27.804  11.576  47.851  1.00  0.00     0.204 C 
ENDBRANCH  22  23
ENDBRANCH  21  22
ENDBRANCH   1  21
TORSDOF 5
ENDMDL
MODEL 9
REMARK VINA RESULT:      -5.9      7.202      9.392
REMARK  5 active torsions:
REMARK  status: ('A' for Active; 'I' for Inactive)
REMARK    1  A    between atoms: O1_2  and  C2_3 
REMARK    2  A    between atoms: C2_3  and  O2_4 
REMARK    3  A    between atoms: O2_4  and  C3_5 
REMARK    4  A    between atoms: C9_13  and  N3_14 
REMARK    5  A    between atoms: N3_14  and  C11_16 
ROOT
HETATM    1  C3  UNL     1      29.081   8.626  47.648  1.00  0.00     0.088 A 
HETATM    2  C4  UNL     1      28.124   9.573  47.328  1.00  0.00     0.038 A 
HETATM    3  C5  UNL     1      26.764   9.349  47.321  1.00  0.00     0.005 A 
HETATM    4  C6  UNL     1      26.346   8.079  47.662  1.00  0.00     0.033 A 
HETATM    5  C7  UNL     1      27.232   7.077  47.995  1.00  0.00     0.075 A 
HETATM    6  N1  UNL     1      26.816   5.820  48.327  1.00  0.00    -0.241 NA
HETATM    7  C8  UNL     1      27.794   4.941  48.625  1.00  0.00     0.236 A 
HETATM    8  N2  UNL     1      29.114   5.198  48.620  1.00  0.00    -0.223 NA
HETATM    9  C9  UNL     1      29.520   6.455  48.288  1.00  0.00     0.146 A 
HETATM   10  C17 UNL     1      28.575   7.389  47.976  1.00  0.00     0.072 A 
ENDROOT
BRANCH   9  11
HETATM   11  N3  UNL     1      30.943   6.540  48.364  1.00  0.00    -0.335 N 
HETATM   12  C10 UNL     1      31.832   7.098  49.395  1.00  0.00     0.158 C 
BRANCH  11  13
HETATM   13  C11 UNL     1      31.610   5.974  47.237  1.00  0.00     0.037 A 
HETATM   14  C12 UNL     1      32.000   4.653  47.184  1.00  0.00     0.033 A 
HETATM   15  C13 UNL     1      32.649   4.053  46.126  1.00  0.00     0.046 A 
HETATM   16  C14 UNL     1      32.943   4.815  45.019  1.00  0.00     0.138 A 
HETATM   17  F1  UNL     1      33.574   4.325  43.934  1.00  0.00    -0.204 F 
HETATM   18  C15 UNL     1      32.587   6.145  44.992  1.00  0.00     0.074 A 
HETATM   19 CL1  UNL     1      32.950   7.142  43.591  1.00  0.00    -0.081 Cl
HETATM   20  C16 UNL     1      31.943   6.666  46.089  1.00  0.00     0.056 A 
ENDBRANCH  11  13
ENDBRANCH   9  11
BRANCH   1  21
HETATM   21  O2  UNL     1      30.436   8.909  47.636  1.00  0.00    -0.325 OA
BRANCH  21  22
HETATM   22  C2  UNL     1      30.809  10.269  47.748  1.00  0.00     0.344 C 
BRANCH  22  23
HETATM   23  O1  UNL     1      30.860  10.692  49.072  1.00  0.00    -0.371 OA
HETATM   24  C1  UNL     1      30.611  12.056  49.083  1.00  0.00     0.204 C 
ENDBRANCH  22  23
ENDBRANCH  21  22
ENDBRANCH   1  21
TORSDOF 5
ENDMDL
