MODEL 1
REMARK VINA RESULT:      -6.8      0.000      0.000
REMARK  7 active torsions:
REMARK  status: ('A' for Active; 'I' for Inactive)
REMARK    1  A    between atoms: C6_7  and  C7_8 
REMARK    2  A    between atoms: C8_10  and  N1_11 
REMARK    3  A    between atoms: N1_11  and  C9_12 
REMARK    4  A    between atoms: C10_13  and  C11_14 
REMARK    5  A    between atoms: C12_15  and  C13_17 
REMARK    6  A    between atoms: C13_17  and  C14_18 
REMARK    7  A    between atoms: C16_22  and  O2_23 
ROOT
HETATM    1  C1  UNL     1      25.145   0.793  53.259  1.00  0.00     0.029 C 
HETATM    2  C2  UNL     1      25.383   1.446  52.130  1.00  0.00     0.021 C 
HETATM    3  O1  UNL     1      24.082   1.157  52.325  1.00  0.00     0.000 OA
HETATM    4  C3  UNL     1      22.897   1.707  51.894  1.00  0.00    -0.011 C 
HETATM    5  C4  UNL     1      21.856   0.618  51.590  1.00  0.00     0.010 C 
HETATM    6  C5  UNL     1      22.995   2.678  50.769  1.00  0.00     0.042 C 
HETATM    7  C6  UNL     1      23.765   3.891  51.008  1.00  0.00    -0.042 C 
HETATM    8  C8  UNL     1      24.936   3.907  50.440  1.00  0.00     0.032 C 
HETATM    9  C15 UNL     1      25.659   2.866  49.668  1.00  0.00     0.208 C 
HETATM   10  N3  UNL     1      26.877   2.593  50.446  1.00  0.00    -0.260 NA
HETATM   11  C16 UNL     1      26.710   1.932  51.580  1.00  0.00     0.170 C 
ENDROOT
BRANCH   8  12
HETATM   12  N1  UNL     1      25.956   4.911  50.432  1.00  0.00    -0.368 N 
HETATM   13  H11 UNL     1      26.800   4.910  51.046  1.00  0.00     0.165 HD
BRANCH  12  14
HETATM   14  C9  UNL     1      25.818   5.969  49.426  1.00  0.00     0.086 C 
HETATM   15  C10 UNL     1      26.699   6.273  48.506  1.00  0.00     0.029 C 
BRANCH  15  16
HETATM   16  C11 UNL     1      27.823   5.436  48.595  1.00  0.00     0.273 A 
HETATM   17  C12 UNL     1      29.072   5.471  48.227  1.00  0.00     0.147 A 
HETATM   18  N2  UNL     1      28.459   6.722  47.796  1.00  0.00    -0.033 N 
HETATM   19  H15 UNL     1      28.847   7.403  47.055  1.00  0.00     0.284 HD
HETATM   20  H16 UNL     1      28.268   7.654  47.293  1.00  0.00     0.284 HD
BRANCH  17  21
HETATM   21  C13 UNL     1      30.447   5.442  47.847  1.00  0.00     0.064 C 
BRANCH  21  22
HETATM   22  C14 UNL     1      31.485   4.678  47.491  1.00  0.00     0.190 C 
HETATM   23  F1  UNL     1      31.386   3.527  46.846  1.00  0.00    -0.219 F 
ENDBRANCH  21  22
ENDBRANCH  17  21
ENDBRANCH  15  16
ENDBRANCH  12  14
ENDBRANCH   8  12
BRANCH   7  24
HETATM   24  C7  UNL     1      23.357   5.026  51.848  1.00  0.00     0.150 C 
HETATM   25 CL1  UNL     1      23.719   4.812  53.554  1.00  0.00    -0.126 Cl
ENDBRANCH   7  24
BRANCH  11  26
HETATM   26  O2  UNL     1      27.780   1.611  52.393  1.00  0.00    -0.339 OA
HETATM   27  C17 UNL     1      28.220   2.522  53.383  1.00  0.00     0.211 C 
ENDBRANCH  11  26
TORSDOF 7
ENDMDL
MODEL 2
REMARK VINA RESULT:      -6.8      3.482      5.934
REMARK  7 active torsions:
REMARK  status: ('A' for Active; 'I' for Inactive)
REMARK    1  A    between atoms: C6_7  and  C7_8 
REMARK    2  A    between atoms: C8_10  and  N1_11 
REMARK    3  A    between atoms: N1_11  and  C9_12 
REMARK    4  A    between atoms: C10_13  and  C11_14 
REMARK    5  A    between atoms: C12_15  and  C13_17 
REMARK    6  A    between atoms: C13_17  and  C14_18 
REMARK    7  A    between atoms: C16_22  and  O2_23 
ROOT
HETATM    1  C1  UNL     1      23.361   4.306  48.644  1.00  0.00     0.029 C 
HETATM    2  C2  UNL     1      23.679   3.863  49.853  1.00  0.00     0.021 C 
HETATM    3  O1  UNL     1      22.420   4.332  49.762  1.00  0.00     0.000 OA
HETATM    4  C3  UNL     1      21.253   4.099  50.451  1.00  0.00    -0.011 C 
HETATM    5  C4  UNL     1      20.444   5.393  50.631  1.00  0.00     0.010 C 
HETATM    6  C5  UNL     1      21.388   3.372  51.745  1.00  0.00     0.042 C 
HETATM    7  C6  UNL     1      21.925   2.020  51.690  1.00  0.00    -0.042 C 
HETATM    8  C8  UNL     1      23.157   1.912  52.096  1.00  0.00     0.032 C 
HETATM    9  C15 UNL     1      24.139   2.943  52.516  1.00  0.00     0.208 C 
HETATM   10  N3  UNL     1      25.242   2.834  51.550  1.00  0.00    -0.260 NA
HETATM   11  C16 UNL     1      24.993   3.271  50.326  1.00  0.00     0.170 C 
ENDROOT
BRANCH   8  12
HETATM   12  N1  UNL     1      24.008   0.766  52.202  1.00  0.00    -0.368 N 
HETATM   13  H11 UNL     1      24.675   0.446  51.465  1.00  0.00     0.165 HD
BRANCH  12  14
HETATM   14  C9  UNL     1      23.975   0.048  53.480  1.00  0.00     0.086 C 
HETATM   15  C10 UNL     1      25.005  -0.485  54.088  1.00  0.00     0.029 C 
BRANCH  15  16
HETATM   16  C11 UNL     1      26.183  -0.277  53.351  1.00  0.00     0.273 A 
HETATM   17  C12 UNL     1      27.457  -0.170  53.597  1.00  0.00     0.147 A 
HETATM   18  N2  UNL     1      26.788  -0.391  54.874  1.00  0.00    -0.033 N 
HETATM   19  H15 UNL     1      27.196  -0.194  55.853  1.00  0.00     0.284 HD
HETATM   20  H16 UNL     1      26.573  -0.442  55.927  1.00  0.00     0.284 HD
BRANCH  17  21
HETATM   21  C13 UNL     1      28.864  -0.040  53.797  1.00  0.00     0.064 C 
BRANCH  21  22
HETATM   22  C14 UNL     1      30.074  -0.545  53.536  1.00  0.00     0.190 C 
HETATM   23  F1  UNL     1      30.585  -1.616  54.122  1.00  0.00    -0.219 F 
ENDBRANCH  21  22
ENDBRANCH  17  21
ENDBRANCH  15  16
ENDBRANCH  12  14
ENDBRANCH   8  12
BRANCH   7  24
HETATM   24  C7  UNL     1      21.226   0.829  51.187  1.00  0.00     0.150 C 
HETATM   25 CL1  UNL     1      21.285   0.660  49.438  1.00  0.00    -0.126 Cl
ENDBRANCH   7  24
BRANCH  11  26
HETATM   26  O2  UNL     1      25.953   3.227  49.333  1.00  0.00    -0.339 OA
HETATM   27  C17 UNL     1      26.954   4.226  49.267  1.00  0.00     0.211 C 
ENDBRANCH  11  26
TORSDOF 7
ENDMDL
MODEL 3
REMARK VINA RESULT:      -6.5      4.620      5.931
REMARK  7 active torsions:
REMARK  status: ('A' for Active; 'I' for Inactive)
REMARK    1  A    between atoms: C6_7  and  C7_8 
REMARK    2  A    between atoms: C8_10  and  N1_11 
REMARK    3  A    between atoms: N1_11  and  C9_12 
REMARK    4  A    between atoms: C10_13  and  C11_14 
REMARK    5  A    between atoms: C12_15  and  C13_17 
REMARK    6  A    between atoms: C13_17  and  C14_18 
REMARK    7  A    between atoms: C16_22  and  O2_23 
ROOT
HETATM    1  C1  UNL     1      20.686   1.323  48.917  1.00  0.00     0.029 C 
HETATM    2  C2  UNL     1      21.295   2.013  49.873  1.00  0.00     0.021 C 
HETATM    3  O1  UNL     1      20.322   1.200  50.327  1.00  0.00     0.000 OA
HETATM    4  C3  UNL     1      20.066   0.580  51.528  1.00  0.00    -0.011 C 
HETATM    5  C4  UNL     1      18.563   0.577  51.844  1.00  0.00     0.010 C 
HETATM    6  C5  UNL     1      20.855   1.060  52.696  1.00  0.00     0.042 C 
HETATM    7  C6  UNL     1      22.301   0.898  52.629  1.00  0.00    -0.042 C 
HETATM    8  C8  UNL     1      22.956   1.997  52.393  1.00  0.00     0.032 C 
HETATM    9  C15 UNL     1      22.481   3.370  52.087  1.00  0.00     0.208 C 
HETATM   10  N3  UNL     1      23.000   3.662  50.743  1.00  0.00    -0.260 NA
HETATM   11  C16 UNL     1      22.425   3.015  49.742  1.00  0.00     0.170 C 
ENDROOT
BRANCH   8  12
HETATM   12  N1  UNL     1      24.362   2.238  52.273  1.00  0.00    -0.368 N 
HETATM   13  H11 UNL     1      24.906   2.170  51.384  1.00  0.00     0.165 HD
BRANCH  12  14
HETATM   14  C9  UNL     1      25.052   2.683  53.488  1.00  0.00     0.086 C 
HETATM   15  C10 UNL     1      26.082   2.096  54.045  1.00  0.00     0.029 C 
BRANCH  15  16
HETATM   16  C11 UNL     1      26.463   0.958  53.314  1.00  0.00     0.273 A 
HETATM   17  C12 UNL     1      27.445   0.103  53.322  1.00  0.00     0.147 A 
HETATM   18  N2  UNL     1      27.695   1.057  54.397  1.00  0.00    -0.033 N 
HETATM   19  H15 UNL     1      28.636   1.230  54.894  1.00  0.00     0.284 HD
HETATM   20  H16 UNL     1      28.173   1.638  55.166  1.00  0.00     0.284 HD
BRANCH  17  21
HETATM   21  C13 UNL     1      28.493  -0.864  53.272  1.00  0.00     0.064 C 
BRANCH  21  22
HETATM   22  C14 UNL     1      29.671  -1.252  53.772  1.00  0.00     0.190 C 
HETATM   23  F1  UNL     1      30.820  -0.630  53.560  1.00  0.00    -0.219 F 
ENDBRANCH  21  22
ENDBRANCH  17  21
ENDBRANCH  15  16
ENDBRANCH  12  14
ENDBRANCH   8  12
BRANCH   7  24
HETATM   24  C7  UNL     1      23.038  -0.368  52.754  1.00  0.00     0.150 C 
HETATM   25 CL1  UNL     1      23.490  -0.765  54.405  1.00  0.00    -0.126 Cl
ENDBRANCH   7  24
BRANCH  11  26
HETATM   26  O2  UNL     1      22.822   3.211  48.432  1.00  0.00    -0.339 OA
HETATM   27  C17 UNL     1      22.513   4.423  47.770  1.00  0.00     0.211 C 
ENDBRANCH  11  26
TORSDOF 7
ENDMDL
MODEL 4
REMARK VINA RESULT:      -6.3      3.040      4.316
REMARK  7 active torsions:
REMARK  status: ('A' for Active; 'I' for Inactive)
REMARK    1  A    between atoms: C6_7  and  C7_8 
REMARK    2  A    between atoms: C8_10  and  N1_11 
REMARK    3  A    between atoms: N1_11  and  C9_12 
REMARK    4  A    between atoms: C10_13  and  C11_14 
REMARK    5  A    between atoms: C12_15  and  C13_17 
REMARK    6  A    between atoms: C13_17  and  C14_18 
REMARK    7  A    between atoms: C16_22  and  O2_23 
ROOT
HETATM    1  C1  UNL     1      21.600   0.433  50.825  1.00  0.00     0.029 C 
HETATM    2  C2  UNL     1      22.297   1.371  51.452  1.00  0.00     0.021 C 
HETATM    3  O1  UNL     1      22.249   0.198  52.113  1.00  0.00     0.000 OA
HETATM    4  C3  UNL     1      23.056  -0.421  53.039  1.00  0.00    -0.011 C 
HETATM    5  C4  UNL     1      22.223  -1.164  54.095  1.00  0.00     0.010 C 
HETATM    6  C5  UNL     1      24.091   0.434  53.683  1.00  0.00     0.042 C 
HETATM    7  C6  UNL     1      25.104   1.015  52.813  1.00  0.00    -0.042 C 
HETATM    8  C8  UNL     1      24.946   2.285  52.575  1.00  0.00     0.032 C 
HETATM    9  C15 UNL     1      23.862   3.222  52.961  1.00  0.00     0.208 C 
HETATM   10  N3  UNL     1      23.286   3.683  51.689  1.00  0.00    -0.260 NA
HETATM   11  C16 UNL     1      22.567   2.798  51.018  1.00  0.00     0.170 C 
ENDROOT
BRANCH   8  12
HETATM   12  N1  UNL     1      25.730   3.193  51.794  1.00  0.00    -0.368 N 
HETATM   13  H11 UNL     1      25.864   4.206  52.010  1.00  0.00     0.165 HD
BRANCH  12  14
HETATM   14  C9  UNL     1      26.446   2.616  50.652  1.00  0.00     0.086 C 
HETATM   15  C10 UNL     1      26.666   3.208  49.505  1.00  0.00     0.029 C 
BRANCH  15  16
HETATM   16  C11 UNL     1      26.122   4.503  49.500  1.00  0.00     0.273 A 
HETATM   17  C12 UNL     1      26.430   5.666  49.000  1.00  0.00     0.147 A 
HETATM   18  N2  UNL     1      27.474   4.732  48.594  1.00  0.00    -0.033 N 
HETATM   19  H15 UNL     1      28.457   4.988  48.231  1.00  0.00     0.284 HD
HETATM   20  H16 UNL     1      28.400   4.316  48.238  1.00  0.00     0.284 HD
BRANCH  17  21
HETATM   21  C13 UNL     1      26.710   6.968  48.487  1.00  0.00     0.064 C 
BRANCH  21  22
HETATM   22  C14 UNL     1      26.312   7.949  47.671  1.00  0.00     0.190 C 
HETATM   23  F1  UNL     1      26.675   8.068  46.404  1.00  0.00    -0.219 F 
ENDBRANCH  21  22
ENDBRANCH  17  21
ENDBRANCH  15  16
ENDBRANCH  12  14
ENDBRANCH   8  12
BRANCH   7  24
HETATM   24  C7  UNL     1      26.213   0.295  52.171  1.00  0.00     0.150 C 
HETATM   25 CL1  UNL     1      26.448  -1.335  52.784  1.00  0.00    -0.126 Cl
ENDBRANCH   7  24
BRANCH  11  26
HETATM   26  O2  UNL     1      21.969   3.117  49.813  1.00  0.00    -0.339 OA
HETATM   27  C17 UNL     1      22.758   3.276  48.649  1.00  0.00     0.211 C 
ENDBRANCH  11  26
TORSDOF 7
ENDMDL
MODEL 5
REMARK VINA RESULT:      -6.2      4.463      6.044
REMARK  7 active torsions:
REMARK  status: ('A' for Active; 'I' for Inactive)
REMARK    1  A    between atoms: C6_7  and  C7_8 
REMARK    2  A    between atoms: C8_10  and  N1_11 
REMARK    3  A    between atoms: N1_11  and  C9_12 
REMARK    4  A    between atoms: C10_13  and  C11_14 
REMARK    5  A    between atoms: C12_15  and  C13_17 
REMARK    6  A    between atoms: C13_17  and  C14_18 
REMARK    7  A    between atoms: C16_22  and  O2_23 
ROOT
HETATM    1  C1  UNL     1      18.589  -0.895  53.451  1.00  0.00     0.029 C 
HETATM    2  C2  UNL     1      19.687  -0.499  52.822  1.00  0.00     0.021 C 
HETATM    3  O1  UNL     1      18.559  -0.311  52.111  1.00  0.00     0.000 OA
HETATM    4  C3  UNL     1      18.186   0.547  51.103  1.00  0.00    -0.011 C 
HETATM    5  C4  UNL     1      17.292  -0.159  50.073  1.00  0.00     0.010 C 
HETATM    6  C5  UNL     1      19.290   1.288  50.431  1.00  0.00     0.042 C 
HETATM    7  C6  UNL     1      20.077   2.193  51.256  1.00  0.00    -0.042 C 
HETATM    8  C8  UNL     1      21.262   1.749  51.564  1.00  0.00     0.032 C 
HETATM    9  C15 UNL     1      21.912   0.441  51.299  1.00  0.00     0.208 C 
HETATM   10  N3  UNL     1      22.179  -0.128  52.628  1.00  0.00    -0.260 NA
HETATM   11  C16 UNL     1      21.124  -0.554  53.304  1.00  0.00     0.170 C 
ENDROOT
BRANCH   8  12
HETATM   12  N1  UNL     1      22.312   2.346  52.332  1.00  0.00    -0.368 N 
HETATM   13  H11 UNL     1      22.442   2.225  53.361  1.00  0.00     0.165 HD
BRANCH  12  14
HETATM   14  C9  UNL     1      23.307   3.119  51.582  1.00  0.00     0.086 C 
HETATM   15  C10 UNL     1      24.598   3.124  51.799  1.00  0.00     0.029 C 
BRANCH  15  16
HETATM   16  C11 UNL     1      24.928   2.269  52.864  1.00  0.00     0.273 A 
HETATM   17  C12 UNL     1      26.013   1.803  53.413  1.00  0.00     0.147 A 
HETATM   18  N2  UNL     1      26.424   2.668  52.313  1.00  0.00    -0.033 N 
HETATM   19  H15 UNL     1      27.391   2.683  51.836  1.00  0.00     0.284 HD
HETATM   20  H16 UNL     1      27.001   3.148  51.541  1.00  0.00     0.284 HD
BRANCH  17  21
HETATM   21  C13 UNL     1      27.161   1.252  54.058  1.00  0.00     0.064 C 
BRANCH  21  22
HETATM   22  C14 UNL     1      27.717   0.160  54.592  1.00  0.00     0.190 C 
HETATM   23  F1  UNL     1      28.551  -0.648  53.956  1.00  0.00    -0.219 F 
ENDBRANCH  21  22
ENDBRANCH  17  21
ENDBRANCH  15  16
ENDBRANCH  12  14
ENDBRANCH   8  12
BRANCH   7  24
HETATM   24  C7  UNL     1      19.636   3.492  51.785  1.00  0.00     0.150 C 
HETATM   25 CL1  UNL     1      20.116   4.861  50.793  1.00  0.00    -0.126 Cl
ENDBRANCH   7  24
BRANCH  11  26
HETATM   26  O2  UNL     1      21.250  -1.115  54.561  1.00  0.00    -0.339 OA
HETATM   27  C17 UNL     1      22.530  -1.286  55.139  1.00  0.00     0.211 C 
ENDBRANCH  11  26
TORSDOF 7
ENDMDL
MODEL 6
REMARK VINA RESULT:      -6.1      4.501      8.641
REMARK  7 active torsions:
REMARK  status: ('A' for Active; 'I' for Inactive)
REMARK    1  A    between atoms: C6_7  and  C7_8 
REMARK    2  A    between atoms: C8_10  and  N1_11 
REMARK    3  A    between atoms: N1_11  and  C9_12 
REMARK    4  A    between atoms: C10_13  and  C11_14 
REMARK    5  A    between atoms: C12_15  and  C13_17 
REMARK    6  A    between atoms: C13_17  and  C14_18 
REMARK    7  A    between atoms: C16_22  and  O2_23 
ROOT
HETATM    1  C1  UNL     1      34.191   5.428  46.101  1.00  0.00     0.029 C 
HETATM    2  C2  UNL     1      33.231   5.588  47.002  1.00  0.00     0.021 C 
HETATM    3  O1  UNL     1      33.936   6.709  46.756  1.00  0.00     0.000 OA
HETATM    4  C3  UNL     1      33.675   8.055  46.864  1.00  0.00    -0.011 C 
HETATM    5  C4  UNL     1      34.909   8.823  47.361  1.00  0.00     0.010 C 
HETATM    6  C5  UNL     1      32.465   8.428  47.649  1.00  0.00     0.042 C 
HETATM    7  C6  UNL     1      31.181   7.961  47.145  1.00  0.00    -0.042 C 
HETATM    8  C8  UNL     1      30.670   6.966  47.812  1.00  0.00     0.032 C 
HETATM    9  C15 UNL     1      31.213   6.166  48.938  1.00  0.00     0.208 C 
HETATM   10  N3  UNL     1      31.299   4.791  48.422  1.00  0.00    -0.260 NA
HETATM   11  C16 UNL     1      32.246   4.561  47.527  1.00  0.00     0.170 C 
ENDROOT
BRANCH   8  12
HETATM   12  N1  UNL     1      29.440   6.257  47.634  1.00  0.00    -0.368 N 
HETATM   13  H11 UNL     1      29.358   5.287  47.257  1.00  0.00     0.165 HD
BRANCH  12  14
HETATM   14  C9  UNL     1      28.224   6.938  48.091  1.00  0.00     0.086 C 
HETATM   15  C10 UNL     1      27.163   6.360  48.594  1.00  0.00     0.029 C 
BRANCH  15  16
HETATM   16  C11 UNL     1      27.334   4.967  48.652  1.00  0.00     0.273 A 
HETATM   17  C12 UNL     1      26.920   3.984  49.399  1.00  0.00     0.147 A 
HETATM   18  N2  UNL     1      26.327   5.207  49.928  1.00  0.00    -0.033 N 
HETATM   19  H15 UNL     1      25.897   5.339  50.908  1.00  0.00     0.284 HD
HETATM   20  H16 UNL     1      25.845   5.922  50.572  1.00  0.00     0.284 HD
BRANCH  17  21
HETATM   21  C13 UNL     1      26.508   2.863  50.180  1.00  0.00     0.064 C 
BRANCH  21  22
HETATM   22  C14 UNL     1      25.999   2.447  51.345  1.00  0.00     0.190 C 
HETATM   23  F1  UNL     1      25.044   3.072  52.014  1.00  0.00    -0.219 F 
ENDBRANCH  21  22
ENDBRANCH  17  21
ENDBRANCH  15  16
ENDBRANCH  12  14
ENDBRANCH   8  12
BRANCH   7  24
HETATM   24  C7  UNL     1      30.474   8.473  45.963  1.00  0.00     0.150 C 
HETATM   25 CL1  UNL     1      30.785  10.171  45.632  1.00  0.00    -0.126 Cl
ENDBRANCH   7  24
BRANCH  11  26
HETATM   26  O2  UNL     1      32.429   3.307  46.975  1.00  0.00    -0.339 OA
HETATM   27  C17 UNL     1      33.079   2.292  47.716  1.00  0.00     0.211 C 
ENDBRANCH  11  26
TORSDOF 7
ENDMDL
MODEL 7
REMARK VINA RESULT:      -5.8      4.060      6.729
REMARK  7 active torsions:
REMARK  status: ('A' for Active; 'I' for Inactive)
REMARK    1  A    between atoms: C6_7  and  C7_8 
REMARK    2  A    between atoms: C8_10  and  N1_11 
REMARK    3  A    between atoms: N1_11  and  C9_12 
REMARK    4  A    between atoms: C10_13  and  C11_14 
REMARK    5  A    between atoms: C12_15  and  C13_17 
REMARK    6  A    between atoms: C13_17  and  C14_18 
REMARK    7  A    between atoms: C16_22  and  O2_23 
ROOT
HETATM    1  C1  UNL     1      25.122   7.501  48.508  1.00  0.00     0.029 C 
HETATM    2  C2  UNL     1      26.365   7.175  48.180  1.00  0.00     0.021 C 
HETATM    3  O1  UNL     1      25.949   8.337  47.640  1.00  0.00     0.000 OA
HETATM    4  C3  UNL     1      26.583   9.472  47.190  1.00  0.00    -0.011 C 
HETATM    5  C4  UNL     1      25.902  10.027  45.930  1.00  0.00     0.010 C 
HETATM    6  C5  UNL     1      28.056   9.369  46.998  1.00  0.00     0.042 C 
HETATM    7  C6  UNL     1      28.858   9.082  48.179  1.00  0.00    -0.042 C 
HETATM    8  C8  UNL     1      29.304   7.860  48.244  1.00  0.00     0.032 C 
HETATM    9  C15 UNL     1      29.059   6.685  47.371  1.00  0.00     0.208 C 
HETATM   10  N3  UNL     1      28.410   5.693  48.241  1.00  0.00    -0.260 NA
HETATM   11  C16 UNL     1      27.162   5.954  48.595  1.00  0.00     0.170 C 
ENDROOT
BRANCH   8  12
HETATM   12  N1  UNL     1      30.123   7.217  49.225  1.00  0.00    -0.368 N 
HETATM   13  H11 UNL     1      29.789   6.496  49.903  1.00  0.00     0.165 HD
BRANCH  12  14
HETATM   14  C9  UNL     1      31.549   7.559  49.208  1.00  0.00     0.086 C 
HETATM   15  C10 UNL     1      32.532   6.741  48.926  1.00  0.00     0.029 C 
BRANCH  15  16
HETATM   16  C11 UNL     1      32.043   5.458  48.626  1.00  0.00     0.273 A 
HETATM   17  C12 UNL     1      32.499   4.364  48.088  1.00  0.00     0.147 A 
HETATM   18  N2  UNL     1      33.589   5.334  48.084  1.00  0.00    -0.033 N 
HETATM   19  H15 UNL     1      34.485   5.288  47.486  1.00  0.00     0.284 HD
HETATM   20  H16 UNL     1      34.510   5.845  47.867  1.00  0.00     0.284 HD
BRANCH  17  21
HETATM   21  C13 UNL     1      32.934   3.137  47.503  1.00  0.00     0.064 C 
BRANCH  21  22
HETATM   22  C14 UNL     1      33.011   1.809  47.639  1.00  0.00     0.190 C 
HETATM   23  F1  UNL     1      33.150   1.177  48.793  1.00  0.00    -0.219 F 
ENDBRANCH  21  22
ENDBRANCH  17  21
ENDBRANCH  15  16
ENDBRANCH  12  14
ENDBRANCH   8  12
BRANCH   7  24
HETATM   24  C7  UNL     1      29.148  10.013  49.279  1.00  0.00     0.150 C 
HETATM   25 CL1  UNL     1      30.525  11.062  48.975  1.00  0.00    -0.126 Cl
ENDBRANCH   7  24
BRANCH  11  26
HETATM   26  O2  UNL     1      26.445   5.092  49.404  1.00  0.00    -0.339 OA
HETATM   27  C17 UNL     1      26.738   3.708  49.404  1.00  0.00     0.211 C 
ENDBRANCH  11  26
TORSDOF 7
ENDMDL
MODEL 8
REMARK VINA RESULT:      -5.8      4.284      7.726
REMARK  7 active torsions:
REMARK  status: ('A' for Active; 'I' for Inactive)
REMARK    1  A    between atoms: C6_7  and  C7_8 
REMARK    2  A    between atoms: C8_10  and  N1_11 
REMARK    3  A    between atoms: N1_11  and  C9_12 
REMARK    4  A    between atoms: C10_13  and  C11_14 
REMARK    5  A    between atoms: C12_15  and  C13_17 
REMARK    6  A    between atoms: C13_17  and  C14_18 
REMARK    7  A    between atoms: C16_22  and  O2_23 
ROOT
HETATM    1  C1  UNL     1      25.123   6.979  50.566  1.00  0.00     0.029 C 
HETATM    2  C2  UNL     1      24.190   6.204  50.028  1.00  0.00     0.021 C 
HETATM    3  O1  UNL     1      25.430   5.683  49.965  1.00  0.00     0.000 OA
HETATM    4  C3  UNL     1      25.936   4.407  49.876  1.00  0.00    -0.011 C 
HETATM    5  C4  UNL     1      27.166   4.357  48.957  1.00  0.00     0.010 C 
HETATM    6  C5  UNL     1      24.962   3.338  49.520  1.00  0.00     0.042 C 
HETATM    7  C6  UNL     1      23.861   3.111  50.445  1.00  0.00    -0.042 C 
HETATM    8  C8  UNL     1      22.713   3.572  50.041  1.00  0.00     0.032 C 
HETATM    9  C15 UNL     1      22.350   4.371  48.844  1.00  0.00     0.208 C 
HETATM   10  N3  UNL     1      21.817   5.634  49.375  1.00  0.00    -0.260 NA
HETATM   11  C16 UNL     1      22.699   6.458  49.916  1.00  0.00     0.170 C 
ENDROOT
BRANCH   8  12
HETATM   12  N1  UNL     1      21.421   3.529  50.655  1.00  0.00    -0.368 N 
HETATM   13  H11 UNL     1      21.088   4.188  51.394  1.00  0.00     0.165 HD
BRANCH  12  14
HETATM   14  C9  UNL     1      20.488   2.522  50.139  1.00  0.00     0.086 C 
HETATM   15  C10 UNL     1      20.064   1.466  50.786  1.00  0.00     0.029 C 
BRANCH  15  16
HETATM   16  C11 UNL     1      20.620   1.413  52.075  1.00  0.00     0.273 A 
HETATM   17  C12 UNL     1      20.803   0.515  52.999  1.00  0.00     0.147 A 
HETATM   18  N2  UNL     1      20.145  -0.148  51.879  1.00  0.00    -0.033 N 
HETATM   19  H15 UNL     1      19.626  -1.092  51.909  1.00  0.00     0.284 HD
HETATM   20  H16 UNL     1      19.599  -0.854  51.278  1.00  0.00     0.284 HD
BRANCH  17  21
HETATM   21  C13 UNL     1      21.030  -0.418  54.056  1.00  0.00     0.064 C 
BRANCH  21  22
HETATM   22  C14 UNL     1      21.900  -0.885  54.957  1.00  0.00     0.190 C 
HETATM   23  F1  UNL     1      22.293  -2.146  55.040  1.00  0.00    -0.219 F 
ENDBRANCH  21  22
ENDBRANCH  17  21
ENDBRANCH  15  16
ENDBRANCH  12  14
ENDBRANCH   8  12
BRANCH   7  24
HETATM   24  C7  UNL     1      23.955   2.472  51.766  1.00  0.00     0.150 C 
HETATM   25 CL1  UNL     1      24.061   3.614  53.098  1.00  0.00    -0.126 Cl
ENDBRANCH   7  24
BRANCH  11  26
HETATM   26  O2  UNL     1      22.320   7.679  50.443  1.00  0.00    -0.339 OA
HETATM   27  C17 UNL     1      21.026   8.192  50.188  1.00  0.00     0.211 C 
ENDBRANCH  11  26
TORSDOF 7
ENDMDL
MODEL 9
REMARK VINA RESULT:      -5.8      4.124      7.176
REMARK  7 active torsions:
REMARK  status: ('A' for Active; 'I' for Inactive)
REMARK    1  A    between atoms: C6_7  and  C7_8 
REMARK    2  A    between atoms: C8_10  and  N1_11 
REMARK    3  A    between atoms: N1_11  and  C9_12 
REMARK    4  A    between atoms: C10_13  and  C11_14 
REMARK    5  A    between atoms: C12_15  and  C13_17 
REMARK    6  A    between atoms: C13_17  and  C14_18 
REMARK    7  A    between atoms: C16_22  and  O2_23 
ROOT
HETATM    1  C1  UNL     1      27.285   4.886  48.730  1.00  0.00     0.029 C 
HETATM    2  C2  UNL     1      26.221   4.845  49.521  1.00  0.00     0.021 C 
HETATM    3  O1  UNL     1      26.274   5.942  48.742  1.00  0.00     0.000 OA
HETATM    4  C3  UNL     1      25.336   6.814  48.240  1.00  0.00    -0.011 C 
HETATM    5  C4  UNL     1      25.860   8.258  48.244  1.00  0.00     0.010 C 
HETATM    6  C5  UNL     1      23.979   6.739  48.848  1.00  0.00     0.042 C 
HETATM    7  C6  UNL     1      23.258   5.481  48.703  1.00  0.00    -0.042 C 
HETATM    8  C8  UNL     1      23.215   4.758  49.785  1.00  0.00     0.032 C 
HETATM    9  C15 UNL     1      23.852   4.948  51.112  1.00  0.00     0.208 C 
HETATM   10  N3  UNL     1      24.742   3.790  51.277  1.00  0.00    -0.260 NA
HETATM   11  C16 UNL     1      25.830   3.776  50.524  1.00  0.00     0.170 C 
ENDROOT
BRANCH   8  12
HETATM   12  N1  UNL     1      22.599   3.490  50.036  1.00  0.00    -0.368 N 
HETATM   13  H11 UNL     1      23.054   2.563  49.880  1.00  0.00     0.165 HD
BRANCH  12  14
HETATM   14  C9  UNL     1      21.256   3.525  50.623  1.00  0.00     0.086 C 
HETATM   15  C10 UNL     1      20.804   2.724  51.554  1.00  0.00     0.029 C 
BRANCH  15  16
HETATM   16  C11 UNL     1      21.790   1.800  51.940  1.00  0.00     0.273 A 
HETATM   17  C12 UNL     1      21.950   0.908  52.874  1.00  0.00     0.147 A 
HETATM   18  N2  UNL     1      20.641   1.519  53.080  1.00  0.00    -0.033 N 
HETATM   19  H15 UNL     1      20.053   1.484  53.983  1.00  0.00     0.284 HD
HETATM   20  H16 UNL     1      19.712   1.837  53.519  1.00  0.00     0.284 HD
BRANCH  17  21
HETATM   21  C13 UNL     1      22.191  -0.081  53.875  1.00  0.00     0.064 C 
BRANCH  21  22
HETATM   22  C14 UNL     1      21.646  -0.910  54.771  1.00  0.00     0.190 C 
HETATM   23  F1  UNL     1      21.769  -2.228  54.750  1.00  0.00    -0.219 F 
ENDBRANCH  21  22
ENDBRANCH  17  21
ENDBRANCH  15  16
ENDBRANCH  12  14
ENDBRANCH   8  12
BRANCH   7  24
HETATM   24  C7  UNL     1      22.647   4.968  47.469  1.00  0.00     0.150 C 
HETATM   25 CL1  UNL     1      20.912   5.234  47.375  1.00  0.00    -0.126 Cl
ENDBRANCH   7  24
BRANCH  11  26
HETATM   26  O2  UNL     1      26.746   2.744  50.596  1.00  0.00    -0.339 OA
HETATM   27  C17 UNL     1      26.908   2.019  51.801  1.00  0.00     0.211 C 
ENDBRANCH  11  26
TORSDOF 7
ENDMDL
