MODEL 1
REMARK VINA RESULT:      -6.9      0.000      0.000
REMARK  2 active torsions:
REMARK  status: ('A' for Active; 'I' for Inactive)
REMARK    1  A    between atoms: O1_2  and  C2_3 
REMARK    2  A    between atoms: C8_12  and  O2_13 
ROOT
HETATM    1  C2  UNL     1      24.669   3.220  51.697  1.00  0.00     0.076 C 
HETATM    2  C3  UNL     1      23.657   3.998  51.368  1.00  0.00     0.070 C 
HETATM    3  N1  UNL     1      22.424   4.516  52.046  1.00  0.00    -0.360 N 
HETATM    4  C4  UNL     1      21.060   4.059  52.333  1.00  0.00     0.274 C 
HETATM    5  N2  UNL     1      19.982   3.233  52.266  1.00  0.00    -0.179 NA
HETATM    6  N3  UNL     1      20.025   2.062  51.522  1.00  0.00    -0.228 N 
HETATM    7  C5  UNL     1      20.163   0.672  51.661  1.00  0.00     0.117 C 
HETATM    8  C6  UNL     1      21.419   0.477  52.144  1.00  0.00     0.001 C 
HETATM    9  C7  UNL     1      22.758   0.586  52.636  1.00  0.00     0.058 C 
HETATM   10  C8  UNL     1      23.895   1.318  53.012  1.00  0.00     0.103 C 
HETATM   11  C9  UNL     1      24.286   2.837  53.083  1.00  0.00     0.108 C 
HETATM   12  C10 UNL     1      20.047   2.304  50.047  1.00  0.00     0.165 C 
HETATM   13  C11 UNL     1      20.456   1.152  49.332  1.00  0.00     0.140 C 
HETATM   14  N4  UNL     1      21.835   1.326  48.620  1.00  0.00    -0.365 N 
HETATM   15  C12 UNL     1      22.414   2.704  48.459  1.00  0.00     0.015 C 
HETATM   16  C13 UNL     1      23.436   2.858  49.406  1.00  0.00     0.039 C 
HETATM   17  C14 UNL     1      23.025   4.261  49.980  1.00  0.00    -0.003 C 
HETATM   18  C15 UNL     1      22.047   5.173  49.701  1.00  0.00     0.041 C 
HETATM   19  C16 UNL     1      21.058   4.267  49.027  1.00  0.00     0.043 C 
HETATM   20  N5  UNL     1      19.857   3.674  49.352  1.00  0.00    -0.232 NA
HETATM   21  C17 UNL     1      21.756   3.827  47.673  1.00  0.00     0.116 C 
HETATM   22  H4  UNL     1      22.389   5.487  52.489  1.00  0.00     0.162 HD
HETATM   23  H13 UNL     1      22.453   0.595  48.317  1.00  0.00     0.165 HD
ENDROOT
BRANCH   1  24
HETATM   24  O1  UNL     1      25.546   3.128  50.646  1.00  0.00    -0.358 OA
HETATM   25  C1  UNL     1      26.792   2.519  50.879  1.00  0.00     0.209 C 
ENDBRANCH   1  24
BRANCH  10  26
HETATM   26  O2  UNL     1      24.477   0.094  53.292  1.00  0.00    -0.386 OA
HETATM   27  H9  UNL     1      25.296  -0.177  52.727  1.00  0.00     0.210 HD
ENDBRANCH  10  26
TORSDOF 2
ENDMDL
MODEL 2
REMARK VINA RESULT:      -6.8      1.724      3.959
REMARK  2 active torsions:
REMARK  status: ('A' for Active; 'I' for Inactive)
REMARK    1  A    between atoms: O1_2  and  C2_3 
REMARK    2  A    between atoms: C8_12  and  O2_13 
ROOT
HETATM    1  C2  UNL     1      24.276   3.141  51.216  1.00  0.00     0.076 C 
HETATM    2  C3  UNL     1      23.571   2.598  50.243  1.00  0.00     0.070 C 
HETATM    3  N1  UNL     1      23.264   2.927  48.813  1.00  0.00    -0.360 N 
HETATM    4  C4  UNL     1      22.328   3.772  48.062  1.00  0.00     0.274 C 
HETATM    5  N2  UNL     1      21.267   4.603  47.883  1.00  0.00    -0.179 NA
HETATM    6  N3  UNL     1      20.484   5.001  48.958  1.00  0.00    -0.228 N 
HETATM    7  C5  UNL     1      20.259   6.091  49.814  1.00  0.00     0.117 C 
HETATM    8  C6  UNL     1      21.409   6.238  50.526  1.00  0.00     0.001 C 
HETATM    9  C7  UNL     1      22.713   6.143  51.106  1.00  0.00     0.058 C 
HETATM   10  C8  UNL     1      23.984   5.562  51.236  1.00  0.00     0.103 C 
HETATM   11  C9  UNL     1      24.758   4.381  50.550  1.00  0.00     0.108 C 
HETATM   12  C10 UNL     1      19.644   3.897  49.513  1.00  0.00     0.165 C 
HETATM   13  C11 UNL     1      19.148   4.213  50.802  1.00  0.00     0.140 C 
HETATM   14  N4  UNL     1      19.743   3.311  51.929  1.00  0.00    -0.365 N 
HETATM   15  C12 UNL     1      20.465   2.046  51.559  1.00  0.00     0.015 C 
HETATM   16  C13 UNL     1      21.842   2.278  51.694  1.00  0.00     0.039 C 
HETATM   17  C14 UNL     1      22.322   1.687  50.319  1.00  0.00    -0.003 C 
HETATM   18  C15 UNL     1      21.713   1.067  49.266  1.00  0.00     0.041 C 
HETATM   19  C16 UNL     1      20.310   1.558  49.475  1.00  0.00     0.043 C 
HETATM   20  N5  UNL     1      19.475   2.489  48.895  1.00  0.00    -0.232 NA
HETATM   21  C17 UNL     1      19.830   0.876  50.824  1.00  0.00     0.116 C 
HETATM   22  H4  UNL     1      23.806   2.489  48.004  1.00  0.00     0.162 HD
HETATM   23  H13 UNL     1      19.781   3.520  52.911  1.00  0.00     0.165 HD
ENDROOT
BRANCH   1  24
HETATM   24  O1  UNL     1      24.218   2.346  52.333  1.00  0.00    -0.358 OA
HETATM   25  C1  UNL     1      25.378   2.231  53.121  1.00  0.00     0.209 C 
ENDBRANCH   1  24
BRANCH  10  26
HETATM   26  O2  UNL     1      24.216   6.510  52.217  1.00  0.00    -0.386 OA
HETATM   27  H9  UNL     1      25.196   6.665  52.497  1.00  0.00     0.210 HD
ENDBRANCH  10  26
TORSDOF 2
ENDMDL
MODEL 3
REMARK VINA RESULT:      -6.6      2.150      3.788
REMARK  2 active torsions:
REMARK  status: ('A' for Active; 'I' for Inactive)
REMARK    1  A    between atoms: O1_2  and  C2_3 
REMARK    2  A    between atoms: C8_12  and  O2_13 
ROOT
HETATM    1  C2  UNL     1      24.349   5.888  49.109  1.00  0.00     0.076 C 
HETATM    2  C3  UNL     1      23.458   5.854  50.079  1.00  0.00     0.070 C 
HETATM    3  N1  UNL     1      23.484   5.923  51.576  1.00  0.00    -0.360 N 
HETATM    4  C4  UNL     1      23.707   5.017  52.709  1.00  0.00     0.274 C 
HETATM    5  N2  UNL     1      23.903   3.824  53.332  1.00  0.00    -0.179 NA
HETATM    6  N3  UNL     1      23.954   2.642  52.608  1.00  0.00    -0.228 N 
HETATM    7  C5  UNL     1      24.863   1.697  52.104  1.00  0.00     0.117 C 
HETATM    8  C6  UNL     1      25.603   2.362  51.177  1.00  0.00     0.001 C 
HETATM    9  C7  UNL     1      26.199   3.305  50.282  1.00  0.00     0.058 C 
HETATM   10  C8  UNL     1      26.318   4.580  49.708  1.00  0.00     0.103 C 
HETATM   11  C9  UNL     1      25.611   5.970  49.893  1.00  0.00     0.108 C 
HETATM   12  C10 UNL     1      22.629   2.237  52.048  1.00  0.00     0.165 C 
HETATM   13  C11 UNL     1      22.766   1.260  51.032  1.00  0.00     0.140 C 
HETATM   14  N4  UNL     1      22.357   1.782  49.617  1.00  0.00    -0.365 N 
HETATM   15  C12 UNL     1      21.576   3.060  49.499  1.00  0.00     0.015 C 
HETATM   16  C13 UNL     1      22.456   4.068  49.078  1.00  0.00     0.039 C 
HETATM   17  C14 UNL     1      22.065   5.180  50.117  1.00  0.00    -0.003 C 
HETATM   18  C15 UNL     1      21.147   5.287  51.123  1.00  0.00     0.041 C 
HETATM   19  C16 UNL     1      20.912   3.828  51.390  1.00  0.00     0.043 C 
HETATM   20  N5  UNL     1      21.272   2.914  52.356  1.00  0.00    -0.232 NA
HETATM   21  C17 UNL     1      20.191   3.281  50.087  1.00  0.00     0.116 C 
HETATM   22  H4  UNL     1      23.300   6.834  52.103  1.00  0.00     0.162 HD
HETATM   23  H13 UNL     1      22.634   1.400  48.731  1.00  0.00     0.165 HD
ENDROOT
BRANCH   1  24
HETATM   24  O1  UNL     1      23.717   5.819  47.893  1.00  0.00    -0.358 OA
HETATM   25  C1  UNL     1      23.512   7.019  47.188  1.00  0.00     0.209 C 
ENDBRANCH   1  24
BRANCH  10  26
HETATM   26  O2  UNL     1      27.334   4.039  48.940  1.00  0.00    -0.386 OA
HETATM   27  H9  UNL     1      27.201   4.040  47.917  1.00  0.00     0.210 HD
ENDBRANCH  10  26
TORSDOF 2
ENDMDL
MODEL 4
REMARK VINA RESULT:      -6.3      2.736      4.888
REMARK  2 active torsions:
REMARK  status: ('A' for Active; 'I' for Inactive)
REMARK    1  A    between atoms: O1_2  and  C2_3 
REMARK    2  A    between atoms: C8_12  and  O2_13 
ROOT
HETATM    1  C2  UNL     1      20.138   5.554  49.590  1.00  0.00     0.076 C 
HETATM    2  C3  UNL     1      21.286   5.167  49.072  1.00  0.00     0.070 C 
HETATM    3  N1  UNL     1      21.844   3.897  48.502  1.00  0.00    -0.360 N 
HETATM    4  C4  UNL     1      22.456   2.656  48.990  1.00  0.00     0.274 C 
HETATM    5  N2  UNL     1      22.992   1.806  49.906  1.00  0.00    -0.179 NA
HETATM    6  N3  UNL     1      23.100   2.172  51.240  1.00  0.00    -0.228 N 
HETATM    7  C5  UNL     1      22.494   1.971  52.491  1.00  0.00     0.117 C 
HETATM    8  C6  UNL     1      21.252   2.515  52.385  1.00  0.00     0.001 C 
HETATM    9  C7  UNL     1      20.039   3.156  51.980  1.00  0.00     0.058 C 
HETATM   10  C8  UNL     1      19.229   3.823  51.048  1.00  0.00     0.103 C 
HETATM   11  C9  UNL     1      19.372   4.279  49.553  1.00  0.00     0.108 C 
HETATM   12  C10 UNL     1      24.131   3.227  51.479  1.00  0.00     0.165 C 
HETATM   13  C11 UNL     1      23.973   3.838  52.747  1.00  0.00     0.140 C 
HETATM   14  N4  UNL     1      23.546   5.338  52.659  1.00  0.00    -0.365 N 
HETATM   15  C12 UNL     1      23.670   6.066  51.351  1.00  0.00     0.015 C 
HETATM   16  C13 UNL     1      22.387   6.177  50.794  1.00  0.00     0.039 C 
HETATM   17  C14 UNL     1      22.716   5.697  49.334  1.00  0.00    -0.003 C 
HETATM   18  C15 UNL     1      23.848   5.320  48.670  1.00  0.00     0.041 C 
HETATM   19  C16 UNL     1      24.700   4.937  49.845  1.00  0.00     0.043 C 
HETATM   20  N5  UNL     1      25.134   3.767  50.430  1.00  0.00    -0.232 NA
HETATM   21  C17 UNL     1      24.980   6.295  50.614  1.00  0.00     0.116 C 
HETATM   22  H4  UNL     1      21.868   3.713  47.450  1.00  0.00     0.162 HD
HETATM   23  H13 UNL     1      23.099   5.880  53.377  1.00  0.00     0.165 HD
ENDROOT
BRANCH   1  24
HETATM   24  O1  UNL     1      20.200   6.885  49.916  1.00  0.00    -0.358 OA
HETATM   25  C1  UNL     1      19.460   7.791  49.134  1.00  0.00     0.209 C 
ENDBRANCH   1  24
BRANCH  10  26
HETATM   26  O2  UNL     1      18.274   3.869  52.049  1.00  0.00    -0.386 OA
HETATM   27  H9  UNL     1      18.516   3.425  52.948  1.00  0.00     0.210 HD
ENDBRANCH  10  26
TORSDOF 2
ENDMDL
MODEL 5
REMARK VINA RESULT:      -6.3     23.441     25.487
REMARK  2 active torsions:
REMARK  status: ('A' for Active; 'I' for Inactive)
REMARK    1  A    between atoms: O1_2  and  C2_3 
REMARK    2  A    between atoms: C8_12  and  O2_13 
ROOT
HETATM    1  C2  UNL     1      37.944  -3.390  67.739  1.00  0.00     0.076 C 
HETATM    2  C3  UNL     1      38.018  -2.092  67.521  1.00  0.00     0.070 C 
HETATM    3  N1  UNL     1      38.794  -1.189  66.610  1.00  0.00    -0.360 N 
HETATM    4  C4  UNL     1      40.116  -0.555  66.566  1.00  0.00     0.274 C 
HETATM    5  N2  UNL     1      41.337  -0.183  67.035  1.00  0.00    -0.179 NA
HETATM    6  N3  UNL     1      41.749  -0.538  68.312  1.00  0.00    -0.228 N 
HETATM    7  C5  UNL     1      42.577  -1.447  68.990  1.00  0.00     0.117 C 
HETATM    8  C6  UNL     1      42.033  -2.673  68.764  1.00  0.00     0.001 C 
HETATM    9  C7  UNL     1      41.248  -3.799  68.362  1.00  0.00     0.058 C 
HETATM   10  C8  UNL     1      40.166  -4.394  67.694  1.00  0.00     0.103 C 
HETATM   11  C9  UNL     1      38.981  -3.890  66.796  1.00  0.00     0.108 C 
HETATM   12  C10 UNL     1      41.011   0.187  69.390  1.00  0.00     0.165 C 
HETATM   13  C11 UNL     1      41.174  -0.439  70.650  1.00  0.00     0.140 C 
HETATM   14  N4  UNL     1      39.853  -1.060  71.205  1.00  0.00    -0.365 N 
HETATM   15  C12 UNL     1      38.539  -0.675  70.587  1.00  0.00     0.015 C 
HETATM   16  C13 UNL     1      38.117  -1.734  69.770  1.00  0.00     0.039 C 
HETATM   17  C14 UNL     1      37.743  -0.912  68.484  1.00  0.00    -0.003 C 
HETATM   18  C15 UNL     1      37.730   0.412  68.150  1.00  0.00     0.041 C 
HETATM   19  C16 UNL     1      38.704   0.927  69.169  1.00  0.00     0.043 C 
HETATM   20  N5  UNL     1      40.015   1.353  69.179  1.00  0.00    -0.232 NA
HETATM   21  C17 UNL     1      37.980   0.739  70.567  1.00  0.00     0.116 C 
HETATM   22  H4  UNL     1      38.384  -0.823  65.694  1.00  0.00     0.162 HD
HETATM   23  H13 UNL     1      39.772  -1.783  71.898  1.00  0.00     0.165 HD
ENDROOT
BRANCH   1  24
HETATM   24  O1  UNL     1      36.999  -3.647  68.700  1.00  0.00    -0.358 OA
HETATM   25  C1  UNL     1      36.531  -4.968  68.827  1.00  0.00     0.209 C 
ENDBRANCH   1  24
BRANCH  10  26
HETATM   26  O2  UNL     1      40.644  -5.596  68.184  1.00  0.00    -0.386 OA
HETATM   27  H9  UNL     1      41.094  -5.579  69.113  1.00  0.00     0.210 HD
ENDBRANCH  10  26
TORSDOF 2
ENDMDL
MODEL 6
REMARK VINA RESULT:      -6.2      9.657     12.261
REMARK  2 active torsions:
REMARK  status: ('A' for Active; 'I' for Inactive)
REMARK    1  A    between atoms: O1_2  and  C2_3 
REMARK    2  A    between atoms: C8_12  and  O2_13 
ROOT
HETATM    1  C2  UNL     1      32.704   6.633  46.912  1.00  0.00     0.076 C 
HETATM    2  C3  UNL     1      31.532   7.027  46.456  1.00  0.00     0.070 C 
HETATM    3  N1  UNL     1      31.034   7.793  45.267  1.00  0.00    -0.360 N 
HETATM    4  C4  UNL     1      30.870   9.192  44.858  1.00  0.00     0.274 C 
HETATM    5  N2  UNL     1      30.864  10.544  45.010  1.00  0.00    -0.179 NA
HETATM    6  N3  UNL     1      31.192  11.125  46.227  1.00  0.00    -0.228 N 
HETATM    7  C5  UNL     1      32.240  11.789  46.884  1.00  0.00     0.117 C 
HETATM    8  C6  UNL     1      33.242  10.874  46.989  1.00  0.00     0.001 C 
HETATM    9  C7  UNL     1      34.090   9.723  46.952  1.00  0.00     0.058 C 
HETATM   10  C8  UNL     1      34.372   8.389  46.621  1.00  0.00     0.103 C 
HETATM   11  C9  UNL     1      33.612   7.224  45.892  1.00  0.00     0.108 C 
HETATM   12  C10 UNL     1      30.154  10.909  47.280  1.00  0.00     0.165 C 
HETATM   13  C11 UNL     1      30.658  11.178  48.576  1.00  0.00     0.140 C 
HETATM   14  N4  UNL     1      30.755   9.905  49.476  1.00  0.00    -0.365 N 
HETATM   15  C12 UNL     1      30.034   8.653  49.063  1.00  0.00     0.015 C 
HETATM   16  C13 UNL     1      30.982   7.759  48.544  1.00  0.00     0.039 C 
HETATM   17  C14 UNL     1      30.229   7.346  47.228  1.00  0.00    -0.003 C 
HETATM   18  C15 UNL     1      29.017   7.640  46.673  1.00  0.00     0.041 C 
HETATM   19  C16 UNL     1      28.736   8.935  47.378  1.00  0.00     0.043 C 
HETATM   20  N5  UNL     1      28.759  10.276  47.060  1.00  0.00    -0.232 NA
HETATM   21  C17 UNL     1      28.527   8.541  48.899  1.00  0.00     0.116 C 
HETATM   22  H4  UNL     1      30.657   7.302  44.396  1.00  0.00     0.162 HD
HETATM   23  H13 UNL     1      31.332   9.784  50.289  1.00  0.00     0.165 HD
ENDROOT
BRANCH   1  24
HETATM   24  O1  UNL     1      32.536   5.911  48.066  1.00  0.00    -0.358 OA
HETATM   25  C1  UNL     1      32.665   4.511  47.992  1.00  0.00     0.209 C 
ENDBRANCH   1  24
BRANCH  10  26
HETATM   26  O2  UNL     1      35.603   8.597  47.216  1.00  0.00    -0.386 OA
HETATM   27  H9  UNL     1      35.665   9.356  47.913  1.00  0.00     0.210 HD
ENDBRANCH  10  26
TORSDOF 2
ENDMDL
MODEL 7
REMARK VINA RESULT:      -6.2      7.859      9.600
REMARK  2 active torsions:
REMARK  status: ('A' for Active; 'I' for Inactive)
REMARK    1  A    between atoms: O1_2  and  C2_3 
REMARK    2  A    between atoms: C8_12  and  O2_13 
ROOT
HETATM    1  C2  UNL     1      31.487   8.506  48.235  1.00  0.00     0.076 C 
HETATM    2  C3  UNL     1      30.641   9.467  48.549  1.00  0.00     0.070 C 
HETATM    3  N1  UNL     1      29.672   9.738  49.660  1.00  0.00    -0.360 N 
HETATM    4  C4  UNL     1      28.296   9.378  50.023  1.00  0.00     0.274 C 
HETATM    5  N2  UNL     1      27.061   8.838  49.847  1.00  0.00    -0.179 NA
HETATM    6  N3  UNL     1      26.727   8.192  48.665  1.00  0.00    -0.228 N 
HETATM    7  C5  UNL     1      26.564   6.908  48.118  1.00  0.00     0.117 C 
HETATM    8  C6  UNL     1      27.800   6.342  48.144  1.00  0.00     0.001 C 
HETATM    9  C7  UNL     1      29.186   6.022  48.297  1.00  0.00     0.058 C 
HETATM   10  C8  UNL     1      30.502   6.320  48.681  1.00  0.00     0.103 C 
HETATM   11  C9  UNL     1      31.234   7.542  49.341  1.00  0.00     0.108 C 
HETATM   12  C10 UNL     1      26.586   9.123  47.505  1.00  0.00     0.165 C 
HETATM   13  C11 UNL     1      26.613   8.431  46.270  1.00  0.00     0.140 C 
HETATM   14  N4  UNL     1      27.876   8.755  45.409  1.00  0.00    -0.365 N 
HETATM   15  C12 UNL     1      28.723   9.946  45.760  1.00  0.00     0.015 C 
HETATM   16  C13 UNL     1      29.881   9.480  46.399  1.00  0.00     0.039 C 
HETATM   17  C14 UNL     1      29.889  10.459  47.629  1.00  0.00    -0.003 C 
HETATM   18  C15 UNL     1      29.114  11.506  48.038  1.00  0.00     0.041 C 
HETATM   19  C16 UNL     1      27.857  11.185  47.283  1.00  0.00     0.043 C 
HETATM   20  N5  UNL     1      26.613  10.669  47.577  1.00  0.00    -0.232 NA
HETATM   21  C17 UNL     1      28.230  11.384  45.755  1.00  0.00     0.116 C 
HETATM   22  H4  UNL     1      29.924  10.359  50.491  1.00  0.00     0.162 HD
HETATM   23  H13 UNL     1      28.261   8.196  44.669  1.00  0.00     0.165 HD
ENDROOT
BRANCH   1  24
HETATM   24  O1  UNL     1      32.155   8.832  47.083  1.00  0.00    -0.358 OA
HETATM   25  C1  UNL     1      33.348   8.142  46.795  1.00  0.00     0.209 C 
ENDBRANCH   1  24
BRANCH  10  26
HETATM   26  O2  UNL     1      30.824   5.054  48.226  1.00  0.00    -0.386 OA
HETATM   27  H9  UNL     1      30.076   4.343  48.245  1.00  0.00     0.210 HD
ENDBRANCH  10  26
TORSDOF 2
ENDMDL
MODEL 8
REMARK VINA RESULT:      -6.1      2.226      4.601
REMARK  2 active torsions:
REMARK  status: ('A' for Active; 'I' for Inactive)
REMARK    1  A    between atoms: O1_2  and  C2_3 
REMARK    2  A    between atoms: C8_12  and  O2_13 
ROOT
HETATM    1  C2  UNL     1      20.470   2.384  49.207  1.00  0.00     0.076 C 
HETATM    2  C3  UNL     1      21.374   3.251  48.797  1.00  0.00     0.070 C 
HETATM    3  N1  UNL     1      22.800   3.194  48.339  1.00  0.00    -0.360 N 
HETATM    4  C4  UNL     1      24.140   3.154  48.936  1.00  0.00     0.274 C 
HETATM    5  N2  UNL     1      25.062   3.207  49.934  1.00  0.00    -0.179 NA
HETATM    6  N3  UNL     1      24.677   3.413  51.251  1.00  0.00    -0.228 N 
HETATM    7  C5  UNL     1      24.481   2.730  52.462  1.00  0.00     0.117 C 
HETATM    8  C6  UNL     1      23.446   1.877  52.235  1.00  0.00     0.001 C 
HETATM    9  C7  UNL     1      22.362   1.106  51.708  1.00  0.00     0.058 C 
HETATM   10  C8  UNL     1      21.480   0.727  50.685  1.00  0.00     0.103 C 
HETATM   11  C9  UNL     1      21.261   1.124  49.181  1.00  0.00     0.108 C 
HETATM   12  C10 UNL     1      24.184   4.800  51.508  1.00  0.00     0.165 C 
HETATM   13  C11 UNL     1      23.466   4.884  52.726  1.00  0.00     0.140 C 
HETATM   14  N4  UNL     1      21.948   5.191  52.527  1.00  0.00    -0.365 N 
HETATM   15  C12 UNL     1      21.463   5.686  51.194  1.00  0.00     0.015 C 
HETATM   16  C13 UNL     1      20.832   4.618  50.539  1.00  0.00     0.039 C 
HETATM   17  C14 UNL     1      21.525   4.754  49.135  1.00  0.00    -0.003 C 
HETATM   18  C15 UNL     1      22.424   5.617  48.578  1.00  0.00     0.041 C 
HETATM   19  C16 UNL     1      23.053   6.152  49.831  1.00  0.00     0.043 C 
HETATM   20  N5  UNL     1      24.241   5.981  50.509  1.00  0.00    -0.232 NA
HETATM   21  C17 UNL     1      21.909   6.986  50.545  1.00  0.00     0.116 C 
HETATM   22  H4  UNL     1      23.060   3.176  47.303  1.00  0.00     0.162 HD
HETATM   23  H13 UNL     1      21.206   5.009  53.180  1.00  0.00     0.165 HD
ENDROOT
BRANCH   1  24
HETATM   24  O1  UNL     1      19.288   3.030  49.465  1.00  0.00    -0.358 OA
HETATM   25  C1  UNL     1      18.113   2.258  49.526  1.00  0.00     0.209 C 
ENDBRANCH   1  24
BRANCH  10  26
HETATM   26  O2  UNL     1      20.928  -0.142  51.608  1.00  0.00    -0.386 OA
HETATM   27  H9  UNL     1      20.422   0.277  52.404  1.00  0.00     0.210 HD
ENDBRANCH  10  26
TORSDOF 2
ENDMDL
MODEL 9
REMARK VINA RESULT:      -6.0      2.933      4.789
REMARK  2 active torsions:
REMARK  status: ('A' for Active; 'I' for Inactive)
REMARK    1  A    between atoms: O1_2  and  C2_3 
REMARK    2  A    between atoms: C8_12  and  O2_13 
ROOT
HETATM    1  C2  UNL     1      22.660   7.688  50.170  1.00  0.00     0.076 C 
HETATM    2  C3  UNL     1      22.104   6.701  50.843  1.00  0.00     0.070 C 
HETATM    3  N1  UNL     1      22.472   5.854  52.024  1.00  0.00    -0.360 N 
HETATM    4  C4  UNL     1      23.269   4.654  52.304  1.00  0.00     0.274 C 
HETATM    5  N2  UNL     1      24.016   3.556  52.009  1.00  0.00    -0.179 NA
HETATM    6  N3  UNL     1      24.298   3.219  50.692  1.00  0.00    -0.228 N 
HETATM    7  C5  UNL     1      25.326   3.272  49.737  1.00  0.00     0.117 C 
HETATM    8  C6  UNL     1      25.535   4.595  49.501  1.00  0.00     0.001 C 
HETATM    9  C7  UNL     1      25.524   6.025  49.463  1.00  0.00     0.058 C 
HETATM   10  C8  UNL     1      25.045   7.282  49.864  1.00  0.00     0.103 C 
HETATM   11  C9  UNL     1      23.965   7.806  50.875  1.00  0.00     0.108 C 
HETATM   12  C10 UNL     1      23.104   2.721  49.944  1.00  0.00     0.165 C 
HETATM   13  C11 UNL     1      23.319   2.735  48.544  1.00  0.00     0.140 C 
HETATM   14  N4  UNL     1      22.419   3.767  47.793  1.00  0.00    -0.365 N 
HETATM   15  C12 UNL     1      21.238   4.368  48.500  1.00  0.00     0.015 C 
HETATM   16  C13 UNL     1      21.577   5.676  48.876  1.00  0.00     0.039 C 
HETATM   17  C14 UNL     1      21.091   5.631  50.370  1.00  0.00    -0.003 C 
HETATM   18  C15 UNL     1      20.471   4.706  51.159  1.00  0.00     0.041 C 
HETATM   19  C16 UNL     1      20.833   3.461  50.402  1.00  0.00     0.043 C 
HETATM   20  N5  UNL     1      21.716   2.414  50.556  1.00  0.00    -0.232 NA
HETATM   21  C17 UNL     1      20.053   3.573  49.026  1.00  0.00     0.116 C 
HETATM   22  H4  UNL     1      22.117   6.071  53.008  1.00  0.00     0.162 HD
HETATM   23  H13 UNL     1      22.586   4.163  46.885  1.00  0.00     0.165 HD
ENDROOT
BRANCH   1  24
HETATM   24  O1  UNL     1      21.814   8.108  49.175  1.00  0.00    -0.358 OA
HETATM   25  C1  UNL     1      21.577   9.489  49.049  1.00  0.00     0.209 C 
ENDBRANCH   1  24
BRANCH  10  26
HETATM   26  O2  UNL     1      25.964   7.813  48.975  1.00  0.00    -0.386 OA
HETATM   27  H9  UNL     1      26.937   7.477  49.050  1.00  0.00     0.210 HD
ENDBRANCH  10  26
TORSDOF 2
ENDMDL
