MODEL 1
REMARK VINA RESULT:     -10.6      0.000      0.000
REMARK  3 active torsions:
REMARK  status: ('A' for Active; 'I' for Inactive)
REMARK    1  A    between atoms: C9_10  and  N2_11 
REMARK    2  A    between atoms: C9_10  and  C17_21 
REMARK    3  A    between atoms: N2_11  and  C10_12 
ROOT
HETATM    1  C1  UNL     1      20.085   3.040  50.230  1.00  0.00     0.048 C 
HETATM    2  C2  UNL     1      20.708   2.054  51.099  1.00  0.00    -0.057 A 
HETATM    3  C3  UNL     1      20.488   0.655  51.163  1.00  0.00    -0.007 A 
HETATM    4  C4  UNL     1      21.326   0.234  52.218  1.00  0.00     0.016 A 
HETATM    5  C5  UNL     1      22.265   0.387  53.247  1.00  0.00     0.032 A 
HETATM    6  C6  UNL     1      22.378   1.845  53.056  1.00  0.00     0.049 A 
HETATM    7  C7  UNL     1      21.629   2.518  52.049  1.00  0.00    -0.029 A 
HETATM    8  C8  UNL     1      22.406   3.720  52.262  1.00  0.00     0.122 C 
HETATM    9  N1  UNL     1      23.598   4.058  52.030  1.00  0.00    -0.263 NA
HETATM   10  C9  UNL     1      24.735   3.397  51.439  1.00  0.00     0.164 C 
HETATM   11  C23 UNL     1      24.347   2.229  50.474  1.00  0.00     0.142 C 
HETATM   12  C24 UNL     1      23.306   1.510  51.069  1.00  0.00    -0.166 C 
HETATM   13  C25 UNL     1      22.436   0.934  51.570  1.00  0.00     0.038 A 
ENDROOT
BRANCH  10  14
HETATM   14  N2  UNL     1      25.593   2.843  52.422  1.00  0.00    -0.337 N 
HETATM   15  H8  UNL     1      25.783   3.633  53.145  1.00  0.00     0.164 HD
BRANCH  14  16
HETATM   16  C10 UNL     1      26.278   1.662  52.851  1.00  0.00     0.164 A 
HETATM   17  N3  UNL     1      27.080   1.073  52.112  1.00  0.00    -0.240 NA
HETATM   18  C11 UNL     1      27.390   0.080  53.041  1.00  0.00     0.132 A 
HETATM   19  C12 UNL     1      26.980  -1.326  52.676  1.00  0.00     0.018 A 
HETATM   20  C16 UNL     1      28.856   0.105  53.493  1.00  0.00     0.076 A 
HETATM   21  S1  UNL     1      26.300   0.699  54.304  1.00  0.00    -0.054 SA
HETATM   22  C13 UNL     1      27.601  -2.488  52.679  1.00  0.00    -0.001 A 
HETATM   23  C14 UNL     1      28.984  -2.443  53.121  1.00  0.00    -0.004 A 
HETATM   24  C15 UNL     1      29.433  -1.247  53.455  1.00  0.00    -0.023 A 
ENDBRANCH  14  16
ENDBRANCH  10  14
BRANCH  10  25
HETATM   25  C17 UNL     1      25.322   4.405  50.512  1.00  0.00    -0.007 A 
HETATM   26  C18 UNL     1      26.462   3.944  49.819  1.00  0.00     0.013 A 
HETATM   27  C19 UNL     1      27.189   4.700  48.913  1.00  0.00     0.024 A 
HETATM   28  C20 UNL     1      26.826   5.983  48.635  1.00  0.00     0.034 A 
HETATM   29 CL1  UNL     1      27.703   6.983  47.515  1.00  0.00    -0.084 Cl
HETATM   30  C21 UNL     1      25.720   6.507  49.275  1.00  0.00     0.024 A 
HETATM   31  C22 UNL     1      25.081   5.695  50.136  1.00  0.00     0.013 A 
ENDBRANCH  10  25
TORSDOF 3
ENDMDL
MODEL 2
REMARK VINA RESULT:     -10.3      2.602      3.482
REMARK  3 active torsions:
REMARK  status: ('A' for Active; 'I' for Inactive)
REMARK    1  A    between atoms: C9_10  and  N2_11 
REMARK    2  A    between atoms: C9_10  and  C17_21 
REMARK    3  A    between atoms: N2_11  and  C10_12 
ROOT
HETATM    1  C1  UNL     1      18.192  -0.212  52.191  1.00  0.00     0.048 C 
HETATM    2  C2  UNL     1      19.324  -0.498  53.059  1.00  0.00    -0.057 A 
HETATM    3  C3  UNL     1      19.701  -1.726  53.658  1.00  0.00    -0.007 A 
HETATM    4  C4  UNL     1      20.837  -1.386  54.425  1.00  0.00     0.016 A 
HETATM    5  C5  UNL     1      21.828  -0.541  54.942  1.00  0.00     0.032 A 
HETATM    6  C6  UNL     1      21.305   0.651  54.250  1.00  0.00     0.049 A 
HETATM    7  C7  UNL     1      20.157   0.574  53.410  1.00  0.00    -0.029 A 
HETATM    8  C8  UNL     1      20.413   1.912  52.921  1.00  0.00     0.122 C 
HETATM    9  N1  UNL     1      21.294   2.433  52.185  1.00  0.00    -0.263 NA
HETATM   10  C9  UNL     1      22.450   1.929  51.487  1.00  0.00     0.164 C 
HETATM   11  C23 UNL     1      22.371   0.400  51.169  1.00  0.00     0.142 C 
HETATM   12  C24 UNL     1      21.854  -0.245  52.296  1.00  0.00    -0.166 C 
HETATM   13  C25 UNL     1      21.413  -0.761  53.234  1.00  0.00     0.038 A 
ENDROOT
BRANCH  10  14
HETATM   14  N2  UNL     1      23.642   2.129  52.228  1.00  0.00    -0.337 N 
HETATM   15  H8  UNL     1      23.390   2.809  53.038  1.00  0.00     0.164 HD
BRANCH  14  16
HETATM   16  C10 UNL     1      25.023   1.774  52.347  1.00  0.00     0.164 A 
HETATM   17  N3  UNL     1      25.469   1.245  53.376  1.00  0.00    -0.240 NA
HETATM   18  C11 UNL     1      26.777   1.147  52.901  1.00  0.00     0.132 A 
HETATM   19  C12 UNL     1      27.812   1.974  53.624  1.00  0.00     0.018 A 
HETATM   20  C16 UNL     1      27.265  -0.299  52.749  1.00  0.00     0.076 A 
HETATM   21  S1  UNL     1      26.428   1.895  51.323  1.00  0.00    -0.054 SA
HETATM   22  C13 UNL     1      29.005   1.714  54.120  1.00  0.00    -0.001 A 
HETATM   23  C14 UNL     1      29.451   0.342  53.955  1.00  0.00    -0.004 A 
HETATM   24  C15 UNL     1      28.602  -0.460  53.337  1.00  0.00    -0.023 A 
ENDBRANCH  14  16
ENDBRANCH  10  14
BRANCH  10  25
HETATM   25  C17 UNL     1      22.377   2.548  50.133  1.00  0.00    -0.007 A 
HETATM   26  C18 UNL     1      21.815   1.704  49.152  1.00  0.00     0.013 A 
HETATM   27  C19 UNL     1      21.652   2.049  47.819  1.00  0.00     0.024 A 
HETATM   28  C20 UNL     1      22.046   3.272  47.369  1.00  0.00     0.034 A 
HETATM   29 CL1  UNL     1      21.875   3.758  45.708  1.00  0.00    -0.084 Cl
HETATM   30  C21 UNL     1      22.607   4.155  48.270  1.00  0.00     0.024 A 
HETATM   31  C22 UNL     1      22.722   3.729  49.540  1.00  0.00     0.013 A 
ENDBRANCH  10  25
TORSDOF 3
ENDMDL
MODEL 3
REMARK VINA RESULT:     -10.2      1.790      2.760
REMARK  3 active torsions:
REMARK  status: ('A' for Active; 'I' for Inactive)
REMARK    1  A    between atoms: C9_10  and  N2_11 
REMARK    2  A    between atoms: C9_10  and  C17_21 
REMARK    3  A    between atoms: N2_11  and  C10_12 
ROOT
HETATM    1  C1  UNL     1      21.360   7.639  50.004  1.00  0.00     0.048 C 
HETATM    2  C2  UNL     1      21.123   6.267  50.427  1.00  0.00    -0.057 A 
HETATM    3  C3  UNL     1      19.994   5.443  50.191  1.00  0.00    -0.007 A 
HETATM    4  C4  UNL     1      20.304   4.249  50.878  1.00  0.00     0.016 A 
HETATM    5  C5  UNL     1      21.085   3.387  51.661  1.00  0.00     0.032 A 
HETATM    6  C6  UNL     1      22.177   4.365  51.818  1.00  0.00     0.049 A 
HETATM    7  C7  UNL     1      22.106   5.655  51.217  1.00  0.00    -0.029 A 
HETATM    8  C8  UNL     1      23.499   5.888  51.533  1.00  0.00     0.122 C 
HETATM    9  N1  UNL     1      24.593   5.419  51.117  1.00  0.00    -0.263 NA
HETATM   10  C9  UNL     1      24.955   4.434  50.129  1.00  0.00     0.164 C 
HETATM   11  C23 UNL     1      23.868   4.229  49.023  1.00  0.00     0.142 C 
HETATM   12  C24 UNL     1      22.618   4.216  49.649  1.00  0.00    -0.166 C 
HETATM   13  C25 UNL     1      21.591   4.222  50.182  1.00  0.00     0.038 A 
ENDROOT
BRANCH  10  14
HETATM   14  N2  UNL     1      25.187   3.164  50.711  1.00  0.00    -0.337 N 
HETATM   15  H8  UNL     1      24.563   2.457  50.168  1.00  0.00     0.164 HD
BRANCH  14  16
HETATM   16  C10 UNL     1      25.929   2.444  51.701  1.00  0.00     0.164 A 
HETATM   17  N3  UNL     1      27.074   2.027  51.476  1.00  0.00    -0.240 NA
HETATM   18  C11 UNL     1      27.244   1.460  52.739  1.00  0.00     0.132 A 
HETATM   19  C12 UNL     1      27.376  -0.043  52.783  1.00  0.00     0.018 A 
HETATM   20  C16 UNL     1      28.365   2.115  53.557  1.00  0.00     0.076 A 
HETATM   21  S1  UNL     1      25.633   1.924  53.338  1.00  0.00    -0.054 SA
HETATM   22  C13 UNL     1      28.220  -0.869  53.367  1.00  0.00    -0.001 A 
HETATM   23  C14 UNL     1      29.266  -0.228  54.145  1.00  0.00    -0.004 A 
HETATM   24  C15 UNL     1      29.234   1.093  54.158  1.00  0.00    -0.023 A 
ENDBRANCH  14  16
ENDBRANCH  10  14
BRANCH  10  25
HETATM   25  C17 UNL     1      26.079   5.052  49.370  1.00  0.00    -0.007 A 
HETATM   26  C18 UNL     1      25.778   6.328  48.847  1.00  0.00     0.013 A 
HETATM   27  C19 UNL     1      26.656   7.096  48.097  1.00  0.00     0.024 A 
HETATM   28  C20 UNL     1      27.905   6.637  47.813  1.00  0.00     0.034 A 
HETATM   29 CL1  UNL     1      29.046   7.551  46.870  1.00  0.00    -0.084 Cl
HETATM   30  C21 UNL     1      28.275   5.396  48.290  1.00  0.00     0.024 A 
HETATM   31  C22 UNL     1      27.355   4.727  49.008  1.00  0.00     0.013 A 
ENDBRANCH  10  25
TORSDOF 3
ENDMDL
MODEL 4
REMARK VINA RESULT:     -10.1      2.301      5.891
REMARK  3 active torsions:
REMARK  status: ('A' for Active; 'I' for Inactive)
REMARK    1  A    between atoms: C9_10  and  N2_11 
REMARK    2  A    between atoms: C9_10  and  C17_21 
REMARK    3  A    between atoms: N2_11  and  C10_12 
ROOT
HETATM    1  C1  UNL     1      28.673   2.485  53.455  1.00  0.00     0.048 C 
HETATM    2  C2  UNL     1      27.670   1.439  53.588  1.00  0.00    -0.057 A 
HETATM    3  C3  UNL     1      27.396   0.602  54.699  1.00  0.00    -0.007 A 
HETATM    4  C4  UNL     1      26.364  -0.241  54.232  1.00  0.00     0.016 A 
HETATM    5  C5  UNL     1      25.435  -0.738  53.308  1.00  0.00     0.032 A 
HETATM    6  C6  UNL     1      25.842   0.204  52.249  1.00  0.00     0.049 A 
HETATM    7  C7  UNL     1      26.872   1.163  52.469  1.00  0.00    -0.029 A 
HETATM    8  C8  UNL     1      26.530   1.827  51.229  1.00  0.00     0.122 C 
HETATM    9  N1  UNL     1      25.552   2.516  50.833  1.00  0.00    -0.263 NA
HETATM   10  C9  UNL     1      24.323   2.963  51.440  1.00  0.00     0.164 C 
HETATM   11  C23 UNL     1      24.387   3.033  53.002  1.00  0.00     0.142 C 
HETATM   12  C24 UNL     1      25.058   1.893  53.454  1.00  0.00    -0.166 C 
HETATM   13  C25 UNL     1      25.627   0.950  53.810  1.00  0.00     0.038 A 
ENDROOT
BRANCH  10  14
HETATM   14  N2  UNL     1      23.236   2.115  51.116  1.00  0.00    -0.337 N 
HETATM   15  H8  UNL     1      23.525   1.572  50.219  1.00  0.00     0.164 HD
BRANCH  14  16
HETATM   16  C10 UNL     1      21.932   1.674  51.511  1.00  0.00     0.164 A 
HETATM   17  N3  UNL     1      21.550   0.514  51.302  1.00  0.00    -0.240 NA
HETATM   18  C11 UNL     1      20.295   0.696  51.881  1.00  0.00     0.132 A 
HETATM   19  C12 UNL     1      19.110   0.591  50.952  1.00  0.00     0.018 A 
HETATM   20  C16 UNL     1      20.067  -0.166  53.130  1.00  0.00     0.076 A 
HETATM   21  S1  UNL     1      20.562   2.406  52.300  1.00  0.00    -0.054 SA
HETATM   22  C13 UNL     1      17.964  -0.057  51.003  1.00  0.00    -0.001 A 
HETATM   23  C14 UNL     1      17.765  -0.857  52.199  1.00  0.00    -0.004 A 
HETATM   24  C15 UNL     1      18.759  -0.832  53.069  1.00  0.00    -0.023 A 
ENDBRANCH  14  16
ENDBRANCH  10  14
BRANCH  10  25
HETATM   25  C17 UNL     1      24.208   4.398  51.054  1.00  0.00    -0.007 A 
HETATM   26  C18 UNL     1      24.640   4.668  49.738  1.00  0.00     0.013 A 
HETATM   27  C19 UNL     1      24.641   5.926  49.155  1.00  0.00     0.024 A 
HETATM   28  C20 UNL     1      24.209   7.011  49.853  1.00  0.00     0.034 A 
HETATM   29 CL1  UNL     1      24.195   8.615  49.178  1.00  0.00    -0.084 Cl
HETATM   30  C21 UNL     1      23.770   6.828  51.149  1.00  0.00     0.024 A 
HETATM   31  C22 UNL     1      23.807   5.571  51.626  1.00  0.00     0.013 A 
ENDBRANCH  10  25
TORSDOF 3
ENDMDL
MODEL 5
REMARK VINA RESULT:      -9.9      2.844      5.269
REMARK  3 active torsions:
REMARK  status: ('A' for Active; 'I' for Inactive)
REMARK    1  A    between atoms: C9_10  and  N2_11 
REMARK    2  A    between atoms: C9_10  and  C17_21 
REMARK    3  A    between atoms: N2_11  and  C10_12 
ROOT
HETATM    1  C1  UNL     1      21.395   4.667  48.204  1.00  0.00     0.048 C 
HETATM    2  C2  UNL     1      22.723   4.994  48.700  1.00  0.00    -0.057 A 
HETATM    3  C3  UNL     1      23.319   6.268  48.878  1.00  0.00    -0.007 A 
HETATM    4  C4  UNL     1      24.621   5.964  49.333  1.00  0.00     0.016 A 
HETATM    5  C5  UNL     1      25.680   5.134  49.724  1.00  0.00     0.032 A 
HETATM    6  C6  UNL     1      24.921   3.893  49.484  1.00  0.00     0.049 A 
HETATM    7  C7  UNL     1      23.576   3.928  49.017  1.00  0.00    -0.029 A 
HETATM    8  C8  UNL     1      23.438   2.512  49.280  1.00  0.00     0.122 C 
HETATM    9  N1  UNL     1      23.380   1.805  50.322  1.00  0.00    -0.263 NA
HETATM   10  C9  UNL     1      23.419   2.089  51.735  1.00  0.00     0.164 C 
HETATM   11  C23 UNL     1      22.980   3.548  52.091  1.00  0.00     0.142 C 
HETATM   12  C24 UNL     1      23.554   4.409  51.153  1.00  0.00    -0.166 C 
HETATM   13  C25 UNL     1      24.026   5.107  50.359  1.00  0.00     0.038 A 
ENDROOT
BRANCH  10  14
HETATM   14  N2  UNL     1      24.719   1.914  52.272  1.00  0.00    -0.337 N 
HETATM   15  H8  UNL     1      25.146   2.909  52.375  1.00  0.00     0.164 HD
BRANCH  14  16
HETATM   16  C10 UNL     1      25.671   0.960  52.753  1.00  0.00     0.164 A 
HETATM   17  N3  UNL     1      26.630   0.595  52.058  1.00  0.00    -0.240 NA
HETATM   18  C11 UNL     1      27.151  -0.270  53.020  1.00  0.00     0.132 A 
HETATM   19  C12 UNL     1      27.141  -1.739  52.671  1.00  0.00     0.018 A 
HETATM   20  C16 UNL     1      28.538   0.145  53.528  1.00  0.00     0.076 A 
HETATM   21  S1  UNL     1      25.883   0.054  54.227  1.00  0.00    -0.054 SA
HETATM   22  C13 UNL     1      28.044  -2.696  52.724  1.00  0.00    -0.001 A 
HETATM   23  C14 UNL     1      29.346  -2.284  53.217  1.00  0.00    -0.004 A 
HETATM   24  C15 UNL     1      29.451  -1.008  53.542  1.00  0.00    -0.023 A 
ENDBRANCH  14  16
ENDBRANCH  10  14
BRANCH  10  25
HETATM   25  C17 UNL     1      22.323   1.266  52.320  1.00  0.00    -0.007 A 
HETATM   26  C18 UNL     1      21.255   1.028  51.429  1.00  0.00     0.013 A 
HETATM   27  C19 UNL     1      20.118   0.300  51.744  1.00  0.00     0.024 A 
HETATM   28  C20 UNL     1      19.966  -0.242  52.983  1.00  0.00     0.034 A 
HETATM   29 CL1  UNL     1      18.558  -1.157  53.439  1.00  0.00    -0.084 Cl
HETATM   30  C21 UNL     1      20.969  -0.052  53.912  1.00  0.00     0.024 A 
HETATM   31  C22 UNL     1      22.033   0.667  53.512  1.00  0.00     0.013 A 
ENDBRANCH  10  25
TORSDOF 3
ENDMDL
MODEL 6
REMARK VINA RESULT:      -9.8      2.771      5.372
REMARK  3 active torsions:
REMARK  status: ('A' for Active; 'I' for Inactive)
REMARK    1  A    between atoms: C9_10  and  N2_11 
REMARK    2  A    between atoms: C9_10  and  C17_21 
REMARK    3  A    between atoms: N2_11  and  C10_12 
ROOT
HETATM    1  C1  UNL     1      21.544   7.128  48.514  1.00  0.00     0.048 C 
HETATM    2  C2  UNL     1      22.854   7.356  49.104  1.00  0.00    -0.057 A 
HETATM    3  C3  UNL     1      23.357   8.522  49.736  1.00  0.00    -0.007 A 
HETATM    4  C4  UNL     1      24.687   8.176  50.058  1.00  0.00     0.016 A 
HETATM    5  C5  UNL     1      25.815   7.347  50.128  1.00  0.00     0.032 A 
HETATM    6  C6  UNL     1      25.146   6.222  49.449  1.00  0.00     0.049 A 
HETATM    7  C7  UNL     1      23.792   6.318  49.018  1.00  0.00    -0.029 A 
HETATM    8  C8  UNL     1      23.767   4.897  48.748  1.00  0.00     0.122 C 
HETATM    9  N1  UNL     1      23.785   3.858  49.463  1.00  0.00    -0.263 NA
HETATM   10  C9  UNL     1      23.834   3.613  50.883  1.00  0.00     0.164 C 
HETATM   11  C23 UNL     1      23.295   4.805  51.741  1.00  0.00     0.142 C 
HETATM   12  C24 UNL     1      23.781   5.990  51.182  1.00  0.00    -0.166 C 
HETATM   13  C25 UNL     1      24.182   6.962  50.699  1.00  0.00     0.038 A 
ENDROOT
BRANCH  10  14
HETATM   14  N2  UNL     1      25.155   3.358  51.328  1.00  0.00    -0.337 N 
HETATM   15  H8  UNL     1      25.778   4.148  50.914  1.00  0.00     0.164 HD
BRANCH  14  16
HETATM   16  C10 UNL     1      25.981   2.498  52.120  1.00  0.00     0.164 A 
HETATM   17  N3  UNL     1      27.038   2.028  51.677  1.00  0.00    -0.240 NA
HETATM   18  C11 UNL     1      27.356   1.332  52.844  1.00  0.00     0.132 A 
HETATM   19  C12 UNL     1      27.370  -0.174  52.739  1.00  0.00     0.018 A 
HETATM   20  C16 UNL     1      28.641   1.828  53.520  1.00  0.00     0.076 A 
HETATM   21  S1  UNL     1      25.903   1.845  53.734  1.00  0.00    -0.054 SA
HETATM   22  C13 UNL     1      28.224  -1.107  53.107  1.00  0.00    -0.001 A 
HETATM   23  C14 UNL     1      29.427  -0.616  53.755  1.00  0.00    -0.004 A 
HETATM   24  C15 UNL     1      29.506   0.697  53.884  1.00  0.00    -0.023 A 
ENDBRANCH  14  16
ENDBRANCH  10  14
BRANCH  10  25
HETATM   25  C17 UNL     1      22.817   2.551  51.121  1.00  0.00    -0.007 A 
HETATM   26  C18 UNL     1      22.024   2.771  52.268  1.00  0.00     0.013 A 
HETATM   27  C19 UNL     1      21.021   1.920  52.704  1.00  0.00     0.024 A 
HETATM   28  C20 UNL     1      20.739   0.777  52.020  1.00  0.00     0.034 A 
HETATM   29 CL1  UNL     1      19.499  -0.334  52.523  1.00  0.00    -0.084 Cl
HETATM   30  C21 UNL     1      21.473   0.490  50.886  1.00  0.00     0.024 A 
HETATM   31  C22 UNL     1      22.424   1.378  50.544  1.00  0.00     0.013 A 
ENDBRANCH  10  25
TORSDOF 3
ENDMDL
MODEL 7
REMARK VINA RESULT:      -9.4      2.520      4.324
REMARK  3 active torsions:
REMARK  status: ('A' for Active; 'I' for Inactive)
REMARK    1  A    between atoms: C9_10  and  N2_11 
REMARK    2  A    between atoms: C9_10  and  C17_21 
REMARK    3  A    between atoms: N2_11  and  C10_12 
ROOT
HETATM    1  C1  UNL     1      21.430   8.984  49.395  1.00  0.00     0.048 C 
HETATM    2  C2  UNL     1      20.895   7.650  49.620  1.00  0.00    -0.057 A 
HETATM    3  C3  UNL     1      19.680   7.086  49.154  1.00  0.00    -0.007 A 
HETATM    4  C4  UNL     1      19.673   5.795  49.726  1.00  0.00     0.016 A 
HETATM    5  C5  UNL     1      20.170   4.728  50.486  1.00  0.00     0.032 A 
HETATM    6  C6  UNL     1      21.387   5.457  50.887  1.00  0.00     0.049 A 
HETATM    7  C7  UNL     1      21.633   6.787  50.441  1.00  0.00    -0.029 A 
HETATM    8  C8  UNL     1      22.988   6.715  50.945  1.00  0.00     0.122 C 
HETATM    9  N1  UNL     1      24.027   6.085  50.608  1.00  0.00    -0.263 NA
HETATM   10  C9  UNL     1      24.340   5.148  49.559  1.00  0.00     0.164 C 
HETATM   11  C23 UNL     1      23.397   5.263  48.316  1.00  0.00     0.142 C 
HETATM   12  C24 UNL     1      22.092   5.433  48.784  1.00  0.00    -0.166 C 
HETATM   13  C25 UNL     1      21.018   5.586  49.188  1.00  0.00     0.038 A 
ENDROOT
BRANCH  10  14
HETATM   14  N2  UNL     1      24.258   3.807  50.008  1.00  0.00    -0.337 N 
HETATM   15  H8  UNL     1      24.467   3.179  49.144  1.00  0.00     0.164 HD
BRANCH  14  16
HETATM   16  C10 UNL     1      24.037   2.959  51.140  1.00  0.00     0.164 A 
HETATM   17  N3  UNL     1      23.705   1.773  51.007  1.00  0.00    -0.240 NA
HETATM   18  C11 UNL     1      23.657   1.509  52.376  1.00  0.00     0.132 A 
HETATM   19  C12 UNL     1      22.298   1.178  52.944  1.00  0.00     0.018 A 
HETATM   20  C16 UNL     1      24.690   0.472  52.834  1.00  0.00     0.076 A 
HETATM   21  S1  UNL     1      24.113   3.157  52.870  1.00  0.00    -0.054 SA
HETATM   22  C13 UNL     1      21.845   0.223  53.729  1.00  0.00    -0.001 A 
HETATM   23  C14 UNL     1      22.842  -0.741  54.160  1.00  0.00    -0.004 A 
HETATM   24  C15 UNL     1      24.064  -0.534  53.704  1.00  0.00    -0.023 A 
ENDBRANCH  14  16
ENDBRANCH  10  14
BRANCH  10  25
HETATM   25  C17 UNL     1      25.651   5.606  49.018  1.00  0.00    -0.007 A 
HETATM   26  C18 UNL     1      26.663   4.625  49.075  1.00  0.00     0.013 A 
HETATM   27  C19 UNL     1      27.967   4.817  48.645  1.00  0.00     0.024 A 
HETATM   28  C20 UNL     1      28.355   6.014  48.125  1.00  0.00     0.034 A 
HETATM   29 CL1  UNL     1      29.978   6.316  47.577  1.00  0.00    -0.084 Cl
HETATM   30  C21 UNL     1      27.420   7.026  48.037  1.00  0.00     0.024 A 
HETATM   31  C22 UNL     1      26.182   6.743  48.480  1.00  0.00     0.013 A 
ENDBRANCH  10  25
TORSDOF 3
ENDMDL
MODEL 8
REMARK VINA RESULT:      -9.1      2.983      6.287
REMARK  3 active torsions:
REMARK  status: ('A' for Active; 'I' for Inactive)
REMARK    1  A    between atoms: C9_10  and  N2_11 
REMARK    2  A    between atoms: C9_10  and  C17_21 
REMARK    3  A    between atoms: N2_11  and  C10_12 
ROOT
HETATM    1  C1  UNL     1      26.559   1.661  51.428  1.00  0.00     0.048 C 
HETATM    2  C2  UNL     1      25.266   1.317  51.999  1.00  0.00    -0.057 A 
HETATM    3  C3  UNL     1      24.979   0.601  53.188  1.00  0.00    -0.007 A 
HETATM    4  C4  UNL     1      23.569   0.532  53.201  1.00  0.00     0.016 A 
HETATM    5  C5  UNL     1      22.270   0.764  52.728  1.00  0.00     0.032 A 
HETATM    6  C6  UNL     1      22.734   1.486  51.529  1.00  0.00     0.049 A 
HETATM    7  C7  UNL     1      24.122   1.691  51.281  1.00  0.00    -0.029 A 
HETATM    8  C8  UNL     1      23.803   2.616  50.214  1.00  0.00     0.122 C 
HETATM    9  N1  UNL     1      23.311   3.775  50.163  1.00  0.00    -0.263 NA
HETATM   10  C9  UNL     1      22.843   4.715  51.151  1.00  0.00     0.164 C 
HETATM   11  C23 UNL     1      23.471   4.498  52.567  1.00  0.00     0.142 C 
HETATM   12  C24 UNL     1      23.500   3.123  52.816  1.00  0.00    -0.166 C 
HETATM   13  C25 UNL     1      23.529   1.981  53.000  1.00  0.00     0.038 A 
ENDROOT
BRANCH  10  14
HETATM   14  N2  UNL     1      21.437   4.649  51.316  1.00  0.00    -0.337 N 
HETATM   15  H8  UNL     1      21.129   5.611  51.721  1.00  0.00     0.164 HD
BRANCH  14  16
HETATM   16  C10 UNL     1      20.271   3.839  51.138  1.00  0.00     0.164 A 
HETATM   17  N3  UNL     1      19.652   3.373  52.105  1.00  0.00    -0.240 NA
HETATM   18  C11 UNL     1      18.686   2.731  51.330  1.00  0.00     0.132 A 
HETATM   19  C12 UNL     1      18.676   1.223  51.392  1.00  0.00     0.018 A 
HETATM   20  C16 UNL     1      17.269   3.280  51.541  1.00  0.00     0.076 A 
HETATM   21  S1  UNL     1      19.368   3.249  49.769  1.00  0.00    -0.054 SA
HETATM   22  C13 UNL     1      17.731   0.323  51.573  1.00  0.00    -0.001 A 
HETATM   23  C14 UNL     1      16.396   0.864  51.759  1.00  0.00    -0.004 A 
HETATM   24  C15 UNL     1      16.310   2.182  51.728  1.00  0.00    -0.023 A 
ENDBRANCH  14  16
ENDBRANCH  10  14
BRANCH  10  25
HETATM   25  C17 UNL     1      23.420   6.024  50.735  1.00  0.00    -0.007 A 
HETATM   26  C18 UNL     1      24.813   5.987  50.516  1.00  0.00     0.013 A 
HETATM   27  C19 UNL     1      25.578   7.079  50.135  1.00  0.00     0.024 A 
HETATM   28  C20 UNL     1      24.999   8.296  49.947  1.00  0.00     0.034 A 
HETATM   29 CL1  UNL     1      25.907   9.703  49.477  1.00  0.00    -0.084 Cl
HETATM   30  C21 UNL     1      23.637   8.414  50.142  1.00  0.00     0.024 A 
HETATM   31  C22 UNL     1      22.982   7.297  50.510  1.00  0.00     0.013 A 
ENDBRANCH  10  25
TORSDOF 3
ENDMDL
MODEL 9
REMARK VINA RESULT:      -8.9      1.864      2.485
REMARK  3 active torsions:
REMARK  status: ('A' for Active; 'I' for Inactive)
REMARK    1  A    between atoms: C9_10  and  N2_11 
REMARK    2  A    between atoms: C9_10  and  C17_21 
REMARK    3  A    between atoms: N2_11  and  C10_12 
ROOT
HETATM    1  C1  UNL     1      20.794   4.506  47.185  1.00  0.00     0.048 C 
HETATM    2  C2  UNL     1      20.887   3.491  48.224  1.00  0.00    -0.057 A 
HETATM    3  C3  UNL     1      20.459   2.139  48.190  1.00  0.00    -0.007 A 
HETATM    4  C4  UNL     1      20.758   1.665  49.485  1.00  0.00     0.016 A 
HETATM    5  C5  UNL     1      21.241   1.742  50.799  1.00  0.00     0.032 A 
HETATM    6  C6  UNL     1      21.628   3.160  50.673  1.00  0.00     0.049 A 
HETATM    7  C7  UNL     1      21.428   3.875  49.458  1.00  0.00    -0.029 A 
HETATM    8  C8  UNL     1      22.229   4.971  49.962  1.00  0.00     0.122 C 
HETATM    9  N1  UNL     1      23.454   5.132  50.211  1.00  0.00    -0.263 NA
HETATM   10  C9  UNL     1      24.622   4.294  50.104  1.00  0.00     0.164 C 
HETATM   11  C23 UNL     1      24.470   3.141  49.058  1.00  0.00     0.142 C 
HETATM   12  C24 UNL     1      23.189   2.601  49.200  1.00  0.00    -0.166 C 
HETATM   13  C25 UNL     1      22.120   2.174  49.322  1.00  0.00     0.038 A 
ENDROOT
BRANCH  10  14
HETATM   14  N2  UNL     1      24.947   3.682  51.339  1.00  0.00    -0.337 N 
HETATM   15  H8  UNL     1      24.305   4.140  52.089  1.00  0.00     0.164 HD
BRANCH  14  16
HETATM   16  C10 UNL     1      25.756   2.691  51.982  1.00  0.00     0.164 A 
HETATM   17  N3  UNL     1      26.107   2.808  53.164  1.00  0.00    -0.240 NA
HETATM   18  C11 UNL     1      26.815   1.607  53.197  1.00  0.00     0.132 A 
HETATM   19  C12 UNL     1      28.308   1.719  53.394  1.00  0.00     0.018 A 
HETATM   20  C16 UNL     1      26.228   0.578  54.172  1.00  0.00     0.076 A 
HETATM   21  S1  UNL     1      26.478   1.178  51.503  1.00  0.00    -0.054 SA
HETATM   22  C13 UNL     1      29.170   1.126  54.194  1.00  0.00    -0.001 A 
HETATM   23  C14 UNL     1      28.594   0.148  55.099  1.00  0.00    -0.004 A 
HETATM   24  C15 UNL     1      27.286  -0.012  55.004  1.00  0.00    -0.023 A 
ENDBRANCH  14  16
ENDBRANCH  10  14
BRANCH  10  25
HETATM   25  C17 UNL     1      25.659   5.165  49.481  1.00  0.00    -0.007 A 
HETATM   26  C18 UNL     1      26.823   4.471  49.088  1.00  0.00     0.013 A 
HETATM   27  C19 UNL     1      27.929   5.064  48.499  1.00  0.00     0.024 A 
HETATM   28  C20 UNL     1      27.951   6.404  48.262  1.00  0.00     0.034 A 
HETATM   29 CL1  UNL     1      29.313   7.204  47.534  1.00  0.00    -0.084 Cl
HETATM   30  C21 UNL     1      26.848   7.153  48.619  1.00  0.00     0.024 A 
HETATM   31  C22 UNL     1      25.824   6.487  49.184  1.00  0.00     0.013 A 
ENDBRANCH  10  25
TORSDOF 3
ENDMDL
