MODEL 1
REMARK VINA RESULT:      -8.2      0.000      0.000
REMARK  5 active torsions:
REMARK  status: ('A' for Active; 'I' for Inactive)
REMARK    1  A    between atoms: O1_2  and  C2_3 
REMARK    2  A    between atoms: N2_13  and  C11_14 
REMARK    3  A    between atoms: N3_15  and  C12_16 
REMARK    4  A    between atoms: C12_16  and  N4_17 
REMARK    5  A    between atoms: N4_17  and  C13_18 
ROOT
HETATM    1  C2  UNL     1      24.963   0.017  53.325  1.00  0.00     0.069 A 
HETATM    2  C3  UNL     1      26.120  -0.342  52.627  1.00  0.00     0.039 A 
HETATM    3  C4  UNL     1      26.732   0.560  51.778  1.00  0.00     0.040 A 
HETATM    4  C5  UNL     1      26.169   1.826  51.638  1.00  0.00     0.085 A 
HETATM    5  C6  UNL     1      25.008   2.222  52.322  1.00  0.00    -0.004 A 
HETATM    6  C7  UNL     1      24.407   1.289  53.176  1.00  0.00     0.048 A 
HETATM    7  C8  UNL     1      24.214   3.440  52.372  1.00  0.00     0.156 C 
HETATM    8  N1  UNL     1      24.512   4.518  51.538  1.00  0.00    -0.410 N 
HETATM    9  C9  UNL     1      24.963   4.331  50.217  1.00  0.00     0.201 C 
HETATM   10  C10 UNL     1      26.376   3.825  50.104  1.00  0.00     0.164 C 
HETATM   11  N2  UNL     1      27.275   4.407  49.392  1.00  0.00    -0.220 NA
HETATM   12  O2  UNL     1      26.853   2.688  50.752  1.00  0.00    -0.294 OA
HETATM   13  H9  UNL     1      25.034   5.307  51.983  1.00  0.00     0.153 HD
ENDROOT
BRANCH  11  14
HETATM   14  C11 UNL     1      26.866   5.586  48.692  1.00  0.00     0.231 C 
HETATM   15  N3  UNL     1      27.088   6.658  48.007  1.00  0.00    -0.263 NA
BRANCH  15  16
HETATM   16  C12 UNL     1      28.473   6.972  47.702  1.00  0.00     0.272 C 
BRANCH  16  17
HETATM   17  N4  UNL     1      29.246   6.467  48.820  1.00  0.00    -0.372 N 
HETATM   18  H15 UNL     1      28.803   6.421  49.742  1.00  0.00     0.161 HD
BRANCH  17  19
HETATM   19  C13 UNL     1      30.578   6.052  48.636  1.00  0.00     0.030 A 
HETATM   20  C14 UNL     1      31.661   6.680  49.188  1.00  0.00     0.029 A 
HETATM   21  C15 UNL     1      32.970   6.265  49.001  1.00  0.00     0.004 A 
HETATM   22  C16 UNL     1      33.214   5.147  48.210  1.00  0.00     0.019 A 
HETATM   23  C17 UNL     1      32.136   4.501  47.644  1.00  0.00     0.013 A 
HETATM   24 BR1  UNL     1      32.360   2.954  46.539  1.00  0.00    -0.051 Br
HETATM   25  C18 UNL     1      30.862   4.946  47.855  1.00  0.00     0.048 A 
ENDBRANCH  17  19
ENDBRANCH  16  17
ENDBRANCH  15  16
ENDBRANCH  11  14
BRANCH   1  26
HETATM   26  O1  UNL     1      24.330  -0.873  54.184  1.00  0.00    -0.356 OA
HETATM   27  C1  UNL     1      22.900  -0.852  54.225  1.00  0.00     0.210 C 
ENDBRANCH   1  26
TORSDOF 5
ENDMDL
MODEL 2
REMARK VINA RESULT:      -8.1      3.710      5.179
REMARK  5 active torsions:
REMARK  status: ('A' for Active; 'I' for Inactive)
REMARK    1  A    between atoms: O1_2  and  C2_3 
REMARK    2  A    between atoms: N2_13  and  C11_14 
REMARK    3  A    between atoms: N3_15  and  C12_16 
REMARK    4  A    between atoms: C12_16  and  N4_17 
REMARK    5  A    between atoms: N4_17  and  C13_18 
ROOT
HETATM    1  C2  UNL     1      28.131  -0.458  53.702  1.00  0.00     0.069 A 
HETATM    2  C3  UNL     1      28.592   0.858  53.814  1.00  0.00     0.039 A 
HETATM    3  C4  UNL     1      27.713   1.917  53.701  1.00  0.00     0.040 A 
HETATM    4  C5  UNL     1      26.367   1.641  53.475  1.00  0.00     0.085 A 
HETATM    5  C6  UNL     1      25.868   0.334  53.357  1.00  0.00    -0.004 A 
HETATM    6  C7  UNL     1      26.779  -0.722  53.475  1.00  0.00     0.048 A 
HETATM    7  C8  UNL     1      24.552  -0.243  53.127  1.00  0.00     0.156 C 
HETATM    8  N1  UNL     1      23.453   0.575  52.864  1.00  0.00    -0.410 N 
HETATM    9  C9  UNL     1      23.570   1.749  52.094  1.00  0.00     0.201 C 
HETATM   10  C10 UNL     1      24.275   2.883  52.786  1.00  0.00     0.164 C 
HETATM   11  N2  UNL     1      23.770   4.060  52.896  1.00  0.00    -0.220 NA
HETATM   12  O2  UNL     1      25.536   2.778  53.371  1.00  0.00    -0.294 OA
HETATM   13  H9  UNL     1      22.807   0.741  53.668  1.00  0.00     0.153 HD
ENDROOT
BRANCH  11  14
HETATM   14  C11 UNL     1      22.475   4.254  52.320  1.00  0.00     0.231 C 
HETATM   15  N3  UNL     1      21.671   4.666  51.398  1.00  0.00    -0.263 NA
BRANCH  15  16
HETATM   16  C12 UNL     1      22.268   5.314  50.243  1.00  0.00     0.272 C 
BRANCH  16  17
HETATM   17  N4  UNL     1      23.108   4.310  49.619  1.00  0.00    -0.372 N 
HETATM   18  H15 UNL     1      22.695   3.404  49.381  1.00  0.00     0.161 HD
BRANCH  17  19
HETATM   19  C13 UNL     1      24.462   4.581  49.348  1.00  0.00     0.030 A 
HETATM   20  C14 UNL     1      25.480   3.695  49.567  1.00  0.00     0.029 A 
HETATM   21  C15 UNL     1      26.812   3.969  49.299  1.00  0.00     0.004 A 
HETATM   22  C16 UNL     1      27.150   5.214  48.776  1.00  0.00     0.019 A 
HETATM   23  C17 UNL     1      26.137   6.122  48.550  1.00  0.00     0.013 A 
HETATM   24 BR1  UNL     1      26.491   7.862  47.835  1.00  0.00    -0.051 Br
HETATM   25  C18 UNL     1      24.837   5.808  48.830  1.00  0.00     0.048 A 
ENDBRANCH  17  19
ENDBRANCH  16  17
ENDBRANCH  15  16
ENDBRANCH  11  14
BRANCH   1  26
HETATM   26  O1  UNL     1      28.996  -1.539  53.811  1.00  0.00    -0.356 OA
HETATM   27  C1  UNL     1      28.668  -2.727  53.085  1.00  0.00     0.210 C 
ENDBRANCH   1  26
TORSDOF 5
ENDMDL
MODEL 3
REMARK VINA RESULT:      -7.7      3.201      7.716
REMARK  5 active torsions:
REMARK  status: ('A' for Active; 'I' for Inactive)
REMARK    1  A    between atoms: O1_2  and  C2_3 
REMARK    2  A    between atoms: N2_13  and  C11_14 
REMARK    3  A    between atoms: N3_15  and  C12_16 
REMARK    4  A    between atoms: C12_16  and  N4_17 
REMARK    5  A    between atoms: N4_17  and  C13_18 
ROOT
HETATM    1  C2  UNL     1      29.744   7.670  47.446  1.00  0.00     0.069 A 
HETATM    2  C3  UNL     1      30.367   6.447  47.715  1.00  0.00     0.039 A 
HETATM    3  C4  UNL     1      29.629   5.377  48.183  1.00  0.00     0.040 A 
HETATM    4  C5  UNL     1      28.261   5.548  48.378  1.00  0.00     0.085 A 
HETATM    5  C6  UNL     1      27.603   6.761  48.119  1.00  0.00    -0.004 A 
HETATM    6  C7  UNL     1      28.372   7.830  47.646  1.00  0.00     0.048 A 
HETATM    7  C8  UNL     1      26.227   7.222  48.226  1.00  0.00     0.156 C 
HETATM    8  N1  UNL     1      25.242   6.400  48.775  1.00  0.00    -0.410 N 
HETATM    9  C9  UNL     1      25.512   5.540  49.857  1.00  0.00     0.201 C 
HETATM   10  C10 UNL     1      26.349   4.339  49.507  1.00  0.00     0.164 C 
HETATM   11  N2  UNL     1      25.996   3.134  49.780  1.00  0.00    -0.220 NA
HETATM   12  O2  UNL     1      27.581   4.408  48.859  1.00  0.00    -0.294 OA
HETATM   13  H9  UNL     1      24.615   5.922  48.089  1.00  0.00     0.153 HD
ENDROOT
BRANCH  11  14
HETATM   14  C11 UNL     1      24.740   2.975  50.448  1.00  0.00     0.231 C 
HETATM   15  N3  UNL     1      24.004   2.746  51.484  1.00  0.00    -0.263 NA
BRANCH  15  16
HETATM   16  C12 UNL     1      24.689   2.492  52.739  1.00  0.00     0.272 C 
BRANCH  16  17
HETATM   17  N4  UNL     1      26.096   2.731  52.474  1.00  0.00    -0.372 N 
HETATM   18  H15 UNL     1      26.362   3.580  51.967  1.00  0.00     0.161 HD
BRANCH  17  19
HETATM   19  C13 UNL     1      27.069   1.812  52.908  1.00  0.00     0.030 A 
HETATM   20  C14 UNL     1      28.208   2.161  53.579  1.00  0.00     0.029 A 
HETATM   21  C15 UNL     1      29.163   1.250  54.002  1.00  0.00     0.004 A 
HETATM   22  C16 UNL     1      28.965  -0.102  53.738  1.00  0.00     0.019 A 
HETATM   23  C17 UNL     1      27.823  -0.474  53.062  1.00  0.00     0.013 A 
HETATM   24 BR1  UNL     1      27.454  -2.306  52.647  1.00  0.00    -0.051 Br
HETATM   25  C18 UNL     1      26.909   0.460  52.662  1.00  0.00     0.048 A 
ENDBRANCH  17  19
ENDBRANCH  16  17
ENDBRANCH  15  16
ENDBRANCH  11  14
BRANCH   1  26
HETATM   26  O1  UNL     1      30.465   8.761  46.975  1.00  0.00    -0.356 OA
HETATM   27  C1  UNL     1      31.890   8.645  46.930  1.00  0.00     0.210 C 
ENDBRANCH   1  26
TORSDOF 5
ENDMDL
MODEL 4
REMARK VINA RESULT:      -7.5      3.438      5.191
REMARK  5 active torsions:
REMARK  status: ('A' for Active; 'I' for Inactive)
REMARK    1  A    between atoms: O1_2  and  C2_3 
REMARK    2  A    between atoms: N2_13  and  C11_14 
REMARK    3  A    between atoms: N3_15  and  C12_16 
REMARK    4  A    between atoms: C12_16  and  N4_17 
REMARK    5  A    between atoms: N4_17  and  C13_18 
ROOT
HETATM    1  C2  UNL     1      22.534   0.137  53.737  1.00  0.00     0.069 A 
HETATM    2  C3  UNL     1      21.771   1.057  53.011  1.00  0.00     0.039 A 
HETATM    3  C4  UNL     1      22.357   1.825  52.024  1.00  0.00     0.040 A 
HETATM    4  C5  UNL     1      23.717   1.658  51.772  1.00  0.00     0.085 A 
HETATM    5  C6  UNL     1      24.514   0.744  52.480  1.00  0.00    -0.004 A 
HETATM    6  C7  UNL     1      23.896  -0.021  53.476  1.00  0.00     0.048 A 
HETATM    7  C8  UNL     1      25.918   0.364  52.440  1.00  0.00     0.156 C 
HETATM    8  N1  UNL     1      26.813   1.039  51.609  1.00  0.00    -0.410 N 
HETATM    9  C9  UNL     1      26.718   2.426  51.387  1.00  0.00     0.201 C 
HETATM   10  C10 UNL     1      25.564   2.842  50.516  1.00  0.00     0.164 C 
HETATM   11  N2  UNL     1      25.704   3.576  49.469  1.00  0.00    -0.220 NA
HETATM   12  O2  UNL     1      24.239   2.479  50.749  1.00  0.00    -0.294 OA
HETATM   13  H9  UNL     1      27.062   0.553  50.719  1.00  0.00     0.153 HD
ENDROOT
BRANCH  11  14
HETATM   14  C11 UNL     1      27.036   3.993  49.159  1.00  0.00     0.231 C 
HETATM   15  N3  UNL     1      27.918   4.857  48.780  1.00  0.00    -0.263 NA
BRANCH  15  16
HETATM   16  C12 UNL     1      27.439   6.190  48.457  1.00  0.00     0.272 C 
BRANCH  16  17
HETATM   17  N4  UNL     1      26.753   6.660  49.646  1.00  0.00    -0.372 N 
HETATM   18  H15 UNL     1      27.238   6.607  50.546  1.00  0.00     0.161 HD
BRANCH  17  19
HETATM   19  C13 UNL     1      25.447   7.177  49.557  1.00  0.00     0.030 A 
HETATM   20  C14 UNL     1      24.653   7.443  50.639  1.00  0.00     0.029 A 
HETATM   21  C15 UNL     1      23.367   7.951  50.544  1.00  0.00     0.004 A 
HETATM   22  C16 UNL     1      22.839   8.212  49.283  1.00  0.00     0.019 A 
HETATM   23  C17 UNL     1      23.623   7.949  48.180  1.00  0.00     0.013 A 
HETATM   24 BR1  UNL     1      22.994   8.270  46.401  1.00  0.00    -0.051 Br
HETATM   25  C18 UNL     1      24.886   7.447  48.322  1.00  0.00     0.048 A 
ENDBRANCH  17  19
ENDBRANCH  16  17
ENDBRANCH  15  16
ENDBRANCH  11  14
BRANCH   1  26
HETATM   26  O1  UNL     1      21.967  -0.645  54.735  1.00  0.00    -0.356 OA
HETATM   27  C1  UNL     1      20.973  -1.598  54.347  1.00  0.00     0.210 C 
ENDBRANCH   1  26
TORSDOF 5
ENDMDL
MODEL 5
REMARK VINA RESULT:      -7.5      5.090      6.239
REMARK  5 active torsions:
REMARK  status: ('A' for Active; 'I' for Inactive)
REMARK    1  A    between atoms: O1_2  and  C2_3 
REMARK    2  A    between atoms: N2_13  and  C11_14 
REMARK    3  A    between atoms: N3_15  and  C12_16 
REMARK    4  A    between atoms: C12_16  and  N4_17 
REMARK    5  A    between atoms: N4_17  and  C13_18 
ROOT
HETATM    1  C2  UNL     1      27.716  -0.304  53.528  1.00  0.00     0.069 A 
HETATM    2  C3  UNL     1      28.141   1.023  53.412  1.00  0.00     0.039 A 
HETATM    3  C4  UNL     1      27.220   2.040  53.257  1.00  0.00     0.040 A 
HETATM    4  C5  UNL     1      25.867   1.710  53.219  1.00  0.00     0.085 A 
HETATM    5  C6  UNL     1      25.404   0.390  53.332  1.00  0.00    -0.004 A 
HETATM    6  C7  UNL     1      26.357  -0.622  53.488  1.00  0.00     0.048 A 
HETATM    7  C8  UNL     1      24.091  -0.238  53.327  1.00  0.00     0.156 C 
HETATM    8  N1  UNL     1      22.943   0.516  53.081  1.00  0.00    -0.410 N 
HETATM    9  C9  UNL     1      22.937   1.575  52.153  1.00  0.00     0.201 C 
HETATM   10  C10 UNL     1      23.674   2.807  52.606  1.00  0.00     0.164 C 
HETATM   11  N2  UNL     1      23.144   3.978  52.614  1.00  0.00    -0.220 NA
HETATM   12  O2  UNL     1      24.992   2.806  53.057  1.00  0.00    -0.294 OA
HETATM   13  H9  UNL     1      22.381   0.777  53.922  1.00  0.00     0.153 HD
ENDROOT
BRANCH  11  14
HETATM   14  C11 UNL     1      21.789   4.066  52.163  1.00  0.00     0.231 C 
HETATM   15  N3  UNL     1      20.835   4.588  51.467  1.00  0.00    -0.263 NA
BRANCH  15  16
HETATM   16  C12 UNL     1      21.174   5.723  50.627  1.00  0.00     0.272 C 
BRANCH  16  17
HETATM   17  N4  UNL     1      22.140   6.497  51.383  1.00  0.00    -0.372 N 
HETATM   18  H15 UNL     1      22.050   6.532  52.402  1.00  0.00     0.161 HD
BRANCH  17  19
HETATM   19  C13 UNL     1      23.176   7.184  50.724  1.00  0.00     0.030 A 
HETATM   20  C14 UNL     1      24.506   7.010  50.996  1.00  0.00     0.029 A 
HETATM   21  C15 UNL     1      25.521   7.690  50.343  1.00  0.00     0.004 A 
HETATM   22  C16 UNL     1      25.186   8.607  49.351  1.00  0.00     0.019 A 
HETATM   23  C17 UNL     1      23.851   8.798  49.063  1.00  0.00     0.013 A 
HETATM   24 BR1  UNL     1      23.281  10.034  47.718  1.00  0.00    -0.051 Br
HETATM   25  C18 UNL     1      22.883   8.105  49.733  1.00  0.00     0.048 A 
ENDBRANCH  17  19
ENDBRANCH  16  17
ENDBRANCH  15  16
ENDBRANCH  11  14
BRANCH   1  26
HETATM   26  O1  UNL     1      28.623  -1.344  53.684  1.00  0.00    -0.356 OA
HETATM   27  C1  UNL     1      30.011  -1.007  53.769  1.00  0.00     0.210 C 
ENDBRANCH   1  26
TORSDOF 5
ENDMDL
MODEL 6
REMARK VINA RESULT:      -7.5      6.079      9.200
REMARK  5 active torsions:
REMARK  status: ('A' for Active; 'I' for Inactive)
REMARK    1  A    between atoms: O1_2  and  C2_3 
REMARK    2  A    between atoms: N2_13  and  C11_14 
REMARK    3  A    between atoms: N3_15  and  C12_16 
REMARK    4  A    between atoms: C12_16  and  N4_17 
REMARK    5  A    between atoms: N4_17  and  C13_18 
ROOT
HETATM    1  C2  UNL     1      26.676   0.131  54.186  1.00  0.00     0.069 A 
HETATM    2  C3  UNL     1      26.086  -0.854  53.386  1.00  0.00     0.039 A 
HETATM    3  C4  UNL     1      25.072  -0.524  52.508  1.00  0.00     0.040 A 
HETATM    4  C5  UNL     1      24.657   0.803  52.441  1.00  0.00     0.085 A 
HETATM    5  C6  UNL     1      25.225   1.817  53.227  1.00  0.00    -0.004 A 
HETATM    6  C7  UNL     1      26.251   1.458  54.110  1.00  0.00     0.048 A 
HETATM    7  C8  UNL     1      25.004   3.249  53.369  1.00  0.00     0.156 C 
HETATM    8  N1  UNL     1      23.962   3.878  52.687  1.00  0.00    -0.410 N 
HETATM    9  C9  UNL     1      22.718   3.249  52.489  1.00  0.00     0.201 C 
HETATM   10  C10 UNL     1      22.735   2.134  51.479  1.00  0.00     0.164 C 
HETATM   11  N2  UNL     1      21.926   2.079  50.481  1.00  0.00    -0.220 NA
HETATM   12  O2  UNL     1      23.617   1.056  51.520  1.00  0.00    -0.294 OA
HETATM   13  H9  UNL     1      24.235   4.403  51.826  1.00  0.00     0.153 HD
ENDROOT
BRANCH  11  14
HETATM   14  C11 UNL     1      20.985   3.150  50.366  1.00  0.00     0.231 C 
HETATM   15  N3  UNL     1      19.869   3.742  50.636  1.00  0.00    -0.263 NA
BRANCH  15  16
HETATM   16  C12 UNL     1      18.966   3.063  51.549  1.00  0.00     0.272 C 
BRANCH  16  17
HETATM   17  N4  UNL     1      18.792   1.727  51.009  1.00  0.00    -0.372 N 
HETATM   18  H15 UNL     1      18.696   1.616  49.996  1.00  0.00     0.161 HD
BRANCH  17  19
HETATM   19  C13 UNL     1      18.757   0.612  51.866  1.00  0.00     0.030 A 
HETATM   20  C14 UNL     1      17.674  -0.212  52.009  1.00  0.00     0.029 A 
HETATM   21  C15 UNL     1      17.646  -1.308  52.855  1.00  0.00     0.004 A 
HETATM   22  C16 UNL     1      18.777  -1.603  53.611  1.00  0.00     0.019 A 
HETATM   23  C17 UNL     1      19.879  -0.784  53.483  1.00  0.00     0.013 A 
HETATM   24 BR1  UNL     1      21.484  -1.098  54.476  1.00  0.00    -0.051 Br
HETATM   25  C18 UNL     1      19.861   0.288  52.635  1.00  0.00     0.048 A 
ENDBRANCH  17  19
ENDBRANCH  16  17
ENDBRANCH  15  16
ENDBRANCH  11  14
BRANCH   1  26
HETATM   26  O1  UNL     1      27.696  -0.176  55.077  1.00  0.00    -0.356 OA
HETATM   27  C1  UNL     1      29.042  -0.088  54.600  1.00  0.00     0.210 C 
ENDBRANCH   1  26
TORSDOF 5
ENDMDL
MODEL 7
REMARK VINA RESULT:      -7.3      3.655      7.819
REMARK  5 active torsions:
REMARK  status: ('A' for Active; 'I' for Inactive)
REMARK    1  A    between atoms: O1_2  and  C2_3 
REMARK    2  A    between atoms: N2_13  and  C11_14 
REMARK    3  A    between atoms: N3_15  and  C12_16 
REMARK    4  A    between atoms: C12_16  and  N4_17 
REMARK    5  A    between atoms: N4_17  and  C13_18 
ROOT
HETATM    1  C2  UNL     1      27.110   6.719  48.244  1.00  0.00     0.069 A 
HETATM    2  C3  UNL     1      27.894   5.565  48.336  1.00  0.00     0.039 A 
HETATM    3  C4  UNL     1      27.404   4.436  48.963  1.00  0.00     0.040 A 
HETATM    4  C5  UNL     1      26.118   4.478  49.496  1.00  0.00     0.085 A 
HETATM    5  C6  UNL     1      25.302   5.618  49.422  1.00  0.00    -0.004 A 
HETATM    6  C7  UNL     1      25.822   6.749  48.782  1.00  0.00     0.048 A 
HETATM    7  C8  UNL     1      23.959   5.946  49.874  1.00  0.00     0.156 C 
HETATM    8  N1  UNL     1      23.226   5.042  50.643  1.00  0.00    -0.410 N 
HETATM    9  C9  UNL     1      23.840   4.227  51.615  1.00  0.00     0.201 C 
HETATM   10  C10 UNL     1      24.675   3.108  51.055  1.00  0.00     0.164 C 
HETATM   11  N2  UNL     1      24.519   1.878  51.396  1.00  0.00    -0.220 NA
HETATM   12  O2  UNL     1      25.693   3.285  50.120  1.00  0.00    -0.294 OA
HETATM   13  H9  UNL     1      22.497   4.496  50.132  1.00  0.00     0.153 HD
ENDROOT
BRANCH  11  14
HETATM   14  C11 UNL     1      23.492   1.609  52.355  1.00  0.00     0.231 C 
HETATM   15  N3  UNL     1      22.853   0.850  53.182  1.00  0.00    -0.263 NA
BRANCH  15  16
HETATM   16  C12 UNL     1      23.325  -0.516  53.323  1.00  0.00     0.272 C 
BRANCH  16  17
HETATM   17  N4  UNL     1      24.401  -0.463  54.295  1.00  0.00    -0.372 N 
HETATM   18  H15 UNL     1      24.163  -0.344  55.283  1.00  0.00     0.161 HD
BRANCH  17  19
HETATM   19  C13 UNL     1      25.741  -0.572  53.880  1.00  0.00     0.030 A 
HETATM   20  C14 UNL     1      26.221  -1.584  53.096  1.00  0.00     0.029 A 
HETATM   21  C15 UNL     1      27.543  -1.685  52.692  1.00  0.00     0.004 A 
HETATM   22  C16 UNL     1      28.447  -0.709  53.100  1.00  0.00     0.019 A 
HETATM   23  C17 UNL     1      27.983   0.319  53.892  1.00  0.00     0.013 A 
HETATM   24 BR1  UNL     1      29.141   1.713  54.508  1.00  0.00    -0.051 Br
HETATM   25  C18 UNL     1      26.670   0.378  54.267  1.00  0.00     0.048 A 
ENDBRANCH  17  19
ENDBRANCH  16  17
ENDBRANCH  15  16
ENDBRANCH  11  14
BRANCH   1  26
HETATM   26  O1  UNL     1      27.581   7.866  47.619  1.00  0.00    -0.356 OA
HETATM   27  C1  UNL     1      26.703   8.533  46.707  1.00  0.00     0.210 C 
ENDBRANCH   1  26
TORSDOF 5
ENDMDL
MODEL 8
REMARK VINA RESULT:      -7.3      4.190      8.685
REMARK  5 active torsions:
REMARK  status: ('A' for Active; 'I' for Inactive)
REMARK    1  A    between atoms: O1_2  and  C2_3 
REMARK    2  A    between atoms: N2_13  and  C11_14 
REMARK    3  A    between atoms: N3_15  and  C12_16 
REMARK    4  A    between atoms: C12_16  and  N4_17 
REMARK    5  A    between atoms: N4_17  and  C13_18 
ROOT
HETATM    1  C2  UNL     1      26.192   6.112  49.134  1.00  0.00     0.069 A 
HETATM    2  C3  UNL     1      27.062   5.070  48.799  1.00  0.00     0.039 A 
HETATM    3  C4  UNL     1      26.905   3.821  49.366  1.00  0.00     0.040 A 
HETATM    4  C5  UNL     1      25.867   3.629  50.274  1.00  0.00     0.085 A 
HETATM    5  C6  UNL     1      24.975   4.652  50.634  1.00  0.00    -0.004 A 
HETATM    6  C7  UNL     1      25.155   5.909  50.046  1.00  0.00     0.048 A 
HETATM    7  C8  UNL     1      23.830   4.744  51.528  1.00  0.00     0.156 C 
HETATM    8  N1  UNL     1      23.473   3.667  52.339  1.00  0.00    -0.410 N 
HETATM    9  C9  UNL     1      24.440   2.833  52.934  1.00  0.00     0.201 C 
HETATM   10  C10 UNL     1      25.140   1.907  51.976  1.00  0.00     0.164 C 
HETATM   11  N2  UNL     1      25.214   0.636  52.156  1.00  0.00    -0.220 NA
HETATM   12  O2  UNL     1      25.776   2.326  50.809  1.00  0.00    -0.294 OA
HETATM   13  H9  UNL     1      22.667   3.093  52.004  1.00  0.00     0.153 HD
ENDROOT
BRANCH  11  14
HETATM   14  C11 UNL     1      24.585   0.124  53.335  1.00  0.00     0.231 C 
HETATM   15  N3  UNL     1      23.641  -0.489  53.967  1.00  0.00    -0.263 NA
BRANCH  15  16
HETATM   16  C12 UNL     1      22.534  -0.994  53.174  1.00  0.00     0.272 C 
BRANCH  16  17
HETATM   17  N4  UNL     1      21.416  -0.113  53.453  1.00  0.00    -0.372 N 
HETATM   18  H15 UNL     1      20.901  -0.237  54.329  1.00  0.00     0.161 HD
BRANCH  17  19
HETATM   19  C13 UNL     1      21.051   0.889  52.535  1.00  0.00     0.030 A 
HETATM   20  C14 UNL     1      20.304   1.989  52.856  1.00  0.00     0.029 A 
HETATM   21  C15 UNL     1      19.948   2.972  51.947  1.00  0.00     0.004 A 
HETATM   22  C16 UNL     1      20.366   2.847  50.625  1.00  0.00     0.019 A 
HETATM   23  C17 UNL     1      21.119   1.745  50.281  1.00  0.00     0.013 A 
HETATM   24 BR1  UNL     1      21.745   1.477  48.492  1.00  0.00    -0.051 Br
HETATM   25  C18 UNL     1      21.446   0.800  51.212  1.00  0.00     0.048 A 
ENDBRANCH  17  19
ENDBRANCH  16  17
ENDBRANCH  15  16
ENDBRANCH  11  14
BRANCH   1  26
HETATM   26  O1  UNL     1      26.329   7.377  48.576  1.00  0.00    -0.356 OA
HETATM   27  C1  UNL     1      26.787   8.432  49.428  1.00  0.00     0.210 C 
ENDBRANCH   1  26
TORSDOF 5
ENDMDL
MODEL 9
REMARK VINA RESULT:      -7.2      7.041     10.724
REMARK  5 active torsions:
REMARK  status: ('A' for Active; 'I' for Inactive)
REMARK    1  A    between atoms: O1_2  and  C2_3 
REMARK    2  A    between atoms: N2_13  and  C11_14 
REMARK    3  A    between atoms: N3_15  and  C12_16 
REMARK    4  A    between atoms: C12_16  and  N4_17 
REMARK    5  A    between atoms: N4_17  and  C13_18 
ROOT
HETATM    1  C2  UNL     1      26.188   0.346  54.233  1.00  0.00     0.069 A 
HETATM    2  C3  UNL     1      26.242   1.702  53.894  1.00  0.00     0.039 A 
HETATM    3  C4  UNL     1      25.164   2.311  53.282  1.00  0.00     0.040 A 
HETATM    4  C5  UNL     1      24.032   1.545  53.014  1.00  0.00     0.085 A 
HETATM    5  C6  UNL     1      23.943   0.183  53.340  1.00  0.00    -0.004 A 
HETATM    6  C7  UNL     1      25.048  -0.411  53.959  1.00  0.00     0.048 A 
HETATM    7  C8  UNL     1      22.921  -0.842  53.186  1.00  0.00     0.156 C 
HETATM    8  N1  UNL     1      21.737  -0.568  52.501  1.00  0.00    -0.410 N 
HETATM    9  C9  UNL     1      21.713   0.263  51.364  1.00  0.00     0.201 C 
HETATM   10  C10 UNL     1      21.908   1.726  51.655  1.00  0.00     0.164 C 
HETATM   11  N2  UNL     1      21.095   2.637  51.250  1.00  0.00    -0.220 NA
HETATM   12  O2  UNL     1      22.976   2.242  52.387  1.00  0.00    -0.294 OA
HETATM   13  H9  UNL     1      20.900  -0.379  53.096  1.00  0.00     0.153 HD
ENDROOT
BRANCH  11  14
HETATM   14  C11 UNL     1      19.969   2.191  50.489  1.00  0.00     0.231 C 
HETATM   15  N3  UNL     1      18.739   1.822  50.354  1.00  0.00    -0.263 NA
BRANCH  15  16
HETATM   16  C12 UNL     1      17.922   1.797  51.555  1.00  0.00     0.272 C 
BRANCH  16  17
HETATM   17  N4  UNL     1      16.992   0.698  51.375  1.00  0.00    -0.372 N 
HETATM   18  H15 UNL     1      16.216   0.814  50.718  1.00  0.00     0.161 HD
BRANCH  17  19
HETATM   19  C13 UNL     1      17.158  -0.501  52.094  1.00  0.00     0.030 A 
HETATM   20  C14 UNL     1      18.269  -0.805  52.832  1.00  0.00     0.029 A 
HETATM   21  C15 UNL     1      18.427  -1.988  53.536  1.00  0.00     0.004 A 
HETATM   22  C16 UNL     1      17.405  -2.932  53.501  1.00  0.00     0.019 A 
HETATM   23  C17 UNL     1      16.277  -2.644  52.762  1.00  0.00     0.013 A 
HETATM   24 BR1  UNL     1      14.813  -3.872  52.646  1.00  0.00    -0.051 Br
HETATM   25  C18 UNL     1      16.166  -1.465  52.082  1.00  0.00     0.048 A 
ENDBRANCH  17  19
ENDBRANCH  16  17
ENDBRANCH  15  16
ENDBRANCH  11  14
BRANCH   1  26
HETATM   26  O1  UNL     1      27.260  -0.288  54.849  1.00  0.00    -0.356 OA
HETATM   27  C1  UNL     1      28.542   0.340  54.762  1.00  0.00     0.210 C 
ENDBRANCH   1  26
TORSDOF 5
ENDMDL
