MODEL 1
REMARK VINA RESULT:      -9.8      0.000      0.000
REMARK  3 active torsions:
REMARK  status: ('A' for Active; 'I' for Inactive)
REMARK    1  A    between atoms: O1_2  and  C2_3 
REMARK    2  A    between atoms: C5_6  and  C6_7 
REMARK    3  A    between atoms: C7_8  and  C8_9 
ROOT
HETATM    1  C8  UNL     1      24.165   3.255  52.232  1.00  0.00     0.275 C 
HETATM    2  N1  UNL     1      23.842   4.691  52.272  1.00  0.00     0.099 N 
HETATM    3  C9  UNL     1      23.637   5.375  51.040  1.00  0.00     0.308 C 
HETATM    4  C10 UNL     1      24.473   4.961  49.882  1.00  0.00    -0.015 C 
HETATM    5  C11 UNL     1      25.384   5.334  49.034  1.00  0.00     0.112 C 
HETATM    6  N2  UNL     1      26.553   4.747  49.012  1.00  0.00    -0.172 NA
HETATM    7  N3  UNL     1      27.010   3.774  49.964  1.00  0.00    -0.277 N 
HETATM    8  C12 UNL     1      26.293   2.991  50.964  1.00  0.00     0.065 C 
HETATM    9  C13 UNL     1      26.733   2.084  51.959  1.00  0.00    -0.006 A 
HETATM   10  C14 UNL     1      26.072   0.919  52.244  1.00  0.00     0.017 A 
HETATM   11  C15 UNL     1      26.512   0.063  53.212  1.00  0.00     0.045 A 
HETATM   12  C16 UNL     1      27.674   0.411  53.916  1.00  0.00     0.138 A 
HETATM   13  F1  UNL     1      28.065  -0.475  54.863  1.00  0.00    -0.204 F 
HETATM   14  C17 UNL     1      28.354   1.591  53.635  1.00  0.00     0.073 A 
HETATM   15 CL1  UNL     1      29.781   1.837  54.629  1.00  0.00    -0.081 Cl
HETATM   16  C18 UNL     1      27.876   2.448  52.636  1.00  0.00     0.040 A 
HETATM   17  C19 UNL     1      24.982   3.157  51.002  1.00  0.00    -0.011 C 
HETATM   18  C20 UNL     1      24.084   3.461  49.783  1.00  0.00     0.077 C 
HETATM   19  H9  UNL     1      22.958   4.750  52.814  1.00  0.00     0.317 HD
HETATM   20  H12 UNL     1      28.032   3.484  50.069  1.00  0.00     0.189 HD
ENDROOT
BRANCH   1  21
HETATM   21  C7  UNL     1      22.986   2.397  52.284  1.00  0.00     0.014 C 
HETATM   22  C6  UNL     1      22.854   1.402  53.170  1.00  0.00     0.010 C 
BRANCH  22  23
HETATM   23  C5  UNL     1      21.739   0.506  53.302  1.00  0.00    -0.036 A 
HETATM   24  C4  UNL     1      21.729  -0.605  54.097  1.00  0.00     0.014 A 
HETATM   25  C3  UNL     1      20.653  -1.482  54.229  1.00  0.00     0.037 A 
HETATM   26  C2  UNL     1      19.500  -1.218  53.506  1.00  0.00     0.068 A 
HETATM   27  C22 UNL     1      19.494  -0.101  52.701  1.00  0.00     0.037 A 
HETATM   28  C21 UNL     1      20.581   0.745  52.595  1.00  0.00     0.014 A 
BRANCH  26  29
HETATM   29  O1  UNL     1      18.348  -1.964  53.510  1.00  0.00    -0.356 OA
HETATM   30  C1  UNL     1      17.107  -1.509  53.006  1.00  0.00     0.210 C 
ENDBRANCH  26  29
ENDBRANCH  22  23
ENDBRANCH   1  21
TORSDOF 3
ENDMDL
MODEL 2
REMARK VINA RESULT:      -9.4      3.805      7.273
REMARK  3 active torsions:
REMARK  status: ('A' for Active; 'I' for Inactive)
REMARK    1  A    between atoms: O1_2  and  C2_3 
REMARK    2  A    between atoms: C5_6  and  C6_7 
REMARK    3  A    between atoms: C7_8  and  C8_9 
ROOT
HETATM    1  C8  UNL     1      24.119   2.151  50.827  1.00  0.00     0.275 C 
HETATM    2  N1  UNL     1      23.000   1.769  49.951  1.00  0.00     0.099 N 
HETATM    3  C9  UNL     1      21.673   2.064  50.376  1.00  0.00     0.308 C 
HETATM    4  C10 UNL     1      21.383   1.960  51.830  1.00  0.00    -0.015 C 
HETATM    5  C11 UNL     1      20.697   1.338  52.742  1.00  0.00     0.112 C 
HETATM    6  N2  UNL     1      21.301   0.639  53.669  1.00  0.00    -0.172 NA
HETATM    7  N3  UNL     1      22.710   0.361  53.711  1.00  0.00    -0.277 N 
HETATM    8  C12 UNL     1      23.833   0.951  52.992  1.00  0.00     0.065 C 
HETATM    9  C13 UNL     1      25.214   0.643  52.964  1.00  0.00    -0.006 A 
HETATM   10  C14 UNL     1      26.189   1.605  52.952  1.00  0.00     0.017 A 
HETATM   11  C15 UNL     1      27.515   1.283  52.919  1.00  0.00     0.045 A 
HETATM   12  C16 UNL     1      27.859  -0.076  52.899  1.00  0.00     0.138 A 
HETATM   13  F1  UNL     1      29.188  -0.337  52.868  1.00  0.00    -0.204 F 
HETATM   14  C17 UNL     1      26.879  -1.062  52.912  1.00  0.00     0.073 A 
HETATM   15 CL1  UNL     1      27.522  -2.697  52.882  1.00  0.00    -0.081 Cl
HETATM   16  C18 UNL     1      25.527  -0.699  52.945  1.00  0.00     0.040 A 
HETATM   17  C19 UNL     1      23.539   1.948  52.174  1.00  0.00    -0.011 C 
HETATM   18  C20 UNL     1      22.412   2.980  52.390  1.00  0.00     0.077 C 
HETATM   19  H9  UNL     1      23.167   2.284  49.064  1.00  0.00     0.317 HD
HETATM   20  H12 UNL     1      23.145  -0.391  54.330  1.00  0.00     0.189 HD
ENDROOT
BRANCH   1  21
HETATM   21  C7  UNL     1      24.637   3.487  50.551  1.00  0.00     0.014 C 
HETATM   22  C6  UNL     1      25.669   3.707  49.727  1.00  0.00     0.010 C 
BRANCH  22  23
HETATM   23  C5  UNL     1      26.250   4.977  49.391  1.00  0.00    -0.036 A 
HETATM   24  C4  UNL     1      27.385   5.136  48.647  1.00  0.00     0.014 A 
HETATM   25  C3  UNL     1      27.958   6.364  48.318  1.00  0.00     0.037 A 
HETATM   26  C2  UNL     1      27.340   7.518  48.773  1.00  0.00     0.068 A 
HETATM   27  C22 UNL     1      26.194   7.374  49.524  1.00  0.00     0.037 A 
HETATM   28  C21 UNL     1      25.656   6.140  49.830  1.00  0.00     0.014 A 
BRANCH  26  29
HETATM   29  O1  UNL     1      27.756   8.806  48.550  1.00  0.00    -0.356 OA
HETATM   30  C1  UNL     1      28.797   9.439  49.269  1.00  0.00     0.210 C 
ENDBRANCH  26  29
ENDBRANCH  22  23
ENDBRANCH   1  21
TORSDOF 3
ENDMDL
MODEL 3
REMARK VINA RESULT:      -8.8      3.578      6.831
REMARK  3 active torsions:
REMARK  status: ('A' for Active; 'I' for Inactive)
REMARK    1  A    between atoms: O1_2  and  C2_3 
REMARK    2  A    between atoms: C5_6  and  C6_7 
REMARK    3  A    between atoms: C7_8  and  C8_9 
ROOT
HETATM    1  C8  UNL     1      23.106   1.483  51.367  1.00  0.00     0.275 C 
HETATM    2  N1  UNL     1      22.138   0.767  50.521  1.00  0.00     0.099 N 
HETATM    3  C9  UNL     1      20.823   0.555  51.025  1.00  0.00     0.308 C 
HETATM    4  C10 UNL     1      20.683   0.293  52.482  1.00  0.00    -0.015 C 
HETATM    5  C11 UNL     1      20.321  -0.570  53.383  1.00  0.00     0.112 C 
HETATM    6  N2  UNL     1      21.191  -1.049  54.235  1.00  0.00    -0.172 NA
HETATM    7  N3  UNL     1      22.607  -0.811  54.194  1.00  0.00    -0.277 N 
HETATM    8  C12 UNL     1      23.402   0.168  53.463  1.00  0.00     0.065 C 
HETATM    9  C13 UNL     1      24.799   0.371  53.352  1.00  0.00    -0.006 A 
HETATM   10  C14 UNL     1      25.370   1.616  53.355  1.00  0.00     0.017 A 
HETATM   11  C15 UNL     1      26.719   1.786  53.241  1.00  0.00     0.045 A 
HETATM   12  C16 UNL     1      27.517   0.639  53.120  1.00  0.00     0.138 A 
HETATM   13  F1  UNL     1      28.848   0.868  53.011  1.00  0.00    -0.204 F 
HETATM   14  C17 UNL     1      26.949  -0.630  53.115  1.00  0.00     0.073 A 
HETATM   15 CL1  UNL     1      28.121  -1.928  52.953  1.00  0.00    -0.081 Cl
HETATM   16  C18 UNL     1      25.560  -0.771  53.234  1.00  0.00     0.040 A 
HETATM   17  C19 UNL     1      22.724   1.030  52.724  1.00  0.00    -0.011 C 
HETATM   18  C20 UNL     1      21.323   1.586  53.057  1.00  0.00     0.077 C 
HETATM   19  H9  UNL     1      22.055   1.345  49.662  1.00  0.00     0.317 HD
HETATM   20  H12 UNL     1      23.319  -1.387  54.744  1.00  0.00     0.189 HD
ENDROOT
BRANCH   1  21
HETATM   21  C7  UNL     1      23.102   2.926  51.153  1.00  0.00     0.014 C 
HETATM   22  C6  UNL     1      24.098   3.567  50.527  1.00  0.00     0.010 C 
BRANCH  22  23
HETATM   23  C5  UNL     1      24.188   4.977  50.267  1.00  0.00    -0.036 A 
HETATM   24  C4  UNL     1      23.858   5.952  51.165  1.00  0.00     0.014 A 
HETATM   25  C3  UNL     1      23.940   7.323  50.920  1.00  0.00     0.037 A 
HETATM   26  C2  UNL     1      24.388   7.741  49.677  1.00  0.00     0.068 A 
HETATM   27  C22 UNL     1      24.725   6.769  48.761  1.00  0.00     0.037 A 
HETATM   28  C21 UNL     1      24.631   5.420  49.040  1.00  0.00     0.014 A 
BRANCH  26  29
HETATM   29  O1  UNL     1      24.533   9.040  49.259  1.00  0.00    -0.356 OA
HETATM   30  C1  UNL     1      25.768   9.620  48.887  1.00  0.00     0.210 C 
ENDBRANCH  26  29
ENDBRANCH  22  23
ENDBRANCH   1  21
TORSDOF 3
ENDMDL
MODEL 4
REMARK VINA RESULT:      -8.8      4.224      7.654
REMARK  3 active torsions:
REMARK  status: ('A' for Active; 'I' for Inactive)
REMARK    1  A    between atoms: O1_2  and  C2_3 
REMARK    2  A    between atoms: C5_6  and  C6_7 
REMARK    3  A    between atoms: C7_8  and  C8_9 
ROOT
HETATM    1  C8  UNL     1      23.030   3.382  49.938  1.00  0.00     0.275 C 
HETATM    2  N1  UNL     1      22.076   3.020  48.876  1.00  0.00     0.099 N 
HETATM    3  C9  UNL     1      20.857   3.751  48.781  1.00  0.00     0.308 C 
HETATM    4  C10 UNL     1      20.229   4.199  50.051  1.00  0.00    -0.015 C 
HETATM    5  C11 UNL     1      19.191   4.094  50.826  1.00  0.00     0.112 C 
HETATM    6  N2  UNL     1      19.309   3.609  52.036  1.00  0.00    -0.172 NA
HETATM    7  N3  UNL     1      20.502   3.026  52.581  1.00  0.00    -0.277 N 
HETATM    8  C12 UNL     1      21.888   3.059  52.128  1.00  0.00     0.065 C 
HETATM    9  C13 UNL     1      23.063   2.432  52.609  1.00  0.00    -0.006 A 
HETATM   10  C14 UNL     1      24.273   3.071  52.667  1.00  0.00     0.017 A 
HETATM   11  C15 UNL     1      25.394   2.443  53.129  1.00  0.00     0.045 A 
HETATM   12  C16 UNL     1      25.273   1.111  53.550  1.00  0.00     0.138 A 
HETATM   13  F1  UNL     1      26.416   0.539  53.999  1.00  0.00    -0.204 F 
HETATM   14  C17 UNL     1      24.050   0.452  53.496  1.00  0.00     0.073 A 
HETATM   15 CL1  UNL     1      24.116  -1.208  54.067  1.00  0.00    -0.081 Cl
HETATM   16  C18 UNL     1      22.918   1.123  53.015  1.00  0.00     0.040 A 
HETATM   17  C19 UNL     1      22.127   3.775  51.043  1.00  0.00    -0.011 C 
HETATM   18  C20 UNL     1      21.378   5.063  50.638  1.00  0.00     0.077 C 
HETATM   19  H9  UNL     1      22.597   3.162  47.989  1.00  0.00     0.317 HD
HETATM   20  H12 UNL     1      20.518   2.434  53.470  1.00  0.00     0.189 HD
ENDROOT
BRANCH   1  21
HETATM   21  C7  UNL     1      24.001   4.388  49.521  1.00  0.00     0.014 C 
HETATM   22  C6  UNL     1      25.306   4.119  49.379  1.00  0.00     0.010 C 
BRANCH  22  23
HETATM   23  C5  UNL     1      26.337   5.033  48.975  1.00  0.00    -0.036 A 
HETATM   24  C4  UNL     1      27.631   4.677  48.721  1.00  0.00     0.014 A 
HETATM   25  C3  UNL     1      28.640   5.558  48.332  1.00  0.00     0.037 A 
HETATM   26  C2  UNL     1      28.319   6.898  48.188  1.00  0.00     0.068 A 
HETATM   27  C22 UNL     1      27.017   7.273  48.439  1.00  0.00     0.037 A 
HETATM   28  C21 UNL     1      26.046   6.371  48.824  1.00  0.00     0.014 A 
BRANCH  26  29
HETATM   29  O1  UNL     1      29.174   7.904  47.814  1.00  0.00    -0.356 OA
HETATM   30  C1  UNL     1      30.064   7.822  46.718  1.00  0.00     0.210 C 
ENDBRANCH  26  29
ENDBRANCH  22  23
ENDBRANCH   1  21
TORSDOF 3
ENDMDL
MODEL 5
REMARK VINA RESULT:      -8.7      4.425      6.519
REMARK  3 active torsions:
REMARK  status: ('A' for Active; 'I' for Inactive)
REMARK    1  A    between atoms: O1_2  and  C2_3 
REMARK    2  A    between atoms: C5_6  and  C6_7 
REMARK    3  A    between atoms: C7_8  and  C8_9 
ROOT
HETATM    1  C8  UNL     1      23.662   3.986  51.572  1.00  0.00     0.275 C 
HETATM    2  N1  UNL     1      22.464   4.348  52.348  1.00  0.00     0.099 N 
HETATM    3  C9  UNL     1      21.272   3.595  52.147  1.00  0.00     0.308 C 
HETATM    4  C10 UNL     1      20.994   3.111  50.770  1.00  0.00    -0.015 C 
HETATM    5  C11 UNL     1      20.186   3.181  49.755  1.00  0.00     0.112 C 
HETATM    6  N2  UNL     1      20.600   3.645  48.604  1.00  0.00    -0.172 NA
HETATM    7  N3  UNL     1      21.885   4.242  48.365  1.00  0.00    -0.277 N 
HETATM    8  C12 UNL     1      23.110   4.246  49.156  1.00  0.00     0.065 C 
HETATM    9  C13 UNL     1      24.359   4.888  48.975  1.00  0.00    -0.006 A 
HETATM   10  C14 UNL     1      25.553   4.273  49.241  1.00  0.00     0.017 A 
HETATM   11  C15 UNL     1      26.745   4.914  49.065  1.00  0.00     0.045 A 
HETATM   12  C16 UNL     1      26.715   6.236  48.597  1.00  0.00     0.138 A 
HETATM   13  F1  UNL     1      27.927   6.822  48.439  1.00  0.00    -0.204 F 
HETATM   14  C17 UNL     1      25.510   6.871  48.323  1.00  0.00     0.073 A 
HETATM   15 CL1  UNL     1      25.694   8.521  47.750  1.00  0.00    -0.081 Cl
HETATM   16  C18 UNL     1      24.303   6.185  48.516  1.00  0.00     0.040 A 
HETATM   17  C19 UNL     1      23.075   3.555  50.283  1.00  0.00    -0.011 C 
HETATM   18  C20 UNL     1      22.267   2.260  50.513  1.00  0.00     0.077 C 
HETATM   19  H9  UNL     1      22.744   4.233  53.341  1.00  0.00     0.317 HD
HETATM   20  H12 UNL     1      22.117   4.818  47.497  1.00  0.00     0.189 HD
ENDROOT
BRANCH   1  21
HETATM   21  C7  UNL     1      24.510   3.008  52.245  1.00  0.00     0.014 C 
HETATM   22  C6  UNL     1      25.650   2.551  51.711  1.00  0.00     0.010 C 
BRANCH  22  23
HETATM   23  C5  UNL     1      26.551   1.594  52.290  1.00  0.00    -0.036 A 
HETATM   24  C4  UNL     1      27.636   1.916  53.055  1.00  0.00     0.014 A 
HETATM   25  C3  UNL     1      28.517   0.995  53.619  1.00  0.00     0.037 A 
HETATM   26  C2  UNL     1      28.288  -0.354  53.395  1.00  0.00     0.068 A 
HETATM   27  C22 UNL     1      27.197  -0.695  52.626  1.00  0.00     0.037 A 
HETATM   28  C21 UNL     1      26.346   0.247  52.084  1.00  0.00     0.014 A 
BRANCH  26  29
HETATM   29  O1  UNL     1      29.043  -1.397  53.866  1.00  0.00    -0.356 OA
HETATM   30  C1  UNL     1      29.019  -2.703  53.322  1.00  0.00     0.210 C 
ENDBRANCH  26  29
ENDBRANCH  22  23
ENDBRANCH   1  21
TORSDOF 3
ENDMDL
MODEL 6
REMARK VINA RESULT:      -8.6      5.416      9.039
REMARK  3 active torsions:
REMARK  status: ('A' for Active; 'I' for Inactive)
REMARK    1  A    between atoms: O1_2  and  C2_3 
REMARK    2  A    between atoms: C5_6  and  C6_7 
REMARK    3  A    between atoms: C7_8  and  C8_9 
ROOT
HETATM    1  C8  UNL     1      23.791   3.617  50.745  1.00  0.00     0.275 C 
HETATM    2  N1  UNL     1      23.692   4.030  52.155  1.00  0.00     0.099 N 
HETATM    3  C9  UNL     1      24.143   3.127  53.160  1.00  0.00     0.308 C 
HETATM    4  C10 UNL     1      23.925   1.676  52.923  1.00  0.00    -0.015 C 
HETATM    5  C11 UNL     1      23.321   0.604  53.340  1.00  0.00     0.112 C 
HETATM    6  N2  UNL     1      22.436   0.002  52.588  1.00  0.00    -0.172 NA
HETATM    7  N3  UNL     1      21.935   0.501  51.337  1.00  0.00    -0.277 N 
HETATM    8  C12 UNL     1      22.417   1.559  50.457  1.00  0.00     0.065 C 
HETATM    9  C13 UNL     1      21.899   2.114  49.262  1.00  0.00    -0.006 A 
HETATM   10  C14 UNL     1      22.690   2.445  48.194  1.00  0.00     0.017 A 
HETATM   11  C15 UNL     1      22.168   2.985  47.055  1.00  0.00     0.045 A 
HETATM   12  C16 UNL     1      20.782   3.193  47.003  1.00  0.00     0.138 A 
HETATM   13  F1  UNL     1      20.320   3.730  45.848  1.00  0.00    -0.204 F 
HETATM   14  C17 UNL     1      19.969   2.862  48.080  1.00  0.00     0.073 A 
HETATM   15 CL1  UNL     1      18.267   3.203  47.811  1.00  0.00    -0.081 Cl
HETATM   16  C18 UNL     1      20.535   2.310  49.236  1.00  0.00     0.040 A 
HETATM   17  C19 UNL     1      23.533   2.162  50.831  1.00  0.00    -0.011 C 
HETATM   18  C20 UNL     1      24.700   1.494  51.590  1.00  0.00     0.077 C 
HETATM   19  H9  UNL     1      24.270   4.890  52.223  1.00  0.00     0.317 HD
HETATM   20  H12 UNL     1      21.059   0.123  50.859  1.00  0.00     0.189 HD
ENDROOT
BRANCH   1  21
HETATM   21  C7  UNL     1      25.051   4.005  50.119  1.00  0.00     0.014 C 
HETATM   22  C6  UNL     1      25.243   5.210  49.567  1.00  0.00     0.010 C 
BRANCH  22  23
HETATM   23  C5  UNL     1      26.439   5.686  48.930  1.00  0.00    -0.036 A 
HETATM   24  C4  UNL     1      26.581   6.929  48.381  1.00  0.00     0.014 A 
HETATM   25  C3  UNL     1      27.737   7.399  47.758  1.00  0.00     0.037 A 
HETATM   26  C2  UNL     1      28.832   6.552  47.684  1.00  0.00     0.068 A 
HETATM   27  C22 UNL     1      28.704   5.296  48.234  1.00  0.00     0.037 A 
HETATM   28  C21 UNL     1      27.543   4.866  48.843  1.00  0.00     0.014 A 
BRANCH  26  29
HETATM   29  O1  UNL     1      30.046   6.840  47.113  1.00  0.00    -0.356 OA
HETATM   30  C1  UNL     1      30.994   7.728  47.671  1.00  0.00     0.210 C 
ENDBRANCH  26  29
ENDBRANCH  22  23
ENDBRANCH   1  21
TORSDOF 3
ENDMDL
MODEL 7
REMARK VINA RESULT:      -8.6      1.727      2.014
REMARK  3 active torsions:
REMARK  status: ('A' for Active; 'I' for Inactive)
REMARK    1  A    between atoms: O1_2  and  C2_3 
REMARK    2  A    between atoms: C5_6  and  C6_7 
REMARK    3  A    between atoms: C7_8  and  C8_9 
ROOT
HETATM    1  C8  UNL     1      23.719   4.034  52.194  1.00  0.00     0.275 C 
HETATM    2  N1  UNL     1      23.940   5.483  52.334  1.00  0.00     0.099 N 
HETATM    3  C9  UNL     1      24.139   6.257  51.155  1.00  0.00     0.308 C 
HETATM    4  C10 UNL     1      24.890   5.621  50.040  1.00  0.00    -0.015 C 
HETATM    5  C11 UNL     1      25.963   5.671  49.310  1.00  0.00     0.112 C 
HETATM    6  N2  UNL     1      26.833   4.694  49.336  1.00  0.00    -0.172 NA
HETATM    7  N3  UNL     1      26.793   3.573  50.233  1.00  0.00    -0.277 N 
HETATM    8  C12 UNL     1      25.733   3.062  51.094  1.00  0.00     0.065 C 
HETATM    9  C13 UNL     1      25.696   2.008  52.038  1.00  0.00    -0.006 A 
HETATM   10  C14 UNL     1      24.628   1.159  52.161  1.00  0.00     0.017 A 
HETATM   11  C15 UNL     1      24.614   0.153  53.083  1.00  0.00     0.045 A 
HETATM   12  C16 UNL     1      25.736   0.007  53.911  1.00  0.00     0.138 A 
HETATM   13  F1  UNL     1      25.667  -1.008  54.806  1.00  0.00    -0.204 F 
HETATM   14  C17 UNL     1      26.826   0.861  53.796  1.00  0.00     0.073 A 
HETATM   15 CL1  UNL     1      28.124   0.508  54.927  1.00  0.00    -0.081 Cl
HETATM   16  C18 UNL     1      26.810   1.885  52.840  1.00  0.00     0.040 A 
HETATM   17  C19 UNL     1      24.577   3.703  51.034  1.00  0.00    -0.011 C 
HETATM   18  C20 UNL     1      23.995   4.381  49.775  1.00  0.00     0.077 C 
HETATM   19  H9  UNL     1      23.083   5.839  52.802  1.00  0.00     0.317 HD
HETATM   20  H12 UNL     1      27.620   2.918  50.398  1.00  0.00     0.189 HD
ENDROOT
BRANCH   1  21
HETATM   21  C7  UNL     1      22.311   3.675  52.068  1.00  0.00     0.014 C 
HETATM   22  C6  UNL     1      21.895   2.408  51.943  1.00  0.00     0.010 C 
BRANCH  22  23
HETATM   23  C5  UNL     1      20.539   1.953  51.814  1.00  0.00    -0.036 A 
HETATM   24  C4  UNL     1      20.164   0.640  51.781  1.00  0.00     0.014 A 
HETATM   25  C3  UNL     1      18.851   0.188  51.653  1.00  0.00     0.037 A 
HETATM   26  C2  UNL     1      17.841   1.132  51.550  1.00  0.00     0.068 A 
HETATM   27  C22 UNL     1      18.204   2.460  51.583  1.00  0.00     0.037 A 
HETATM   28  C21 UNL     1      19.516   2.869  51.710  1.00  0.00     0.014 A 
BRANCH  26  29
HETATM   29  O1  UNL     1      16.499   0.877  51.419  1.00  0.00    -0.356 OA
HETATM   30  C1  UNL     1      15.743   0.113  52.339  1.00  0.00     0.210 C 
ENDBRANCH  26  29
ENDBRANCH  22  23
ENDBRANCH   1  21
TORSDOF 3
ENDMDL
MODEL 8
REMARK VINA RESULT:      -8.4      7.329     10.142
REMARK  3 active torsions:
REMARK  status: ('A' for Active; 'I' for Inactive)
REMARK    1  A    between atoms: O1_2  and  C2_3 
REMARK    2  A    between atoms: C5_6  and  C6_7 
REMARK    3  A    between atoms: C7_8  and  C8_9 
ROOT
HETATM    1  C8  UNL     1      31.253   6.327  47.497  1.00  0.00     0.275 C 
HETATM    2  N1  UNL     1      31.936   5.310  46.679  1.00  0.00     0.099 N 
HETATM    3  C9  UNL     1      32.956   4.524  47.286  1.00  0.00     0.308 C 
HETATM    4  C10 UNL     1      33.822   5.189  48.296  1.00  0.00    -0.015 C 
HETATM    5  C11 UNL     1      35.031   5.565  48.585  1.00  0.00     0.112 C 
HETATM    6  N2  UNL     1      35.316   6.833  48.740  1.00  0.00    -0.172 NA
HETATM    7  N3  UNL     1      34.416   7.921  48.479  1.00  0.00    -0.277 N 
HETATM    8  C12 UNL     1      32.972   7.954  48.277  1.00  0.00     0.065 C 
HETATM    9  C13 UNL     1      32.080   9.002  47.946  1.00  0.00    -0.006 A 
HETATM   10  C14 UNL     1      30.844   9.133  48.522  1.00  0.00     0.017 A 
HETATM   11  C15 UNL     1      29.998  10.149  48.183  1.00  0.00     0.045 A 
HETATM   12  C16 UNL     1      30.432  11.069  47.217  1.00  0.00     0.138 A 
HETATM   13  F1  UNL     1      29.553  12.056  46.920  1.00  0.00    -0.204 F 
HETATM   14  C17 UNL     1      31.684  10.946  46.625  1.00  0.00     0.073 A 
HETATM   15 CL1  UNL     1      32.032  12.198  45.443  1.00  0.00    -0.081 Cl
HETATM   16  C18 UNL     1      32.529   9.892  46.995  1.00  0.00     0.040 A 
HETATM   17  C19 UNL     1      32.345   6.795  48.381  1.00  0.00    -0.011 C 
HETATM   18  C20 UNL     1      32.750   5.641  49.324  1.00  0.00     0.077 C 
HETATM   19  H9  UNL     1      31.183   4.664  46.373  1.00  0.00     0.317 HD
HETATM   20  H12 UNL     1      34.729   8.938  48.386  1.00  0.00     0.189 HD
ENDROOT
BRANCH   1  21
HETATM   21  C7  UNL     1      30.062   5.820  48.169  1.00  0.00     0.014 C 
HETATM   22  C6  UNL     1      28.826   6.228  47.855  1.00  0.00     0.010 C 
BRANCH  22  23
HETATM   23  C5  UNL     1      27.595   5.792  48.453  1.00  0.00    -0.036 A 
HETATM   24  C4  UNL     1      26.506   6.593  48.655  1.00  0.00     0.014 A 
HETATM   25  C3  UNL     1      25.309   6.180  49.237  1.00  0.00     0.037 A 
HETATM   26  C2  UNL     1      25.200   4.861  49.647  1.00  0.00     0.068 A 
HETATM   27  C22 UNL     1      26.289   4.041  49.450  1.00  0.00     0.037 A 
HETATM   28  C21 UNL     1      27.460   4.486  48.870  1.00  0.00     0.014 A 
BRANCH  26  29
HETATM   29  O1  UNL     1      24.106   4.279  50.236  1.00  0.00    -0.356 OA
HETATM   30  C1  UNL     1      24.149   3.070  50.969  1.00  0.00     0.210 C 
ENDBRANCH  26  29
ENDBRANCH  22  23
ENDBRANCH   1  21
TORSDOF 3
ENDMDL
MODEL 9
REMARK VINA RESULT:      -8.0      2.423      3.450
REMARK  3 active torsions:
REMARK  status: ('A' for Active; 'I' for Inactive)
REMARK    1  A    between atoms: O1_2  and  C2_3 
REMARK    2  A    between atoms: C5_6  and  C6_7 
REMARK    3  A    between atoms: C7_8  and  C8_9 
ROOT
HETATM    1  C8  UNL     1      20.933   2.444  51.970  1.00  0.00     0.275 C 
HETATM    2  N1  UNL     1      20.614   3.882  51.987  1.00  0.00     0.099 N 
HETATM    3  C9  UNL     1      20.487   4.564  50.743  1.00  0.00     0.308 C 
HETATM    4  C10 UNL     1      21.389   4.143  49.638  1.00  0.00    -0.015 C 
HETATM    5  C11 UNL     1      22.351   4.510  48.846  1.00  0.00     0.112 C 
HETATM    6  N2  UNL     1      23.517   3.919  48.896  1.00  0.00    -0.172 NA
HETATM    7  N3  UNL     1      23.911   2.946  49.876  1.00  0.00    -0.277 N 
HETATM    8  C12 UNL     1      23.133   2.168  50.832  1.00  0.00     0.065 C 
HETATM    9  C13 UNL     1      23.508   1.263  51.854  1.00  0.00    -0.006 A 
HETATM   10  C14 UNL     1      22.826   0.101  52.102  1.00  0.00     0.017 A 
HETATM   11  C15 UNL     1      23.203  -0.754  53.097  1.00  0.00     0.045 A 
HETATM   12  C16 UNL     1      24.322  -0.410  53.868  1.00  0.00     0.138 A 
HETATM   13  F1  UNL     1      24.651  -1.295  54.840  1.00  0.00    -0.204 F 
HETATM   14  C17 UNL     1      25.023   0.767  53.626  1.00  0.00     0.073 A 
HETATM   15 CL1  UNL     1      26.388   1.010  54.704  1.00  0.00    -0.081 Cl
HETATM   16  C18 UNL     1      24.610   1.624  52.598  1.00  0.00     0.040 A 
HETATM   17  C19 UNL     1      21.822   2.340  50.791  1.00  0.00    -0.011 C 
HETATM   18  C20 UNL     1      21.000   2.645  49.520  1.00  0.00     0.077 C 
HETATM   19  H9  UNL     1      19.699   3.946  52.474  1.00  0.00     0.317 HD
HETATM   20  H12 UNL     1      24.924   2.652  50.043  1.00  0.00     0.189 HD
ENDROOT
BRANCH   1  21
HETATM   21  C7  UNL     1      19.749   1.592  51.952  1.00  0.00     0.014 C 
HETATM   22  C6  UNL     1      19.696   0.414  52.588  1.00  0.00     0.010 C 
BRANCH  22  23
HETATM   23  C5  UNL     1      18.585  -0.494  52.632  1.00  0.00    -0.036 A 
HETATM   24  C4  UNL     1      17.421  -0.328  51.934  1.00  0.00     0.014 A 
HETATM   25  C3  UNL     1      16.336  -1.203  51.973  1.00  0.00     0.037 A 
HETATM   26  C2  UNL     1      16.431  -2.329  52.775  1.00  0.00     0.068 A 
HETATM   27  C22 UNL     1      17.598  -2.511  53.483  1.00  0.00     0.037 A 
HETATM   28  C21 UNL     1      18.652  -1.622  53.420  1.00  0.00     0.014 A 
BRANCH  26  29
HETATM   29  O1  UNL     1      15.470  -3.296  52.937  1.00  0.00    -0.356 OA
HETATM   30  C1  UNL     1      15.711  -4.683  52.804  1.00  0.00     0.210 C 
ENDBRANCH  26  29
ENDBRANCH  22  23
ENDBRANCH   1  21
TORSDOF 3
ENDMDL
