MODEL 1
REMARK VINA RESULT:      -7.0      0.000      0.000
REMARK  9 active torsions:
REMARK  status: ('A' for Active; 'I' for Inactive)
REMARK    1  A    between atoms: C2_2  and  N1_3 
REMARK    2  A    between atoms: N1_3  and  C3_4 
REMARK    3  A    between atoms: N1_3  and  S1_13 
REMARK    4  A    between atoms: C3_4  and  C4_5 
REMARK    5  A    between atoms: C4_5  and  N2_6 
REMARK    6  A    between atoms: N2_6  and  C5_7 
REMARK    7  A    between atoms: S1_13  and  C11_14 
REMARK    8  A    between atoms: C11_14  and  C12_15 
REMARK    9  A    between atoms: C17_21  and  O1_22 
ROOT
HETATM    1  N1  UNL     1      25.307   2.873  51.501  1.00  0.00    -0.355 N 
ENDROOT
BRANCH   1   2
HETATM    2  C2  UNL     1      25.482   3.905  50.571  1.00  0.00     0.126 C 
HETATM    3  C1  UNL     1      26.287   3.634  49.348  1.00  0.00     0.027 C 
ENDBRANCH   1   2
BRANCH   1   4
HETATM    4  C3  UNL     1      26.381   2.386  52.262  1.00  0.00     0.150 C 
BRANCH   4   5
HETATM    5  C4  UNL     1      25.991   2.027  53.651  1.00  0.00     0.140 C 
BRANCH   5   6
HETATM    6  N2  UNL     1      27.153   1.557  54.438  1.00  0.00    -0.388 N 
HETATM    7  H10 UNL     1      27.483   2.059  55.311  1.00  0.00     0.159 HD
BRANCH   6   8
HETATM    8  C5  UNL     1      27.851   0.374  53.986  1.00  0.00     0.028 A 
HETATM    9  C6  UNL     1      29.219   0.251  54.072  1.00  0.00     0.029 A 
HETATM   10  C7  UNL     1      29.750  -0.950  53.607  1.00  0.00     0.002 A 
HETATM   11  C8  UNL     1      29.043  -2.000  53.081  1.00  0.00     0.000 A 
HETATM   12  C9  UNL     1      27.674  -1.852  53.007  1.00  0.00     0.002 A 
HETATM   13  C10 UNL     1      27.107  -0.668  53.460  1.00  0.00     0.029 A 
ENDBRANCH   6   8
ENDBRANCH   5   6
ENDBRANCH   4   5
ENDBRANCH   1   4
BRANCH   1  14
HETATM   14  S1  UNL     1      23.748   2.596  52.151  1.00  0.00    -0.053 SA
BRANCH  14  15
HETATM   15  C11 UNL     1      22.750   1.347  51.369  1.00  0.00     0.138 C 
BRANCH  15  16
HETATM   16  C12 UNL     1      22.161   0.461  52.397  1.00  0.00    -0.013 A 
HETATM   17  C13 UNL     1      22.955  -0.054  53.424  1.00  0.00     0.011 A 
HETATM   18  C14 UNL     1      22.490  -0.893  54.415  1.00  0.00     0.002 A 
HETATM   19  C15 UNL     1      21.173  -1.265  54.425  1.00  0.00     0.022 A 
HETATM   20  C16 UNL     1      20.346  -0.784  53.434  1.00  0.00     0.044 A 
HETATM   21 BR1  UNL     1      18.517  -1.309  53.457  1.00  0.00    -0.048 Br
HETATM   22  C17 UNL     1      20.861   0.048  52.471  1.00  0.00     0.092 A 
BRANCH  22  23
HETATM   23  O1  UNL     1      19.948   0.477  51.522  1.00  0.00    -0.354 OA
HETATM   24  C18 UNL     1      19.327   1.735  51.642  1.00  0.00     0.210 C 
ENDBRANCH  22  23
ENDBRANCH  15  16
ENDBRANCH  14  15
ENDBRANCH   1  14
TORSDOF 9
ENDMDL
MODEL 2
REMARK VINA RESULT:      -6.9      3.386      6.773
REMARK  9 active torsions:
REMARK  status: ('A' for Active; 'I' for Inactive)
REMARK    1  A    between atoms: C2_2  and  N1_3 
REMARK    2  A    between atoms: N1_3  and  C3_4 
REMARK    3  A    between atoms: N1_3  and  S1_13 
REMARK    4  A    between atoms: C3_4  and  C4_5 
REMARK    5  A    between atoms: C4_5  and  N2_6 
REMARK    6  A    between atoms: N2_6  and  C5_7 
REMARK    7  A    between atoms: S1_13  and  C11_14 
REMARK    8  A    between atoms: C11_14  and  C12_15 
REMARK    9  A    between atoms: C17_21  and  O1_22 
ROOT
HETATM    1  N1  UNL     1      21.926   1.138  52.291  1.00  0.00    -0.355 N 
ENDROOT
BRANCH   1   2
HETATM    2  C2  UNL     1      20.778   1.000  53.081  1.00  0.00     0.126 C 
HETATM    3  C1  UNL     1      20.867   0.204  54.335  1.00  0.00     0.027 C 
ENDBRANCH   1   2
BRANCH   1   4
HETATM    4  C3  UNL     1      21.843   1.523  50.943  1.00  0.00     0.150 C 
BRANCH   4   5
HETATM    5  C4  UNL     1      23.165   1.874  50.360  1.00  0.00     0.140 C 
BRANCH   5   6
HETATM    6  N2  UNL     1      23.184   3.265  49.854  1.00  0.00    -0.388 N 
HETATM    7  H10 UNL     1      22.295   3.823  49.706  1.00  0.00     0.159 HD
BRANCH   6   8
HETATM    8  C5  UNL     1      24.464   3.865  49.553  1.00  0.00     0.028 A 
HETATM    9  C6  UNL     1      25.652   3.198  49.745  1.00  0.00     0.029 A 
HETATM   10  C7  UNL     1      26.805   3.899  49.401  1.00  0.00     0.002 A 
HETATM   11  C8  UNL     1      26.859   5.173  48.898  1.00  0.00     0.000 A 
HETATM   12  C9  UNL     1      25.655   5.820  48.714  1.00  0.00     0.002 A 
HETATM   13  C10 UNL     1      24.484   5.153  49.046  1.00  0.00     0.029 A 
ENDBRANCH   6   8
ENDBRANCH   5   6
ENDBRANCH   4   5
ENDBRANCH   1   4
BRANCH   1  14
HETATM   14  S1  UNL     1      23.432   1.419  53.054  1.00  0.00    -0.053 SA
BRANCH  14  15
HETATM   15  C11 UNL     1      24.548   0.039  53.184  1.00  0.00     0.138 C 
BRANCH  15  16
HETATM   16  C12 UNL     1      25.941   0.530  53.276  1.00  0.00    -0.013 A 
HETATM   17  C13 UNL     1      26.212   1.899  53.224  1.00  0.00     0.011 A 
HETATM   18  C14 UNL     1      27.478   2.441  53.293  1.00  0.00     0.002 A 
HETATM   19  C15 UNL     1      28.562   1.615  53.419  1.00  0.00     0.022 A 
HETATM   20  C16 UNL     1      28.350   0.255  53.475  1.00  0.00     0.044 A 
HETATM   21 BR1  UNL     1      29.865  -0.884  53.648  1.00  0.00    -0.048 Br
HETATM   22  C17 UNL     1      27.068  -0.232  53.402  1.00  0.00     0.092 A 
BRANCH  22  23
HETATM   23  O1  UNL     1      26.963  -1.611  53.468  1.00  0.00    -0.354 OA
HETATM   24  C18 UNL     1      26.892  -2.381  52.291  1.00  0.00     0.210 C 
ENDBRANCH  22  23
ENDBRANCH  15  16
ENDBRANCH  14  15
ENDBRANCH   1  14
TORSDOF 9
ENDMDL
MODEL 3
REMARK VINA RESULT:      -6.9      1.526      2.363
REMARK  9 active torsions:
REMARK  status: ('A' for Active; 'I' for Inactive)
REMARK    1  A    between atoms: C2_2  and  N1_3 
REMARK    2  A    between atoms: N1_3  and  C3_4 
REMARK    3  A    between atoms: N1_3  and  S1_13 
REMARK    4  A    between atoms: C3_4  and  C4_5 
REMARK    5  A    between atoms: C4_5  and  N2_6 
REMARK    6  A    between atoms: N2_6  and  C5_7 
REMARK    7  A    between atoms: S1_13  and  C11_14 
REMARK    8  A    between atoms: C11_14  and  C12_15 
REMARK    9  A    between atoms: C17_21  and  O1_22 
ROOT
HETATM    1  N1  UNL     1      23.412   4.090  50.697  1.00  0.00    -0.355 N 
ENDROOT
BRANCH   1   2
HETATM    2  C2  UNL     1      22.494   4.915  50.035  1.00  0.00     0.126 C 
HETATM    3  C1  UNL     1      21.222   4.317  49.546  1.00  0.00     0.027 C 
ENDBRANCH   1   2
BRANCH   1   4
HETATM    4  C3  UNL     1      24.764   4.450  50.816  1.00  0.00     0.150 C 
BRANCH   4   5
HETATM    5  C4  UNL     1      25.690   3.359  50.415  1.00  0.00     0.140 C 
BRANCH   5   6
HETATM    6  N2  UNL     1      26.735   3.129  51.439  1.00  0.00    -0.388 N 
HETATM    7  H10 UNL     1      27.553   3.790  51.568  1.00  0.00     0.159 HD
BRANCH   6   8
HETATM    8  C5  UNL     1      26.620   1.959  52.281  1.00  0.00     0.028 A 
HETATM    9  C6  UNL     1      26.471   2.048  53.646  1.00  0.00     0.029 A 
HETATM   10  C7  UNL     1      26.363   0.836  54.325  1.00  0.00     0.002 A 
HETATM   11  C8  UNL     1      26.392  -0.413  53.762  1.00  0.00     0.000 A 
HETATM   12  C9  UNL     1      26.541  -0.476  52.392  1.00  0.00     0.002 A 
HETATM   13  C10 UNL     1      26.653   0.712  51.681  1.00  0.00     0.029 A 
ENDBRANCH   6   8
ENDBRANCH   5   6
ENDBRANCH   4   5
ENDBRANCH   1   4
BRANCH   1  14
HETATM   14  S1  UNL     1      22.836   2.964  51.850  1.00  0.00    -0.053 SA
BRANCH  14  15
HETATM   15  C11 UNL     1      22.816   1.250  51.374  1.00  0.00     0.138 C 
BRANCH  15  16
HETATM   16  C12 UNL     1      22.132   0.450  52.413  1.00  0.00    -0.013 A 
HETATM   17  C13 UNL     1      22.830   0.010  53.540  1.00  0.00     0.011 A 
HETATM   18  C14 UNL     1      22.273  -0.747  54.550  1.00  0.00     0.002 A 
HETATM   19  C15 UNL     1      20.955  -1.108  54.476  1.00  0.00     0.022 A 
HETATM   20  C16 UNL     1      20.220  -0.700  53.386  1.00  0.00     0.044 A 
HETATM   21 BR1  UNL     1      18.389  -1.210  53.294  1.00  0.00    -0.048 Br
HETATM   22  C17 UNL     1      20.824   0.052  52.408  1.00  0.00     0.092 A 
BRANCH  22  23
HETATM   23  O1  UNL     1      20.000   0.412  51.356  1.00  0.00    -0.354 OA
HETATM   24  C18 UNL     1      19.291   1.628  51.385  1.00  0.00     0.210 C 
ENDBRANCH  22  23
ENDBRANCH  15  16
ENDBRANCH  14  15
ENDBRANCH   1  14
TORSDOF 9
ENDMDL
MODEL 4
REMARK VINA RESULT:      -6.8      1.952      2.833
REMARK  9 active torsions:
REMARK  status: ('A' for Active; 'I' for Inactive)
REMARK    1  A    between atoms: C2_2  and  N1_3 
REMARK    2  A    between atoms: N1_3  and  C3_4 
REMARK    3  A    between atoms: N1_3  and  S1_13 
REMARK    4  A    between atoms: C3_4  and  C4_5 
REMARK    5  A    between atoms: C4_5  and  N2_6 
REMARK    6  A    between atoms: N2_6  and  C5_7 
REMARK    7  A    between atoms: S1_13  and  C11_14 
REMARK    8  A    between atoms: C11_14  and  C12_15 
REMARK    9  A    between atoms: C17_21  and  O1_22 
ROOT
HETATM    1  N1  UNL     1      23.862   3.800  49.920  1.00  0.00    -0.355 N 
ENDROOT
BRANCH   1   2
HETATM    2  C2  UNL     1      23.474   2.963  48.867  1.00  0.00     0.126 C 
HETATM    3  C1  UNL     1      22.102   2.384  48.884  1.00  0.00     0.027 C 
ENDBRANCH   1   2
BRANCH   1   4
HETATM    4  C3  UNL     1      25.166   4.314  50.001  1.00  0.00     0.150 C 
BRANCH   4   5
HETATM    5  C4  UNL     1      26.198   3.251  50.130  1.00  0.00     0.140 C 
BRANCH   5   6
HETATM    6  N2  UNL     1      26.743   3.187  51.505  1.00  0.00    -0.388 N 
HETATM    7  H10 UNL     1      27.202   4.022  51.969  1.00  0.00     0.159 HD
BRANCH   6   8
HETATM    8  C5  UNL     1      26.639   1.937  52.224  1.00  0.00     0.028 A 
HETATM    9  C6  UNL     1      26.639   0.719  51.583  1.00  0.00     0.029 A 
HETATM   10  C7  UNL     1      26.544  -0.400  52.406  1.00  0.00     0.002 A 
HETATM   11  C8  UNL     1      26.452  -0.395  53.774  1.00  0.00     0.000 A 
HETATM   12  C9  UNL     1      26.456   0.838  54.393  1.00  0.00     0.002 A 
HETATM   13  C10 UNL     1      26.549   1.977  53.605  1.00  0.00     0.029 A 
ENDBRANCH   6   8
ENDBRANCH   5   6
ENDBRANCH   4   5
ENDBRANCH   1   4
BRANCH   1  14
HETATM   14  S1  UNL     1      22.662   4.674  50.772  1.00  0.00    -0.053 SA
BRANCH  14  15
HETATM   15  C11 UNL     1      22.300   4.150  52.433  1.00  0.00     0.138 C 
BRANCH  15  16
HETATM   16  C12 UNL     1      22.034   2.695  52.453  1.00  0.00    -0.013 A 
HETATM   17  C13 UNL     1      23.093   1.786  52.506  1.00  0.00     0.011 A 
HETATM   18  C14 UNL     1      22.936   0.415  52.517  1.00  0.00     0.002 A 
HETATM   19  C15 UNL     1      21.678  -0.123  52.475  1.00  0.00     0.022 A 
HETATM   20  C16 UNL     1      20.599   0.731  52.422  1.00  0.00     0.044 A 
HETATM   21 BR1  UNL     1      18.855  -0.029  52.362  1.00  0.00    -0.048 Br
HETATM   22  C17 UNL     1      20.811   2.088  52.412  1.00  0.00     0.092 A 
BRANCH  22  23
HETATM   23  O1  UNL     1      19.662   2.858  52.359  1.00  0.00    -0.354 OA
HETATM   24  C18 UNL     1      19.158   3.308  51.123  1.00  0.00     0.210 C 
ENDBRANCH  22  23
ENDBRANCH  15  16
ENDBRANCH  14  15
ENDBRANCH   1  14
TORSDOF 9
ENDMDL
MODEL 5
REMARK VINA RESULT:      -6.5      3.591      6.937
REMARK  9 active torsions:
REMARK  status: ('A' for Active; 'I' for Inactive)
REMARK    1  A    between atoms: C2_2  and  N1_3 
REMARK    2  A    between atoms: N1_3  and  C3_4 
REMARK    3  A    between atoms: N1_3  and  S1_13 
REMARK    4  A    between atoms: C3_4  and  C4_5 
REMARK    5  A    between atoms: C4_5  and  N2_6 
REMARK    6  A    between atoms: N2_6  and  C5_7 
REMARK    7  A    between atoms: S1_13  and  C11_14 
REMARK    8  A    between atoms: C11_14  and  C12_15 
REMARK    9  A    between atoms: C17_21  and  O1_22 
ROOT
HETATM    1  N1  UNL     1      23.181   2.226  51.807  1.00  0.00    -0.355 N 
ENDROOT
BRANCH   1   2
HETATM    2  C2  UNL     1      22.143   1.512  52.419  1.00  0.00     0.126 C 
HETATM    3  C1  UNL     1      22.487   0.509  53.464  1.00  0.00     0.027 C 
ENDBRANCH   1   2
BRANCH   1   4
HETATM    4  C3  UNL     1      22.934   3.100  50.736  1.00  0.00     0.150 C 
BRANCH   4   5
HETATM    5  C4  UNL     1      23.559   4.436  50.924  1.00  0.00     0.140 C 
BRANCH   5   6
HETATM    6  N2  UNL     1      23.798   5.111  49.629  1.00  0.00    -0.388 N 
HETATM    7  H10 UNL     1      23.003   5.446  49.013  1.00  0.00     0.159 HD
BRANCH   6   8
HETATM    8  C5  UNL     1      25.166   5.311  49.204  1.00  0.00     0.028 A 
HETATM    9  C6  UNL     1      26.125   4.334  49.336  1.00  0.00     0.029 A 
HETATM   10  C7  UNL     1      27.396   4.665  48.872  1.00  0.00     0.002 A 
HETATM   11  C8  UNL     1      27.768   5.857  48.307  1.00  0.00     0.000 A 
HETATM   12  C9  UNL     1      26.787   6.820  48.184  1.00  0.00     0.002 A 
HETATM   13  C10 UNL     1      25.507   6.526  48.636  1.00  0.00     0.029 A 
ENDBRANCH   6   8
ENDBRANCH   5   6
ENDBRANCH   4   5
ENDBRANCH   1   4
BRANCH   1  14
HETATM   14  S1  UNL     1      24.623   2.512  52.685  1.00  0.00    -0.053 SA
BRANCH  14  15
HETATM   15  C11 UNL     1      26.160   2.171  51.856  1.00  0.00     0.138 C 
BRANCH  15  16
HETATM   16  C12 UNL     1      26.676   0.851  52.282  1.00  0.00    -0.013 A 
HETATM   17  C13 UNL     1      25.857  -0.278  52.225  1.00  0.00     0.011 A 
HETATM   18  C14 UNL     1      26.254  -1.542  52.611  1.00  0.00     0.002 A 
HETATM   19  C15 UNL     1      27.523  -1.739  53.083  1.00  0.00     0.022 A 
HETATM   20  C16 UNL     1      28.372  -0.657  53.159  1.00  0.00     0.044 A 
HETATM   21 BR1  UNL     1      30.134  -0.943  53.819  1.00  0.00    -0.048 Br
HETATM   22  C17 UNL     1      27.926   0.580  52.763  1.00  0.00     0.092 A 
BRANCH  22  23
HETATM   23  O1  UNL     1      28.856   1.600  52.877  1.00  0.00    -0.354 OA
HETATM   24  C18 UNL     1      28.863   2.438  54.008  1.00  0.00     0.210 C 
ENDBRANCH  22  23
ENDBRANCH  15  16
ENDBRANCH  14  15
ENDBRANCH   1  14
TORSDOF 9
ENDMDL
MODEL 6
REMARK VINA RESULT:      -6.5      3.936      6.230
REMARK  9 active torsions:
REMARK  status: ('A' for Active; 'I' for Inactive)
REMARK    1  A    between atoms: C2_2  and  N1_3 
REMARK    2  A    between atoms: N1_3  and  C3_4 
REMARK    3  A    between atoms: N1_3  and  S1_13 
REMARK    4  A    between atoms: C3_4  and  C4_5 
REMARK    5  A    between atoms: C4_5  and  N2_6 
REMARK    6  A    between atoms: N2_6  and  C5_7 
REMARK    7  A    between atoms: S1_13  and  C11_14 
REMARK    8  A    between atoms: C11_14  and  C12_15 
REMARK    9  A    between atoms: C17_21  and  O1_22 
ROOT
HETATM    1  N1  UNL     1      21.850   2.739  51.293  1.00  0.00    -0.355 N 
ENDROOT
BRANCH   1   2
HETATM    2  C2  UNL     1      21.219   2.364  50.100  1.00  0.00     0.126 C 
HETATM    3  C1  UNL     1      21.920   1.420  49.188  1.00  0.00     0.027 C 
ENDBRANCH   1   2
BRANCH   1   4
HETATM    4  C3  UNL     1      22.212   1.786  52.258  1.00  0.00     0.150 C 
BRANCH   4   5
HETATM    5  C4  UNL     1      23.617   1.936  52.720  1.00  0.00     0.140 C 
BRANCH   5   6
HETATM    6  N2  UNL     1      24.541   1.083  51.939  1.00  0.00    -0.388 N 
HETATM    7  H10 UNL     1      24.243   0.604  51.042  1.00  0.00     0.159 HD
BRANCH   6   8
HETATM    8  C5  UNL     1      25.889   0.905  52.432  1.00  0.00     0.028 A 
HETATM    9  C6  UNL     1      26.473  -0.335  52.541  1.00  0.00     0.029 A 
HETATM   10  C7  UNL     1      27.781  -0.350  53.021  1.00  0.00     0.002 A 
HETATM   11  C8  UNL     1      28.522   0.743  53.387  1.00  0.00     0.000 A 
HETATM   12  C9  UNL     1      27.914   1.976  53.266  1.00  0.00     0.002 A 
HETATM   13  C10 UNL     1      26.610   2.030  52.792  1.00  0.00     0.029 A 
ENDBRANCH   6   8
ENDBRANCH   5   6
ENDBRANCH   4   5
ENDBRANCH   1   4
BRANCH   1  14
HETATM   14  S1  UNL     1      22.707   4.219  51.349  1.00  0.00    -0.053 SA
BRANCH  14  15
HETATM   15  C11 UNL     1      23.080   5.004  49.796  1.00  0.00     0.138 C 
BRANCH  15  16
HETATM   16  C12 UNL     1      24.520   4.853  49.493  1.00  0.00    -0.013 A 
HETATM   17  C13 UNL     1      25.162   3.630  49.703  1.00  0.00     0.011 A 
HETATM   18  C14 UNL     1      26.500   3.406  49.456  1.00  0.00     0.002 A 
HETATM   19  C15 UNL     1      27.280   4.423  48.975  1.00  0.00     0.022 A 
HETATM   20  C16 UNL     1      26.696   5.649  48.750  1.00  0.00     0.044 A 
HETATM   21 BR1  UNL     1      27.790   7.056  48.083  1.00  0.00    -0.048 Br
HETATM   22  C17 UNL     1      25.359   5.819  49.013  1.00  0.00     0.092 A 
BRANCH  22  23
HETATM   23  O1  UNL     1      24.869   7.088  48.752  1.00  0.00    -0.354 OA
HETATM   24  C18 UNL     1      24.735   8.031  49.789  1.00  0.00     0.210 C 
ENDBRANCH  22  23
ENDBRANCH  15  16
ENDBRANCH  14  15
ENDBRANCH   1  14
TORSDOF 9
ENDMDL
MODEL 7
REMARK VINA RESULT:      -6.5      1.738      2.429
REMARK  9 active torsions:
REMARK  status: ('A' for Active; 'I' for Inactive)
REMARK    1  A    between atoms: C2_2  and  N1_3 
REMARK    2  A    between atoms: N1_3  and  C3_4 
REMARK    3  A    between atoms: N1_3  and  S1_13 
REMARK    4  A    between atoms: C3_4  and  C4_5 
REMARK    5  A    between atoms: C4_5  and  N2_6 
REMARK    6  A    between atoms: N2_6  and  C5_7 
REMARK    7  A    between atoms: S1_13  and  C11_14 
REMARK    8  A    between atoms: C11_14  and  C12_15 
REMARK    9  A    between atoms: C17_21  and  O1_22 
ROOT
HETATM    1  N1  UNL     1      24.283   2.014  51.628  1.00  0.00    -0.355 N 
ENDROOT
BRANCH   1   2
HETATM    2  C2  UNL     1      25.441   2.509  51.016  1.00  0.00     0.126 C 
HETATM    3  C1  UNL     1      26.751   2.299  51.691  1.00  0.00     0.027 C 
ENDBRANCH   1   2
BRANCH   1   4
HETATM    4  C3  UNL     1      24.299   1.552  52.954  1.00  0.00     0.150 C 
BRANCH   4   5
HETATM    5  C4  UNL     1      24.129   0.079  53.055  1.00  0.00     0.140 C 
BRANCH   5   6
HETATM    6  N2  UNL     1      24.933  -0.487  54.162  1.00  0.00    -0.388 N 
HETATM    7  H10 UNL     1      24.488  -0.862  55.047  1.00  0.00     0.159 HD
BRANCH   6   8
HETATM    8  C5  UNL     1      26.371  -0.518  54.015  1.00  0.00     0.028 A 
HETATM    9  C6  UNL     1      26.992  -1.233  53.017  1.00  0.00     0.029 A 
HETATM   10  C7  UNL     1      28.383  -1.159  52.993  1.00  0.00     0.002 A 
HETATM   11  C8  UNL     1      29.173  -0.451  53.861  1.00  0.00     0.000 A 
HETATM   12  C9  UNL     1      28.526   0.259  54.851  1.00  0.00     0.002 A 
HETATM   13  C10 UNL     1      27.140   0.210  54.908  1.00  0.00     0.029 A 
ENDBRANCH   6   8
ENDBRANCH   5   6
ENDBRANCH   4   5
ENDBRANCH   1   4
BRANCH   1  14
HETATM   14  S1  UNL     1      22.755   2.489  51.022  1.00  0.00    -0.053 SA
BRANCH  14  15
HETATM   15  C11 UNL     1      21.480   2.840  52.214  1.00  0.00     0.138 C 
BRANCH  15  16
HETATM   16  C12 UNL     1      20.523   1.714  52.269  1.00  0.00    -0.013 A 
HETATM   17  C13 UNL     1      20.604   0.768  53.293  1.00  0.00     0.011 A 
HETATM   18  C14 UNL     1      19.760  -0.316  53.415  1.00  0.00     0.002 A 
HETATM   19  C15 UNL     1      18.769  -0.509  52.490  1.00  0.00     0.022 A 
HETATM   20  C16 UNL     1      18.645   0.395  51.459  1.00  0.00     0.044 A 
HETATM   21 BR1  UNL     1      17.265   0.115  50.180  1.00  0.00    -0.048 Br
HETATM   22  C17 UNL     1      19.513   1.457  51.385  1.00  0.00     0.092 A 
BRANCH  22  23
HETATM   23  O1  UNL     1      19.304   2.308  50.313  1.00  0.00    -0.354 OA
HETATM   24  C18 UNL     1      18.565   3.496  50.474  1.00  0.00     0.210 C 
ENDBRANCH  22  23
ENDBRANCH  15  16
ENDBRANCH  14  15
ENDBRANCH   1  14
TORSDOF 9
ENDMDL
MODEL 8
REMARK VINA RESULT:      -6.4      3.486      6.319
REMARK  9 active torsions:
REMARK  status: ('A' for Active; 'I' for Inactive)
REMARK    1  A    between atoms: C2_2  and  N1_3 
REMARK    2  A    between atoms: N1_3  and  C3_4 
REMARK    3  A    between atoms: N1_3  and  S1_13 
REMARK    4  A    between atoms: C3_4  and  C4_5 
REMARK    5  A    between atoms: C4_5  and  N2_6 
REMARK    6  A    between atoms: N2_6  and  C5_7 
REMARK    7  A    between atoms: S1_13  and  C11_14 
REMARK    8  A    between atoms: C11_14  and  C12_15 
REMARK    9  A    between atoms: C17_21  and  O1_22 
ROOT
HETATM    1  N1  UNL     1      23.781   3.815  51.160  1.00  0.00    -0.355 N 
ENDROOT
BRANCH   1   2
HETATM    2  C2  UNL     1      24.412   4.983  50.714  1.00  0.00     0.126 C 
HETATM    3  C1  UNL     1      25.392   4.882  49.598  1.00  0.00     0.027 C 
ENDBRANCH   1   2
BRANCH   1   4
HETATM    4  C3  UNL     1      22.400   3.623  50.995  1.00  0.00     0.150 C 
BRANCH   4   5
HETATM    5  C4  UNL     1      21.704   3.308  52.271  1.00  0.00     0.140 C 
BRANCH   5   6
HETATM    6  N2  UNL     1      20.835   2.117  52.137  1.00  0.00    -0.388 N 
HETATM    7  H10 UNL     1      19.937   2.135  51.575  1.00  0.00     0.159 HD
BRANCH   6   8
HETATM    8  C5  UNL     1      21.239   0.899  52.803  1.00  0.00     0.028 A 
HETATM    9  C6  UNL     1      21.947  -0.090  52.160  1.00  0.00     0.029 A 
HETATM   10  C7  UNL     1      22.276  -1.202  52.932  1.00  0.00     0.002 A 
HETATM   11  C8  UNL     1      21.960  -1.394  54.251  1.00  0.00     0.000 A 
HETATM   12  C9  UNL     1      21.250  -0.388  54.874  1.00  0.00     0.002 A 
HETATM   13  C10 UNL     1      20.904   0.736  54.136  1.00  0.00     0.029 A 
ENDBRANCH   6   8
ENDBRANCH   5   6
ENDBRANCH   4   5
ENDBRANCH   1   4
BRANCH   1  14
HETATM   14  S1  UNL     1      24.712   2.394  51.365  1.00  0.00    -0.053 SA
BRANCH  14  15
HETATM   15  C11 UNL     1      25.875   2.369  52.711  1.00  0.00     0.138 C 
BRANCH  15  16
HETATM   16  C12 UNL     1      26.437   1.009  52.863  1.00  0.00    -0.013 A 
HETATM   17  C13 UNL     1      25.595  -0.106  52.864  1.00  0.00     0.011 A 
HETATM   18  C14 UNL     1      26.033  -1.406  53.009  1.00  0.00     0.002 A 
HETATM   19  C15 UNL     1      27.369  -1.657  53.165  1.00  0.00     0.022 A 
HETATM   20  C16 UNL     1      28.242  -0.592  53.171  1.00  0.00     0.044 A 
HETATM   21 BR1  UNL     1      30.098  -0.954  53.389  1.00  0.00    -0.048 Br
HETATM   22  C17 UNL     1      27.754   0.682  53.022  1.00  0.00     0.092 A 
BRANCH  22  23
HETATM   23  O1  UNL     1      28.713   1.681  53.041  1.00  0.00    -0.354 OA
HETATM   24  C18 UNL     1      29.231   2.154  54.262  1.00  0.00     0.210 C 
ENDBRANCH  22  23
ENDBRANCH  15  16
ENDBRANCH  14  15
ENDBRANCH   1  14
TORSDOF 9
ENDMDL
MODEL 9
REMARK VINA RESULT:      -6.4      1.512      2.510
REMARK  9 active torsions:
REMARK  status: ('A' for Active; 'I' for Inactive)
REMARK    1  A    between atoms: C2_2  and  N1_3 
REMARK    2  A    between atoms: N1_3  and  C3_4 
REMARK    3  A    between atoms: N1_3  and  S1_13 
REMARK    4  A    between atoms: C3_4  and  C4_5 
REMARK    5  A    between atoms: C4_5  and  N2_6 
REMARK    6  A    between atoms: N2_6  and  C5_7 
REMARK    7  A    between atoms: S1_13  and  C11_14 
REMARK    8  A    between atoms: C11_14  and  C12_15 
REMARK    9  A    between atoms: C17_21  and  O1_22 
ROOT
HETATM    1  N1  UNL     1      24.027   2.720  50.940  1.00  0.00    -0.355 N 
ENDROOT
BRANCH   1   2
HETATM    2  C2  UNL     1      24.521   3.319  49.774  1.00  0.00     0.126 C 
HETATM    3  C1  UNL     1      25.804   4.069  49.845  1.00  0.00     0.027 C 
ENDBRANCH   1   2
BRANCH   1   4
HETATM    4  C3  UNL     1      24.299   3.258  52.208  1.00  0.00     0.150 C 
BRANCH   4   5
HETATM    5  C4  UNL     1      25.139   2.363  53.047  1.00  0.00     0.140 C 
BRANCH   5   6
HETATM    6  N2  UNL     1      26.580   2.537  52.755  1.00  0.00    -0.388 N 
HETATM    7  H10 UNL     1      26.969   3.440  52.360  1.00  0.00     0.159 HD
BRANCH   6   8
HETATM    8  C5  UNL     1      27.469   1.428  53.019  1.00  0.00     0.028 A 
HETATM    9  C6  UNL     1      28.716   1.603  53.574  1.00  0.00     0.029 A 
HETATM   10  C7  UNL     1      29.457   0.442  53.782  1.00  0.00     0.002 A 
HETATM   11  C8  UNL     1      29.060  -0.836  53.487  1.00  0.00     0.000 A 
HETATM   12  C9  UNL     1      27.805  -0.985  52.933  1.00  0.00     0.002 A 
HETATM   13  C10 UNL     1      27.037   0.150  52.710  1.00  0.00     0.029 A 
ENDBRANCH   6   8
ENDBRANCH   5   6
ENDBRANCH   4   5
ENDBRANCH   1   4
BRANCH   1  14
HETATM   14  S1  UNL     1      22.646   1.715  50.837  1.00  0.00    -0.053 SA
BRANCH  14  15
HETATM   15  C11 UNL     1      21.601   1.618  52.275  1.00  0.00     0.138 C 
BRANCH  15  16
HETATM   16  C12 UNL     1      20.327   0.953  51.924  1.00  0.00    -0.013 A 
HETATM   17  C13 UNL     1      19.680   1.255  50.724  1.00  0.00     0.011 A 
HETATM   18  C14 UNL     1      18.487   0.690  50.323  1.00  0.00     0.002 A 
HETATM   19  C15 UNL     1      17.870  -0.229  51.128  1.00  0.00     0.022 A 
HETATM   20  C16 UNL     1      18.467  -0.564  52.323  1.00  0.00     0.044 A 
HETATM   21 BR1  UNL     1      17.599  -1.842  53.434  1.00  0.00    -0.048 Br
HETATM   22  C17 UNL     1      19.655   0.029  52.673  1.00  0.00     0.092 A 
BRANCH  22  23
HETATM   23  O1  UNL     1      20.173  -0.376  53.892  1.00  0.00    -0.354 OA
HETATM   24  C18 UNL     1      21.150  -1.387  53.955  1.00  0.00     0.210 C 
ENDBRANCH  22  23
ENDBRANCH  15  16
ENDBRANCH  14  15
ENDBRANCH   1  14
TORSDOF 9
ENDMDL
