MODEL 1
REMARK VINA RESULT:      -9.1      0.000      0.000
REMARK  2 active torsions:
REMARK  status: ('A' for Active; 'I' for Inactive)
REMARK    1  A    between atoms: C9_10  and  O1_11 
REMARK    2  A    between atoms: O1_11  and  C10_12 
ROOT
HETATM    1  C1  UNL     1      24.917  -0.884  56.288  1.00  0.00     0.021 C 
HETATM    2  C2  UNL     1      24.554  -0.887  54.992  1.00  0.00    -0.039 C 
HETATM    3  C3  UNL     1      23.081  -1.073  54.873  1.00  0.00     0.006 C 
HETATM    4  C4  UNL     1      22.259  -0.587  53.915  1.00  0.00     0.004 C 
HETATM    5  C5  UNL     1      22.199   0.373  52.836  1.00  0.00     0.304 C 
HETATM    6  N1  UNL     1      23.249   0.509  51.904  1.00  0.00     0.131 NA
HETATM    7  C6  UNL     1      22.865   1.489  50.925  1.00  0.00     0.315 C 
HETATM    8  C7  UNL     1      23.183   2.830  51.488  1.00  0.00    -0.025 A 
HETATM    9  C8  UNL     1      22.848   3.969  50.904  1.00  0.00     0.018 A 
HETATM   10  C9  UNL     1      23.341   5.048  51.772  1.00  0.00     0.175 A 
HETATM   11  C16 UNL     1      23.977   4.350  52.888  1.00  0.00     0.017 A 
HETATM   12  C17 UNL     1      23.891   3.018  52.733  1.00  0.00    -0.047 A 
HETATM   13  C18 UNL     1      24.335   1.786  53.510  1.00  0.00     0.110 C 
HETATM   14  C19 UNL     1      24.539   0.777  52.488  1.00  0.00     0.268 C 
HETATM   15  C20 UNL     1      25.129  -0.547  52.687  1.00  0.00     0.108 C 
HETATM   16  C21 UNL     1      25.669  -0.713  54.070  1.00  0.00     0.158 C 
HETATM   17  O2  UNL     1      26.523   0.324  54.269  1.00  0.00    -0.379 OA
HETATM   18  C22 UNL     1      27.203   0.751  53.167  1.00  0.00     0.195 C 
HETATM   19  C23 UNL     1      26.590   1.734  52.254  1.00  0.00     0.197 C 
HETATM   20  O3  UNL     1      25.432   1.401  51.583  1.00  0.00    -0.350 OA
ENDROOT
BRANCH  10  21
HETATM   21  O1  UNL     1      24.296   5.856  51.112  1.00  0.00    -0.341 OA
BRANCH  21  22
HETATM   22  C10 UNL     1      24.921   5.523  49.935  1.00  0.00     0.062 C 
HETATM   23  C11 UNL     1      25.842   4.595  49.736  1.00  0.00     0.006 C 
HETATM   24  C12 UNL     1      26.874   4.902  48.992  1.00  0.00     0.014 C 
HETATM   25  C13 UNL     1      27.024   6.259  48.476  1.00  0.00    -0.003 C 
HETATM   26  C14 UNL     1      25.902   6.949  48.269  1.00  0.00    -0.020 C 
HETATM   27  C15 UNL     1      24.666   6.167  48.619  1.00  0.00     0.092 C 
ENDBRANCH  21  22
ENDBRANCH  10  21
TORSDOF 2
ENDMDL
MODEL 2
REMARK VINA RESULT:      -9.0      2.166      5.800
REMARK  2 active torsions:
REMARK  status: ('A' for Active; 'I' for Inactive)
REMARK    1  A    between atoms: C9_10  and  O1_11 
REMARK    2  A    between atoms: O1_11  and  C10_12 
ROOT
HETATM    1  C1  UNL     1      22.709   2.919  47.863  1.00  0.00     0.021 C 
HETATM    2  C2  UNL     1      22.058   2.712  49.023  1.00  0.00    -0.039 C 
HETATM    3  C3  UNL     1      21.175   1.519  48.907  1.00  0.00     0.006 C 
HETATM    4  C4  UNL     1      20.825   0.648  49.882  1.00  0.00     0.004 C 
HETATM    5  C5  UNL     1      21.169   0.233  51.223  1.00  0.00     0.304 C 
HETATM    6  N1  UNL     1      21.426   1.167  52.248  1.00  0.00     0.131 NA
HETATM    7  C6  UNL     1      21.671   0.448  53.468  1.00  0.00     0.315 C 
HETATM    8  C7  UNL     1      23.104   0.044  53.468  1.00  0.00    -0.025 A 
HETATM    9  C8  UNL     1      23.645  -0.740  54.387  1.00  0.00     0.018 A 
HETATM   10  C9  UNL     1      25.063  -0.893  54.028  1.00  0.00     0.175 A 
HETATM   11  C16 UNL     1      25.213  -0.098  52.809  1.00  0.00     0.017 A 
HETATM   12  C17 UNL     1      24.047   0.471  52.460  1.00  0.00    -0.047 A 
HETATM   13  C18 UNL     1      23.554   1.378  51.341  1.00  0.00     0.110 C 
HETATM   14  C19 UNL     1      22.462   2.122  51.943  1.00  0.00     0.268 C 
HETATM   15  C20 UNL     1      21.750   3.249  51.341  1.00  0.00     0.108 C 
HETATM   16  C21 UNL     1      22.381   3.684  50.059  1.00  0.00     0.158 C 
HETATM   17  O2  UNL     1      23.688   3.924  50.342  1.00  0.00    -0.379 OA
HETATM   18  C22 UNL     1      23.942   4.411  51.591  1.00  0.00     0.195 C 
HETATM   19  C23 UNL     1      24.106   3.485  52.727  1.00  0.00     0.197 C 
HETATM   20  O3  UNL     1      23.048   2.685  53.103  1.00  0.00    -0.350 OA
ENDROOT
BRANCH  10  21
HETATM   21  O1  UNL     1      25.916  -0.382  55.035  1.00  0.00    -0.341 OA
BRANCH  21  22
HETATM   22  C10 UNL     1      26.976   0.460  54.808  1.00  0.00     0.062 C 
HETATM   23  C11 UNL     1      26.945   1.725  54.425  1.00  0.00     0.006 C 
HETATM   24  C12 UNL     1      27.778   2.106  53.491  1.00  0.00     0.014 C 
HETATM   25  C13 UNL     1      28.651   1.129  52.848  1.00  0.00    -0.003 C 
HETATM   26  C14 UNL     1      29.001   0.068  53.576  1.00  0.00    -0.020 C 
HETATM   27  C15 UNL     1      28.409   0.091  54.958  1.00  0.00     0.092 C 
ENDBRANCH  21  22
ENDBRANCH  10  21
TORSDOF 2
ENDMDL
MODEL 3
REMARK VINA RESULT:      -8.7      1.592      2.185
REMARK  2 active torsions:
REMARK  status: ('A' for Active; 'I' for Inactive)
REMARK    1  A    between atoms: C9_10  and  O1_11 
REMARK    2  A    between atoms: O1_11  and  C10_12 
ROOT
HETATM    1  C1  UNL     1      21.521  -0.465  55.062  1.00  0.00     0.021 C 
HETATM    2  C2  UNL     1      21.441  -0.227  53.740  1.00  0.00    -0.039 C 
HETATM    3  C3  UNL     1      20.075   0.252  53.389  1.00  0.00     0.006 C 
HETATM    4  C4  UNL     1      19.725   1.107  52.400  1.00  0.00     0.004 C 
HETATM    5  C5  UNL     1      20.274   2.065  51.467  1.00  0.00     0.304 C 
HETATM    6  N1  UNL     1      21.439   1.793  50.722  1.00  0.00     0.131 NA
HETATM    7  C6  UNL     1      21.689   2.904  49.844  1.00  0.00     0.315 C 
HETATM    8  C7  UNL     1      22.423   3.935  50.627  1.00  0.00    -0.025 A 
HETATM    9  C8  UNL     1      22.708   5.141  50.165  1.00  0.00     0.018 A 
HETATM   10  C9  UNL     1      23.431   5.843  51.236  1.00  0.00     0.175 A 
HETATM   11  C16 UNL     1      23.498   4.867  52.324  1.00  0.00     0.017 A 
HETATM   12  C17 UNL     1      22.898   3.717  51.975  1.00  0.00    -0.047 A 
HETATM   13  C18 UNL     1      22.635   2.367  52.628  1.00  0.00     0.110 C 
HETATM   14  C19 UNL     1      22.589   1.437  51.515  1.00  0.00     0.268 C 
HETATM   15  C20 UNL     1      22.527  -0.022  51.610  1.00  0.00     0.108 C 
HETATM   16  C21 UNL     1      22.679  -0.493  53.019  1.00  0.00     0.158 C 
HETATM   17  O2  UNL     1      23.832   0.056  53.480  1.00  0.00    -0.379 OA
HETATM   18  C22 UNL     1      24.822   0.217  52.556  1.00  0.00     0.195 C 
HETATM   19  C23 UNL     1      24.856   1.424  51.711  1.00  0.00     0.197 C 
HETATM   20  O3  UNL     1      23.814   1.669  50.841  1.00  0.00    -0.350 OA
ENDROOT
BRANCH  10  21
HETATM   21  O1  UNL     1      24.742   6.197  50.837  1.00  0.00    -0.341 OA
BRANCH  21  22
HETATM   22  C10 UNL     1      25.368   5.729  49.708  1.00  0.00     0.062 C 
HETATM   23  C11 UNL     1      25.979   4.568  49.537  1.00  0.00     0.006 C 
HETATM   24  C12 UNL     1      27.135   4.566  48.924  1.00  0.00     0.014 C 
HETATM   25  C13 UNL     1      27.751   5.826  48.522  1.00  0.00    -0.003 C 
HETATM   26  C14 UNL     1      26.925   6.837  48.253  1.00  0.00    -0.020 C 
HETATM   27  C15 UNL     1      25.478   6.467  48.422  1.00  0.00     0.092 C 
ENDBRANCH  21  22
ENDBRANCH  10  21
TORSDOF 2
ENDMDL
MODEL 4
REMARK VINA RESULT:      -8.5      2.377      6.735
REMARK  2 active torsions:
REMARK  status: ('A' for Active; 'I' for Inactive)
REMARK    1  A    between atoms: C9_10  and  O1_11 
REMARK    2  A    between atoms: O1_11  and  C10_12 
ROOT
HETATM    1  C1  UNL     1      22.722   6.273  46.640  1.00  0.00     0.021 C 
HETATM    2  C2  UNL     1      22.205   5.467  47.585  1.00  0.00    -0.039 C 
HETATM    3  C3  UNL     1      21.857   4.145  46.995  1.00  0.00     0.006 C 
HETATM    4  C4  UNL     1      21.875   2.935  47.602  1.00  0.00     0.004 C 
HETATM    5  C5  UNL     1      22.356   2.254  48.783  1.00  0.00     0.304 C 
HETATM    6  N1  UNL     1      22.229   2.818  50.069  1.00  0.00     0.131 NA
HETATM    7  C6  UNL     1      22.737   1.878  51.031  1.00  0.00     0.315 C 
HETATM    8  C7  UNL     1      24.214   2.055  51.092  1.00  0.00    -0.025 A 
HETATM    9  C8  UNL     1      25.019   1.268  51.787  1.00  0.00     0.018 A 
HETATM   10  C9  UNL     1      26.383   1.777  51.584  1.00  0.00     0.175 A 
HETATM   11  C16 UNL     1      26.210   2.928  50.699  1.00  0.00     0.017 A 
HETATM   12  C17 UNL     1      24.914   3.109  50.394  1.00  0.00    -0.047 A 
HETATM   13  C18 UNL     1      24.105   4.087  49.554  1.00  0.00     0.110 C 
HETATM   14  C19 UNL     1      22.810   4.130  50.209  1.00  0.00     0.268 C 
HETATM   15  C20 UNL     1      21.714   5.047  49.896  1.00  0.00     0.108 C 
HETATM   16  C21 UNL     1      22.124   6.084  48.903  1.00  0.00     0.158 C 
HETATM   17  O2  UNL     1      23.233   6.680  49.413  1.00  0.00    -0.379 OA
HETATM   18  C22 UNL     1      23.279   6.779  50.772  1.00  0.00     0.195 C 
HETATM   19  C23 UNL     1      23.792   5.658  51.580  1.00  0.00     0.197 C 
HETATM   20  O3  UNL     1      23.131   4.448  51.552  1.00  0.00    -0.350 OA
ENDROOT
BRANCH  10  21
HETATM   21  O1  UNL     1      26.970   2.198  52.801  1.00  0.00    -0.341 OA
BRANCH  21  22
HETATM   22  C10 UNL     1      27.759   1.410  53.602  1.00  0.00     0.062 C 
HETATM   23  C11 UNL     1      29.051   1.540  53.854  1.00  0.00     0.006 C 
HETATM   24  C12 UNL     1      29.793   0.462  53.832  1.00  0.00     0.014 C 
HETATM   25  C13 UNL     1      29.206  -0.821  53.459  1.00  0.00    -0.003 C 
HETATM   26  C14 UNL     1      27.908  -0.984  53.718  1.00  0.00    -0.020 C 
HETATM   27  C15 UNL     1      27.289   0.224  54.364  1.00  0.00     0.092 C 
ENDBRANCH  21  22
ENDBRANCH  10  21
TORSDOF 2
ENDMDL
MODEL 5
REMARK VINA RESULT:      -8.4      2.630      7.159
REMARK  2 active torsions:
REMARK  status: ('A' for Active; 'I' for Inactive)
REMARK    1  A    between atoms: C9_10  and  O1_11 
REMARK    2  A    between atoms: O1_11  and  C10_12 
ROOT
HETATM    1  C1  UNL     1      23.043   7.222  45.954  1.00  0.00     0.021 C 
HETATM    2  C2  UNL     1      22.627   6.828  47.172  1.00  0.00    -0.039 C 
HETATM    3  C3  UNL     1      21.677   5.689  47.045  1.00  0.00     0.006 C 
HETATM    4  C4  UNL     1      21.484   4.669  47.913  1.00  0.00     0.004 C 
HETATM    5  C5  UNL     1      22.067   4.022  49.067  1.00  0.00     0.304 C 
HETATM    6  N1  UNL     1      22.573   4.760  50.157  1.00  0.00     0.131 NA
HETATM    7  C6  UNL     1      23.019   3.837  51.164  1.00  0.00     0.315 C 
HETATM    8  C7  UNL     1      24.399   3.414  50.802  1.00  0.00    -0.025 A 
HETATM    9  C8  UNL     1      25.071   2.474  51.447  1.00  0.00     0.018 A 
HETATM   10  C9  UNL     1      26.378   2.360  50.782  1.00  0.00     0.175 A 
HETATM   11  C16 UNL     1      26.323   3.351  49.708  1.00  0.00     0.017 A 
HETATM   12  C17 UNL     1      25.143   3.992  49.706  1.00  0.00    -0.047 A 
HETATM   13  C18 UNL     1      24.484   5.087  48.879  1.00  0.00     0.110 C 
HETATM   14  C19 UNL     1      23.576   5.735  49.807  1.00  0.00     0.268 C 
HETATM   15  C20 UNL     1      22.818   6.962  49.561  1.00  0.00     0.108 C 
HETATM   16  C21 UNL     1      23.202   7.601  48.266  1.00  0.00     0.158 C 
HETATM   17  O2  UNL     1      24.549   7.766  48.310  1.00  0.00    -0.379 OA
HETATM   18  C22 UNL     1      25.074   8.024  49.542  1.00  0.00     0.195 C 
HETATM   19  C23 UNL     1      25.413   6.913  50.450  1.00  0.00     0.197 C 
HETATM   20  O3  UNL     1      24.410   6.079  50.899  1.00  0.00    -0.350 OA
ENDROOT
BRANCH  10  21
HETATM   21  O1  UNL     1      27.441   2.674  51.663  1.00  0.00    -0.341 OA
BRANCH  21  22
HETATM   22  C10 UNL     1      27.726   1.989  52.818  1.00  0.00     0.062 C 
HETATM   23  C11 UNL     1      28.501   2.369  53.820  1.00  0.00     0.006 C 
HETATM   24  C12 UNL     1      29.333   1.491  54.321  1.00  0.00     0.014 C 
HETATM   25  C13 UNL     1      29.442   0.164  53.724  1.00  0.00    -0.003 C 
HETATM   26  C14 UNL     1      28.354  -0.311  53.117  1.00  0.00    -0.020 C 
HETATM   27  C15 UNL     1      27.195   0.646  53.170  1.00  0.00     0.092 C 
ENDBRANCH  21  22
ENDBRANCH  10  21
TORSDOF 2
ENDMDL
MODEL 6
REMARK VINA RESULT:      -8.2      2.978      6.290
REMARK  2 active torsions:
REMARK  status: ('A' for Active; 'I' for Inactive)
REMARK    1  A    between atoms: C9_10  and  O1_11 
REMARK    2  A    between atoms: O1_11  and  C10_12 
ROOT
HETATM    1  C1  UNL     1      18.955   2.952  48.217  1.00  0.00     0.021 C 
HETATM    2  C2  UNL     1      18.907   2.709  49.539  1.00  0.00    -0.039 C 
HETATM    3  C3  UNL     1      18.340   1.354  49.791  1.00  0.00     0.006 C 
HETATM    4  C4  UNL     1      18.627   0.512  50.810  1.00  0.00     0.004 C 
HETATM    5  C5  UNL     1      19.578   0.284  51.874  1.00  0.00     0.304 C 
HETATM    6  N1  UNL     1      20.025   1.330  52.708  1.00  0.00     0.131 NA
HETATM    7  C6  UNL     1      20.905   0.778  53.701  1.00  0.00     0.315 C 
HETATM    8  C7  UNL     1      22.259   0.678  53.090  1.00  0.00    -0.025 A 
HETATM    9  C8  UNL     1      23.290   0.098  53.684  1.00  0.00     0.018 A 
HETATM   10  C9  UNL     1      24.427   0.210  52.758  1.00  0.00     0.175 A 
HETATM   11  C16 UNL     1      23.880   0.919  51.601  1.00  0.00     0.017 A 
HETATM   12  C17 UNL     1      22.580   1.206  51.785  1.00  0.00    -0.047 A 
HETATM   13  C18 UNL     1      21.481   1.900  50.991  1.00  0.00     0.110 C 
HETATM   14  C19 UNL     1      20.603   2.450  52.008  1.00  0.00     0.268 C 
HETATM   15  C20 UNL     1      19.477   3.355  51.779  1.00  0.00     0.108 C 
HETATM   16  C21 UNL     1      19.408   3.806  50.357  1.00  0.00     0.158 C 
HETATM   17  O2  UNL     1      20.626   4.332  50.066  1.00  0.00    -0.379 OA
HETATM   18  C22 UNL     1      21.261   4.959  51.097  1.00  0.00     0.195 C 
HETATM   19  C23 UNL     1      22.080   4.180  52.044  1.00  0.00     0.197 C 
HETATM   20  O3  UNL     1      21.478   3.213  52.821  1.00  0.00    -0.350 OA
ENDROOT
BRANCH  10  21
HETATM   21  O1  UNL     1      25.485   0.964  53.318  1.00  0.00    -0.341 OA
BRANCH  21  22
HETATM   22  C10 UNL     1      26.819   0.725  53.095  1.00  0.00     0.062 C 
HETATM   23  C11 UNL     1      27.388  -0.399  52.692  1.00  0.00     0.006 C 
HETATM   24  C12 UNL     1      28.483  -0.785  53.297  1.00  0.00     0.014 C 
HETATM   25  C13 UNL     1      28.996  -0.026  54.433  1.00  0.00    -0.003 C 
HETATM   26  C14 UNL     1      28.719   1.278  54.457  1.00  0.00    -0.020 C 
HETATM   27  C15 UNL     1      27.908   1.721  53.271  1.00  0.00     0.092 C 
ENDBRANCH  21  22
ENDBRANCH  10  21
TORSDOF 2
ENDMDL
MODEL 7
REMARK VINA RESULT:      -8.2      2.249      6.324
REMARK  2 active torsions:
REMARK  status: ('A' for Active; 'I' for Inactive)
REMARK    1  A    between atoms: C9_10  and  O1_11 
REMARK    2  A    between atoms: O1_11  and  C10_12 
ROOT
HETATM    1  C1  UNL     1      22.786   5.943  47.480  1.00  0.00     0.021 C 
HETATM    2  C2  UNL     1      21.987   5.764  48.548  1.00  0.00    -0.039 C 
HETATM    3  C3  UNL     1      20.740   5.057  48.142  1.00  0.00     0.006 C 
HETATM    4  C4  UNL     1      19.993   4.205  48.880  1.00  0.00     0.004 C 
HETATM    5  C5  UNL     1      20.015   3.416  50.092  1.00  0.00     0.304 C 
HETATM    6  N1  UNL     1      20.492   3.940  51.311  1.00  0.00     0.131 NA
HETATM    7  C6  UNL     1      20.324   2.943  52.333  1.00  0.00     0.315 C 
HETATM    8  C7  UNL     1      21.496   2.028  52.260  1.00  0.00    -0.025 A 
HETATM    9  C8  UNL     1      21.607   0.922  52.978  1.00  0.00     0.018 A 
HETATM   10  C9  UNL     1      22.896   0.313  52.615  1.00  0.00     0.175 A 
HETATM   11  C16 UNL     1      23.457   1.226  51.619  1.00  0.00     0.017 A 
HETATM   12  C17 UNL     1      22.630   2.260  51.395  1.00  0.00    -0.047 A 
HETATM   13  C18 UNL     1      22.628   3.500  50.512  1.00  0.00     0.110 C 
HETATM   14  C19 UNL     1      21.835   4.463  51.254  1.00  0.00     0.268 C 
HETATM   15  C20 UNL     1      21.660   5.877  50.923  1.00  0.00     0.108 C 
HETATM   16  C21 UNL     1      22.538   6.294  49.789  1.00  0.00     0.158 C 
HETATM   17  O2  UNL     1      23.803   5.947  50.141  1.00  0.00    -0.379 OA
HETATM   18  C22 UNL     1      24.088   6.023  51.473  1.00  0.00     0.195 C 
HETATM   19  C23 UNL     1      23.777   4.889  52.362  1.00  0.00     0.197 C 
HETATM   20  O3  UNL     1      22.463   4.499  52.524  1.00  0.00    -0.350 OA
ENDROOT
BRANCH  10  21
HETATM   21  O1  UNL     1      23.767   0.231  53.727  1.00  0.00    -0.341 OA
BRANCH  21  22
HETATM   22  C10 UNL     1      25.116   0.483  53.683  1.00  0.00     0.062 C 
HETATM   23  C11 UNL     1      25.739   1.627  53.911  1.00  0.00     0.006 C 
HETATM   24  C12 UNL     1      26.697   1.980  53.092  1.00  0.00     0.014 C 
HETATM   25  C13 UNL     1      26.997   1.159  51.923  1.00  0.00    -0.003 C 
HETATM   26  C14 UNL     1      26.735  -0.144  52.022  1.00  0.00    -0.020 C 
HETATM   27  C15 UNL     1      26.164  -0.521  53.361  1.00  0.00     0.092 C 
ENDBRANCH  21  22
ENDBRANCH  10  21
TORSDOF 2
ENDMDL
MODEL 8
REMARK VINA RESULT:      -8.2      3.153      5.778
REMARK  2 active torsions:
REMARK  status: ('A' for Active; 'I' for Inactive)
REMARK    1  A    between atoms: C9_10  and  O1_11 
REMARK    2  A    between atoms: O1_11  and  C10_12 
ROOT
HETATM    1  C1  UNL     1      26.560  -0.436  52.243  1.00  0.00     0.021 C 
HETATM    2  C2  UNL     1      26.022   0.795  52.322  1.00  0.00    -0.039 C 
HETATM    3  C3  UNL     1      26.738   1.726  51.407  1.00  0.00     0.006 C 
HETATM    4  C4  UNL     1      26.234   2.798  50.753  1.00  0.00     0.004 C 
HETATM    5  C5  UNL     1      24.988   3.429  50.380  1.00  0.00     0.304 C 
HETATM    6  N1  UNL     1      23.926   3.578  51.296  1.00  0.00     0.131 NA
HETATM    7  C6  UNL     1      22.863   4.296  50.649  1.00  0.00     0.315 C 
HETATM    8  C7  UNL     1      22.064   3.307  49.875  1.00  0.00    -0.025 A 
HETATM    9  C8  UNL     1      21.077   3.640  49.058  1.00  0.00     0.018 A 
HETATM   10  C9  UNL     1      20.554   2.386  48.496  1.00  0.00     0.175 A 
HETATM   11  C16 UNL     1      21.378   1.345  49.110  1.00  0.00     0.017 A 
HETATM   12  C17 UNL     1      22.289   1.882  49.940  1.00  0.00    -0.047 A 
HETATM   13  C18 UNL     1      23.398   1.362  50.844  1.00  0.00     0.110 C 
HETATM   14  C19 UNL     1      23.482   2.348  51.905  1.00  0.00     0.268 C 
HETATM   15  C20 UNL     1      24.282   2.239  53.125  1.00  0.00     0.108 C 
HETATM   16  C21 UNL     1      24.909   0.890  53.258  1.00  0.00     0.158 C 
HETATM   17  O2  UNL     1      23.897  -0.010  53.161  1.00  0.00    -0.379 OA
HETATM   18  C22 UNL     1      22.697   0.392  53.669  1.00  0.00     0.195 C 
HETATM   19  C23 UNL     1      21.768   1.179  52.837  1.00  0.00     0.197 C 
HETATM   20  O3  UNL     1      22.153   2.425  52.390  1.00  0.00    -0.350 OA
ENDROOT
BRANCH  10  21
HETATM   21  O1  UNL     1      19.197   2.183  48.844  1.00  0.00    -0.341 OA
BRANCH  21  22
HETATM   22  C10 UNL     1      18.763   1.741  50.070  1.00  0.00     0.062 C 
HETATM   23  C11 UNL     1      18.421   0.512  50.419  1.00  0.00     0.006 C 
HETATM   24  C12 UNL     1      17.337   0.355  51.135  1.00  0.00     0.014 C 
HETATM   25  C13 UNL     1      16.502   1.508  51.458  1.00  0.00    -0.003 C 
HETATM   26  C14 UNL     1      17.116   2.688  51.540  1.00  0.00    -0.020 C 
HETATM   27  C15 UNL     1      18.593   2.594  51.275  1.00  0.00     0.092 C 
ENDBRANCH  21  22
ENDBRANCH  10  21
TORSDOF 2
ENDMDL
MODEL 9
REMARK VINA RESULT:      -8.1      3.206      6.843
REMARK  2 active torsions:
REMARK  status: ('A' for Active; 'I' for Inactive)
REMARK    1  A    between atoms: C9_10  and  O1_11 
REMARK    2  A    between atoms: O1_11  and  C10_12 
ROOT
HETATM    1  C1  UNL     1      26.545   2.783  50.246  1.00  0.00     0.021 C 
HETATM    2  C2  UNL     1      25.546   3.231  51.028  1.00  0.00    -0.039 C 
HETATM    3  C3  UNL     1      25.060   4.548  50.532  1.00  0.00     0.006 C 
HETATM    4  C4  UNL     1      23.806   5.052  50.609  1.00  0.00     0.004 C 
HETATM    5  C5  UNL     1      22.437   4.679  50.887  1.00  0.00     0.304 C 
HETATM    6  N1  UNL     1      22.098   3.858  51.982  1.00  0.00     0.131 NA
HETATM    7  C6  UNL     1      20.668   3.725  52.027  1.00  0.00     0.315 C 
HETATM    8  C7  UNL     1      20.292   2.635  51.086  1.00  0.00    -0.025 A 
HETATM    9  C8  UNL     1      19.040   2.326  50.785  1.00  0.00     0.018 A 
HETATM   10  C9  UNL     1      19.101   1.208  49.831  1.00  0.00     0.175 A 
HETATM   11  C16 UNL     1      20.532   0.958  49.660  1.00  0.00     0.017 A 
HETATM   12  C17 UNL     1      21.260   1.806  50.405  1.00  0.00    -0.047 A 
HETATM   13  C18 UNL     1      22.739   2.057  50.663  1.00  0.00     0.110 C 
HETATM   14  C19 UNL     1      22.780   2.587  52.013  1.00  0.00     0.268 C 
HETATM   15  C20 UNL     1      23.983   2.840  52.806  1.00  0.00     0.108 C 
HETATM   16  C21 UNL     1      25.212   2.334  52.127  1.00  0.00     0.158 C 
HETATM   17  O2  UNL     1      24.981   1.024  51.850  1.00  0.00    -0.379 OA
HETATM   18  C22 UNL     1      24.206   0.357  52.753  1.00  0.00     0.195 C 
HETATM   19  C23 UNL     1      22.737   0.401  52.643  1.00  0.00     0.197 C 
HETATM   20  O3  UNL     1      22.087   1.611  52.771  1.00  0.00    -0.350 OA
ENDROOT
BRANCH  10  21
HETATM   21  O1  UNL     1      18.476   0.047  50.346  1.00  0.00    -0.341 OA
BRANCH  21  22
HETATM   22  C10 UNL     1      18.202  -0.169  51.674  1.00  0.00     0.062 C 
HETATM   23  C11 UNL     1      19.059  -0.399  52.656  1.00  0.00     0.006 C 
HETATM   24  C12 UNL     1      18.774  -1.349  53.509  1.00  0.00     0.014 C 
HETATM   25  C13 UNL     1      17.582  -2.170  53.318  1.00  0.00    -0.003 C 
HETATM   26  C14 UNL     1      16.558  -1.601  52.683  1.00  0.00    -0.020 C 
HETATM   27  C15 UNL     1      16.843  -0.181  52.277  1.00  0.00     0.092 C 
ENDBRANCH  21  22
ENDBRANCH  10  21
TORSDOF 2
ENDMDL
