MODEL 1
REMARK VINA RESULT:      -8.1      0.000      0.000
REMARK  7 active torsions:
REMARK  status: ('A' for Active; 'I' for Inactive)
REMARK    1  A    between atoms: C1_2  and  C2_3 
REMARK    2  A    between atoms: N1_8  and  C6_9 
REMARK    3  A    between atoms: C9_15  and  O1_16 
REMARK    4  A    between atoms: O1_16  and  C10_17 
REMARK    5  A    between atoms: C10_17  and  C11_18 
REMARK    6  A    between atoms: C11_18  and  C12_19 
REMARK    7  A    between atoms: C12_19  and  N5_20 
ROOT
HETATM    1  C6  UNL     1      26.359   1.128  52.603  1.00  0.00     0.133 C 
HETATM    2  N2  UNL     1      25.287   0.733  53.177  1.00  0.00    -0.224 NA
HETATM    3  C7  UNL     1      23.995   1.224  52.868  1.00  0.00     0.236 C 
HETATM    4  N3  UNL     1      22.894   1.620  52.378  1.00  0.00    -0.235 NA
HETATM    5  C8  UNL     1      22.659   1.570  50.984  1.00  0.00     0.237 C 
HETATM    6  N4  UNL     1      22.528   1.687  49.705  1.00  0.00    -0.216 NA
HETATM    7  C9  UNL     1      23.046   2.881  49.103  1.00  0.00     0.198 C 
HETATM    8  C17 UNL     1      24.033   3.543  49.673  1.00  0.00     0.129 C 
HETATM    9  C18 UNL     1      24.597   4.783  49.084  1.00  0.00     0.237 C 
HETATM   10  O3  UNL     1      25.864   4.965  49.665  1.00  0.00    -0.378 OA
HETATM   11  C19 UNL     1      26.550   3.785  49.816  1.00  0.00     0.233 C 
HETATM   12  C20 UNL     1      25.967   2.877  50.850  1.00  0.00     0.080 C 
HETATM   13  C21 UNL     1      26.724   2.074  51.565  1.00  0.00     0.085 C 
HETATM   14  O4  UNL     1      24.569   3.055  50.881  1.00  0.00    -0.310 OA
ENDROOT
BRANCH   7  15
HETATM   15  O1  UNL     1      22.458   3.273  47.925  1.00  0.00    -0.332 OA
BRANCH  15  16
HETATM   16  C10 UNL     1      21.343   2.667  47.342  1.00  0.00     0.179 C 
BRANCH  16  17
HETATM   17  C11 UNL     1      20.194   3.672  47.237  1.00  0.00     0.057 C 
BRANCH  17  18
HETATM   18  C12 UNL     1      19.089   3.242  48.180  1.00  0.00     0.274 C 
BRANCH  18  19
HETATM   19  N5  UNL     1      19.465   3.180  49.551  1.00  0.00     0.092 N 
HETATM   20  C13 UNL     1      18.669   2.243  50.276  1.00  0.00     0.298 C 
HETATM   21  C14 UNL     1      19.035   2.163  51.741  1.00  0.00     0.198 C 
HETATM   22  O2  UNL     1      19.241   3.427  52.291  1.00  0.00    -0.388 OA
HETATM   23  C15 UNL     1      20.254   4.112  51.590  1.00  0.00     0.198 C 
HETATM   24  C16 UNL     1      19.652   4.431  50.216  1.00  0.00     0.298 C 
ENDBRANCH  18  19
ENDBRANCH  17  18
ENDBRANCH  16  17
ENDBRANCH  15  16
ENDBRANCH   7  15
BRANCH   1  25
HETATM   25  N1  UNL     1      27.404   0.363  53.233  1.00  0.00    -0.332 N 
HETATM   26  C2  UNL     1      28.442   0.640  54.204  1.00  0.00     0.157 C 
HETATM   27  C3  UNL     1      29.462  -0.423  53.959  1.00  0.00     0.220 C 
HETATM   28  F2  UNL     1      30.520   0.042  53.208  1.00  0.00    -0.243 F 
HETATM   29  C4  UNL     1      28.739  -1.540  53.312  1.00  0.00     0.029 C 
HETATM   30  C5  UNL     1      27.586  -1.030  52.924  1.00  0.00     0.092 C 
BRANCH  26  31
HETATM   31  C1  UNL     1      29.030   2.033  54.041  1.00  0.00     0.251 C 
HETATM   32  F1  UNL     1      29.926   2.307  55.050  1.00  0.00    -0.253 F 
ENDBRANCH  26  31
ENDBRANCH   1  25
TORSDOF 7
ENDMDL
MODEL 2
REMARK VINA RESULT:      -8.1      3.446      4.919
REMARK  7 active torsions:
REMARK  status: ('A' for Active; 'I' for Inactive)
REMARK    1  A    between atoms: C1_2  and  C2_3 
REMARK    2  A    between atoms: N1_8  and  C6_9 
REMARK    3  A    between atoms: C9_15  and  O1_16 
REMARK    4  A    between atoms: O1_16  and  C10_17 
REMARK    5  A    between atoms: C10_17  and  C11_18 
REMARK    6  A    between atoms: C11_18  and  C12_19 
REMARK    7  A    between atoms: C12_19  and  N5_20 
ROOT
HETATM    1  C6  UNL     1      25.545  -0.092  53.807  1.00  0.00     0.133 C 
HETATM    2  N2  UNL     1      25.373  -0.890  54.792  1.00  0.00    -0.224 NA
HETATM    3  C7  UNL     1      24.119  -1.141  55.399  1.00  0.00     0.236 C 
HETATM    4  N3  UNL     1      22.923  -1.402  55.734  1.00  0.00    -0.235 NA
HETATM    5  C8  UNL     1      21.952  -1.731  54.760  1.00  0.00     0.237 C 
HETATM    6  N4  UNL     1      21.040  -1.852  53.854  1.00  0.00    -0.216 NA
HETATM    7  C9  UNL     1      20.467  -0.642  53.340  1.00  0.00     0.198 C 
HETATM    8  C17 UNL     1      21.152   0.485  53.364  1.00  0.00     0.129 C 
HETATM    9  C18 UNL     1      20.596   1.759  52.844  1.00  0.00     0.237 C 
HETATM   10  O3  UNL     1      21.689   2.611  52.612  1.00  0.00    -0.378 OA
HETATM   11  C19 UNL     1      22.768   1.949  52.078  1.00  0.00     0.233 C 
HETATM   12  C20 UNL     1      23.429   1.007  53.031  1.00  0.00     0.080 C 
HETATM   13  C21 UNL     1      24.723   0.776  52.984  1.00  0.00     0.085 C 
HETATM   14  O4  UNL     1      22.455   0.476  53.901  1.00  0.00    -0.310 OA
ENDROOT
BRANCH   7  15
HETATM   15  O1  UNL     1      19.193  -0.737  52.836  1.00  0.00    -0.332 OA
BRANCH  15  16
HETATM   16  C10 UNL     1      18.114  -1.341  53.487  1.00  0.00     0.179 C 
BRANCH  16  17
HETATM   17  C11 UNL     1      16.899  -1.385  52.559  1.00  0.00     0.057 C 
BRANCH  17  18
HETATM   18  C12 UNL     1      16.940  -0.172  51.652  1.00  0.00     0.274 C 
BRANCH  18  19
HETATM   19  N5  UNL     1      15.865   0.744  51.831  1.00  0.00     0.092 N 
HETATM   20  C13 UNL     1      16.310   2.099  51.775  1.00  0.00     0.298 C 
HETATM   21  C14 UNL     1      15.193   3.098  51.975  1.00  0.00     0.198 C 
HETATM   22  O2  UNL     1      14.342   2.719  53.012  1.00  0.00    -0.388 OA
HETATM   23  C15 UNL     1      13.794   1.446  52.761  1.00  0.00     0.198 C 
HETATM   24  C16 UNL     1      14.965   0.465  52.904  1.00  0.00     0.298 C 
ENDBRANCH  18  19
ENDBRANCH  17  18
ENDBRANCH  16  17
ENDBRANCH  15  16
ENDBRANCH   7  15
BRANCH   1  25
HETATM   25  N1  UNL     1      26.958  -0.159  53.534  1.00  0.00    -0.332 N 
HETATM   26  C2  UNL     1      27.807  -0.973  52.690  1.00  0.00     0.157 C 
HETATM   27  C3  UNL     1      29.155  -0.871  53.324  1.00  0.00     0.220 C 
HETATM   28  F2  UNL     1      29.446  -1.976  54.094  1.00  0.00    -0.243 F 
HETATM   29  C4  UNL     1      29.146   0.389  54.100  1.00  0.00     0.029 C 
HETATM   30  C5  UNL     1      27.876   0.737  54.183  1.00  0.00     0.092 C 
BRANCH  26  31
HETATM   31  C1  UNL     1      27.330  -2.416  52.609  1.00  0.00     0.251 C 
HETATM   32  F1  UNL     1      26.428  -2.576  51.582  1.00  0.00    -0.253 F 
ENDBRANCH  26  31
ENDBRANCH   1  25
TORSDOF 7
ENDMDL
MODEL 3
REMARK VINA RESULT:      -7.8      2.465      4.403
REMARK  7 active torsions:
REMARK  status: ('A' for Active; 'I' for Inactive)
REMARK    1  A    between atoms: C1_2  and  C2_3 
REMARK    2  A    between atoms: N1_8  and  C6_9 
REMARK    3  A    between atoms: C9_15  and  O1_16 
REMARK    4  A    between atoms: O1_16  and  C10_17 
REMARK    5  A    between atoms: C10_17  and  C11_18 
REMARK    6  A    between atoms: C11_18  and  C12_19 
REMARK    7  A    between atoms: C12_19  and  N5_20 
ROOT
HETATM    1  C6  UNL     1      26.444   0.982  52.488  1.00  0.00     0.133 C 
HETATM    2  N2  UNL     1      27.062   1.646  51.586  1.00  0.00    -0.224 NA
HETATM    3  C7  UNL     1      26.426   2.509  50.661  1.00  0.00     0.236 C 
HETATM    4  N3  UNL     1      25.757   3.371  50.013  1.00  0.00    -0.235 NA
HETATM    5  C8  UNL     1      24.900   4.277  50.680  1.00  0.00     0.237 C 
HETATM    6  N4  UNL     1      23.992   4.972  51.279  1.00  0.00    -0.216 NA
HETATM    7  C9  UNL     1      22.713   4.350  51.468  1.00  0.00     0.198 C 
HETATM    8  C17 UNL     1      22.611   3.037  51.531  1.00  0.00     0.129 C 
HETATM    9  C18 UNL     1      21.308   2.354  51.723  1.00  0.00     0.237 C 
HETATM   10  O3  UNL     1      21.596   1.057  52.182  1.00  0.00    -0.378 OA
HETATM   11  C19 UNL     1      22.635   1.034  53.080  1.00  0.00     0.233 C 
HETATM   12  C20 UNL     1      23.964   1.348  52.474  1.00  0.00     0.080 C 
HETATM   13  C21 UNL     1      25.073   0.809  52.930  1.00  0.00     0.085 C 
HETATM   14  O4  UNL     1      23.780   2.259  51.413  1.00  0.00    -0.310 OA
ENDROOT
BRANCH   7  15
HETATM   15  O1  UNL     1      21.635   5.194  51.574  1.00  0.00    -0.332 OA
BRANCH  15  16
HETATM   16  C10 UNL     1      21.126   5.982  50.539  1.00  0.00     0.179 C 
BRANCH  16  17
HETATM   17  C11 UNL     1      21.560   7.438  50.725  1.00  0.00     0.057 C 
BRANCH  17  18
HETATM   18  C12 UNL     1      22.004   7.985  49.384  1.00  0.00     0.274 C 
BRANCH  18  19
HETATM   19  N5  UNL     1      23.414   8.079  49.217  1.00  0.00     0.092 N 
HETATM   20  C13 UNL     1      23.911   7.075  48.332  1.00  0.00     0.298 C 
HETATM   21  C14 UNL     1      25.409   7.140  48.144  1.00  0.00     0.198 C 
HETATM   22  O2  UNL     1      26.073   7.350  49.351  1.00  0.00    -0.388 OA
HETATM   23  C15 UNL     1      25.624   8.538  49.961  1.00  0.00     0.198 C 
HETATM   24  C16 UNL     1      24.186   8.247  50.407  1.00  0.00     0.298 C 
ENDBRANCH  18  19
ENDBRANCH  17  18
ENDBRANCH  16  17
ENDBRANCH  15  16
ENDBRANCH   7  15
BRANCH   1  25
HETATM   25  N1  UNL     1      27.484   0.261  53.176  1.00  0.00    -0.332 N 
HETATM   26  C2  UNL     1      28.471   0.586  54.183  1.00  0.00     0.157 C 
HETATM   27  C3  UNL     1      29.531  -0.450  54.002  1.00  0.00     0.220 C 
HETATM   28  F2  UNL     1      30.605   0.032  53.287  1.00  0.00    -0.243 F 
HETATM   29  C4  UNL     1      28.868  -1.600  53.349  1.00  0.00     0.029 C 
HETATM   30  C5  UNL     1      27.718  -1.132  52.903  1.00  0.00     0.092 C 
BRANCH  26  31
HETATM   31  C1  UNL     1      29.025   1.994  54.017  1.00  0.00     0.251 C 
HETATM   32  F1  UNL     1      29.865   2.315  55.058  1.00  0.00    -0.253 F 
ENDBRANCH  26  31
ENDBRANCH   1  25
TORSDOF 7
ENDMDL
MODEL 4
REMARK VINA RESULT:      -7.8      1.659      2.395
REMARK  7 active torsions:
REMARK  status: ('A' for Active; 'I' for Inactive)
REMARK    1  A    between atoms: C1_2  and  C2_3 
REMARK    2  A    between atoms: N1_8  and  C6_9 
REMARK    3  A    between atoms: C9_15  and  O1_16 
REMARK    4  A    between atoms: O1_16  and  C10_17 
REMARK    5  A    between atoms: C10_17  and  C11_18 
REMARK    6  A    between atoms: C11_18  and  C12_19 
REMARK    7  A    between atoms: C12_19  and  N5_20 
ROOT
HETATM    1  C6  UNL     1      26.380   1.128  52.603  1.00  0.00     0.133 C 
HETATM    2  N2  UNL     1      25.314   0.793  53.225  1.00  0.00    -0.224 NA
HETATM    3  C7  UNL     1      24.031   1.316  52.938  1.00  0.00     0.236 C 
HETATM    4  N3  UNL     1      22.927   1.731  52.468  1.00  0.00    -0.235 NA
HETATM    5  C8  UNL     1      22.645   1.636  51.085  1.00  0.00     0.237 C 
HETATM    6  N4  UNL     1      22.476   1.709  49.807  1.00  0.00    -0.216 NA
HETATM    7  C9  UNL     1      23.014   2.861  49.142  1.00  0.00     0.198 C 
HETATM    8  C17 UNL     1      24.040   3.510  49.655  1.00  0.00     0.129 C 
HETATM    9  C18 UNL     1      24.626   4.706  49.001  1.00  0.00     0.237 C 
HETATM   10  O3  UNL     1      25.917   4.867  49.535  1.00  0.00    -0.378 OA
HETATM   11  C19 UNL     1      26.567   3.669  49.709  1.00  0.00     0.233 C 
HETATM   12  C20 UNL     1      25.989   2.822  50.795  1.00  0.00     0.080 C 
HETATM   13  C21 UNL     1      26.742   2.021  51.517  1.00  0.00     0.085 C 
HETATM   14  O4  UNL     1      24.599   3.049  50.864  1.00  0.00    -0.310 OA
ENDROOT
BRANCH   7  15
HETATM   15  O1  UNL     1      22.401   3.229  47.969  1.00  0.00    -0.332 OA
BRANCH  15  16
HETATM   16  C10 UNL     1      21.042   3.070  47.688  1.00  0.00     0.179 C 
BRANCH  16  17
HETATM   17  C11 UNL     1      20.262   4.299  48.158  1.00  0.00     0.057 C 
BRANCH  17  18
HETATM   18  C12 UNL     1      20.931   5.538  47.598  1.00  0.00     0.274 C 
BRANCH  18  19
HETATM   19  N5  UNL     1      21.243   6.535  48.565  1.00  0.00     0.092 N 
HETATM   20  C13 UNL     1      22.327   7.362  48.141  1.00  0.00     0.298 C 
HETATM   21  C14 UNL     1      22.693   8.424  49.153  1.00  0.00     0.198 C 
HETATM   22  O2  UNL     1      22.712   7.916  50.451  1.00  0.00    -0.388 OA
HETATM   23  C15 UNL     1      21.459   7.362  50.782  1.00  0.00     0.198 C 
HETATM   24  C16 UNL     1      21.333   6.099  49.922  1.00  0.00     0.298 C 
ENDBRANCH  18  19
ENDBRANCH  17  18
ENDBRANCH  16  17
ENDBRANCH  15  16
ENDBRANCH   7  15
BRANCH   1  25
HETATM   25  N1  UNL     1      27.419   0.352  53.228  1.00  0.00    -0.332 N 
HETATM   26  C2  UNL     1      28.452   0.613  54.209  1.00  0.00     0.157 C 
HETATM   27  C3  UNL     1      29.471  -0.449  53.956  1.00  0.00     0.220 C 
HETATM   28  F2  UNL     1      30.534   0.023  53.218  1.00  0.00    -0.243 F 
HETATM   29  C4  UNL     1      28.748  -1.556  53.290  1.00  0.00     0.029 C 
HETATM   30  C5  UNL     1      27.599  -1.037  52.902  1.00  0.00     0.092 C 
BRANCH  26  31
HETATM   31  C1  UNL     1      29.044   2.007  54.069  1.00  0.00     0.251 C 
HETATM   32  F1  UNL     1      29.934   2.266  55.087  1.00  0.00    -0.253 F 
ENDBRANCH  26  31
ENDBRANCH   1  25
TORSDOF 7
ENDMDL
MODEL 5
REMARK VINA RESULT:      -7.6      1.951      3.433
REMARK  7 active torsions:
REMARK  status: ('A' for Active; 'I' for Inactive)
REMARK    1  A    between atoms: C1_2  and  C2_3 
REMARK    2  A    between atoms: N1_8  and  C6_9 
REMARK    3  A    between atoms: C9_15  and  O1_16 
REMARK    4  A    between atoms: O1_16  and  C10_17 
REMARK    5  A    between atoms: C10_17  and  C11_18 
REMARK    6  A    between atoms: C11_18  and  C12_19 
REMARK    7  A    between atoms: C12_19  and  N5_20 
ROOT
HETATM    1  C6  UNL     1      26.337   1.347  52.420  1.00  0.00     0.133 C 
HETATM    2  N2  UNL     1      26.981   1.962  51.501  1.00  0.00    -0.224 NA
HETATM    3  C7  UNL     1      26.386   2.858  50.581  1.00  0.00     0.236 C 
HETATM    4  N3  UNL     1      25.764   3.758  49.937  1.00  0.00    -0.235 NA
HETATM    5  C8  UNL     1      24.982   4.724  50.612  1.00  0.00     0.237 C 
HETATM    6  N4  UNL     1      24.135   5.483  51.221  1.00  0.00    -0.216 NA
HETATM    7  C9  UNL     1      22.821   4.950  51.439  1.00  0.00     0.198 C 
HETATM    8  C17 UNL     1      22.632   3.647  51.516  1.00  0.00     0.129 C 
HETATM    9  C18 UNL     1      21.290   3.054  51.738  1.00  0.00     0.237 C 
HETATM   10  O3  UNL     1      21.500   1.745  52.203  1.00  0.00    -0.378 OA
HETATM   11  C19 UNL     1      22.552   1.659  53.082  1.00  0.00     0.233 C 
HETATM   12  C20 UNL     1      23.887   1.879  52.448  1.00  0.00     0.080 C 
HETATM   13  C21 UNL     1      24.966   1.270  52.889  1.00  0.00     0.085 C 
HETATM   14  O4  UNL     1      23.744   2.792  51.383  1.00  0.00    -0.310 OA
ENDROOT
BRANCH   7  15
HETATM   15  O1  UNL     1      21.804   5.866  51.558  1.00  0.00    -0.332 OA
BRANCH  15  16
HETATM   16  C10 UNL     1      21.602   6.957  50.710  1.00  0.00     0.179 C 
BRANCH  16  17
HETATM   17  C11 UNL     1      20.396   6.704  49.804  1.00  0.00     0.057 C 
BRANCH  17  18
HETATM   18  C12 UNL     1      20.891   6.150  48.484  1.00  0.00     0.274 C 
BRANCH  18  19
HETATM   19  N5  UNL     1      21.067   4.738  48.458  1.00  0.00     0.092 N 
HETATM   20  C13 UNL     1      22.331   4.372  47.905  1.00  0.00     0.298 C 
HETATM   21  C14 UNL     1      22.543   2.876  47.850  1.00  0.00     0.198 C 
HETATM   22  O2  UNL     1      21.404   2.209  47.404  1.00  0.00    -0.388 OA
HETATM   23  C15 UNL     1      20.305   2.498  48.237  1.00  0.00     0.198 C 
HETATM   24  C16 UNL     1      19.967   3.969  47.968  1.00  0.00     0.298 C 
ENDBRANCH  18  19
ENDBRANCH  17  18
ENDBRANCH  16  17
ENDBRANCH  15  16
ENDBRANCH   7  15
BRANCH   1  25
HETATM   25  N1  UNL     1      27.338   0.563  53.095  1.00  0.00    -0.332 N 
HETATM   26  C2  UNL     1      28.346   0.824  54.102  1.00  0.00     0.157 C 
HETATM   27  C3  UNL     1      29.348  -0.266  53.904  1.00  0.00     0.220 C 
HETATM   28  F2  UNL     1      30.443   0.165  53.188  1.00  0.00    -0.243 F 
HETATM   29  C4  UNL     1      28.621  -1.371  53.242  1.00  0.00     0.029 C 
HETATM   30  C5  UNL     1      27.496  -0.837  52.807  1.00  0.00     0.092 C 
BRANCH  26  31
HETATM   31  C1  UNL     1      28.975   2.201  53.947  1.00  0.00     0.251 C 
HETATM   32  F1  UNL     1      29.895   2.433  54.943  1.00  0.00    -0.253 F 
ENDBRANCH  26  31
ENDBRANCH   1  25
TORSDOF 7
ENDMDL
MODEL 6
REMARK VINA RESULT:      -7.3      2.452      3.392
REMARK  7 active torsions:
REMARK  status: ('A' for Active; 'I' for Inactive)
REMARK    1  A    between atoms: C1_2  and  C2_3 
REMARK    2  A    between atoms: N1_8  and  C6_9 
REMARK    3  A    between atoms: C9_15  and  O1_16 
REMARK    4  A    between atoms: O1_16  and  C10_17 
REMARK    5  A    between atoms: C10_17  and  C11_18 
REMARK    6  A    between atoms: C11_18  and  C12_19 
REMARK    7  A    between atoms: C12_19  and  N5_20 
ROOT
HETATM    1  C6  UNL     1      26.204  -0.279  53.943  1.00  0.00     0.133 C 
HETATM    2  N2  UNL     1      25.700  -1.007  54.867  1.00  0.00    -0.224 NA
HETATM    3  C7  UNL     1      24.327  -1.014  55.210  1.00  0.00     0.236 C 
HETATM    4  N3  UNL     1      23.061  -1.049  55.298  1.00  0.00    -0.235 NA
HETATM    5  C8  UNL     1      22.258  -1.228  54.147  1.00  0.00     0.237 C 
HETATM    6  N4  UNL     1      21.537  -1.209  53.076  1.00  0.00    -0.216 NA
HETATM    7  C9  UNL     1      21.304   0.069  52.468  1.00  0.00     0.198 C 
HETATM    8  C17 UNL     1      22.161   1.056  52.638  1.00  0.00     0.129 C 
HETATM    9  C18 UNL     1      21.957   2.394  52.029  1.00  0.00     0.237 C 
HETATM   10  O3  UNL     1      23.210   3.032  52.027  1.00  0.00    -0.378 OA
HETATM   11  C19 UNL     1      24.236   2.175  51.714  1.00  0.00     0.233 C 
HETATM   12  C20 UNL     1      24.515   1.156  52.771  1.00  0.00     0.080 C 
HETATM   13  C21 UNL     1      25.730   0.698  52.981  1.00  0.00     0.085 C 
HETATM   14  O4  UNL     1      23.309   0.831  53.424  1.00  0.00    -0.310 OA
ENDROOT
BRANCH   7  15
HETATM   15  O1  UNL     1      20.159   0.188  51.719  1.00  0.00    -0.332 OA
BRANCH  15  16
HETATM   16  C10 UNL     1      18.864   0.269  52.238  1.00  0.00     0.179 C 
BRANCH  16  17
HETATM   17  C11 UNL     1      17.871  -0.382  51.274  1.00  0.00     0.057 C 
BRANCH  17  18
HETATM   18  C12 UNL     1      17.747   0.493  50.044  1.00  0.00     0.274 C 
BRANCH  18  19
HETATM   19  N5  UNL     1      17.430   1.855  50.310  1.00  0.00     0.092 N 
HETATM   20  C13 UNL     1      16.020   2.076  50.328  1.00  0.00     0.298 C 
HETATM   21  C14 UNL     1      15.650   3.518  50.595  1.00  0.00     0.198 C 
HETATM   22  O2  UNL     1      16.453   4.399  49.873  1.00  0.00    -0.388 OA
HETATM   23  C15 UNL     1      17.812   4.197  50.184  1.00  0.00     0.198 C 
HETATM   24  C16 UNL     1      18.169   2.834  49.578  1.00  0.00     0.298 C 
ENDBRANCH  18  19
ENDBRANCH  17  18
ENDBRANCH  16  17
ENDBRANCH  15  16
ENDBRANCH   7  15
BRANCH   1  25
HETATM   25  N1  UNL     1      27.607  -0.604  53.958  1.00  0.00    -0.332 N 
HETATM   26  C2  UNL     1      28.804   0.018  54.484  1.00  0.00     0.157 C 
HETATM   27  C3  UNL     1      29.907  -0.562  53.661  1.00  0.00     0.220 C 
HETATM   28  F2  UNL     1      30.313   0.297  52.664  1.00  0.00    -0.243 F 
HETATM   29  C4  UNL     1      29.393  -1.850  53.144  1.00  0.00     0.029 C 
HETATM   30  C5  UNL     1      28.090  -1.810  53.341  1.00  0.00     0.092 C 
BRANCH  26  31
HETATM   31  C1  UNL     1      28.761   1.536  54.377  1.00  0.00     0.251 C 
HETATM   32  F1  UNL     1      29.877   2.098  54.953  1.00  0.00    -0.253 F 
ENDBRANCH  26  31
ENDBRANCH   1  25
TORSDOF 7
ENDMDL
MODEL 7
REMARK VINA RESULT:      -7.3      1.379      1.829
REMARK  7 active torsions:
REMARK  status: ('A' for Active; 'I' for Inactive)
REMARK    1  A    between atoms: C1_2  and  C2_3 
REMARK    2  A    between atoms: N1_8  and  C6_9 
REMARK    3  A    between atoms: C9_15  and  O1_16 
REMARK    4  A    between atoms: O1_16  and  C10_17 
REMARK    5  A    between atoms: C10_17  and  C11_18 
REMARK    6  A    between atoms: C11_18  and  C12_19 
REMARK    7  A    between atoms: C12_19  and  N5_20 
ROOT
HETATM    1  C6  UNL     1      26.215   0.817  52.783  1.00  0.00     0.133 C 
HETATM    2  N2  UNL     1      25.215   0.352  53.431  1.00  0.00    -0.224 NA
HETATM    3  C7  UNL     1      23.875   0.753  53.214  1.00  0.00     0.236 C 
HETATM    4  N3  UNL     1      22.717   1.072  52.803  1.00  0.00    -0.235 NA
HETATM    5  C8  UNL     1      22.389   1.002  51.428  1.00  0.00     0.237 C 
HETATM    6  N4  UNL     1      22.161   1.105  50.162  1.00  0.00    -0.216 NA
HETATM    7  C9  UNL     1      22.553   2.330  49.526  1.00  0.00     0.198 C 
HETATM    8  C17 UNL     1      23.531   3.059  50.027  1.00  0.00     0.129 C 
HETATM    9  C18 UNL     1      23.967   4.333  49.403  1.00  0.00     0.237 C 
HETATM   10  O3  UNL     1      25.255   4.603  49.894  1.00  0.00    -0.378 OA
HETATM   11  C19 UNL     1      26.029   3.472  49.994  1.00  0.00     0.233 C 
HETATM   12  C20 UNL     1      25.583   2.530  51.064  1.00  0.00     0.080 C 
HETATM   13  C21 UNL     1      26.442   1.783  51.724  1.00  0.00     0.085 C 
HETATM   14  O4  UNL     1      24.182   2.613  51.194  1.00  0.00    -0.310 OA
ENDROOT
BRANCH   7  15
HETATM   15  O1  UNL     1      21.859   2.678  48.393  1.00  0.00    -0.332 OA
BRANCH  15  16
HETATM   16  C10 UNL     1      20.468   2.666  48.267  1.00  0.00     0.179 C 
BRANCH  16  17
HETATM   17  C11 UNL     1      19.855   3.780  49.118  1.00  0.00     0.057 C 
BRANCH  17  18
HETATM   18  C12 UNL     1      19.121   3.150  50.283  1.00  0.00     0.274 C 
BRANCH  18  19
HETATM   19  N5  UNL     1      18.174   2.151  49.921  1.00  0.00     0.092 N 
HETATM   20  C13 UNL     1      16.852   2.683  49.830  1.00  0.00     0.298 C 
HETATM   21  C14 UNL     1      15.819   1.643  49.460  1.00  0.00     0.198 C 
HETATM   22  O2  UNL     1      16.011   0.453  50.160  1.00  0.00    -0.388 OA
HETATM   23  C15 UNL     1      17.300  -0.059  49.919  1.00  0.00     0.198 C 
HETATM   24  C16 UNL     1      18.260   0.909  50.622  1.00  0.00     0.298 C 
ENDBRANCH  18  19
ENDBRANCH  17  18
ENDBRANCH  16  17
ENDBRANCH  15  16
ENDBRANCH   7  15
BRANCH   1  25
HETATM   25  N1  UNL     1      27.352   0.127  53.337  1.00  0.00    -0.332 N 
HETATM   26  C2  UNL     1      28.450   0.485  54.210  1.00  0.00     0.157 C 
HETATM   27  C3  UNL     1      29.505  -0.526  53.900  1.00  0.00     0.220 C 
HETATM   28  F2  UNL     1      30.467  -0.023  53.052  1.00  0.00    -0.243 F 
HETATM   29  C4  UNL     1      28.793  -1.697  53.342  1.00  0.00     0.029 C 
HETATM   30  C5  UNL     1      27.585  -1.261  53.044  1.00  0.00     0.092 C 
BRANCH  26  31
HETATM   31  C1  UNL     1      28.942   1.904  53.968  1.00  0.00     0.251 C 
HETATM   32  F1  UNL     1      29.851   2.279  54.931  1.00  0.00    -0.253 F 
ENDBRANCH  26  31
ENDBRANCH   1  25
TORSDOF 7
ENDMDL
MODEL 8
REMARK VINA RESULT:      -7.2      1.871      3.050
REMARK  7 active torsions:
REMARK  status: ('A' for Active; 'I' for Inactive)
REMARK    1  A    between atoms: C1_2  and  C2_3 
REMARK    2  A    between atoms: N1_8  and  C6_9 
REMARK    3  A    between atoms: C9_15  and  O1_16 
REMARK    4  A    between atoms: O1_16  and  C10_17 
REMARK    5  A    between atoms: C10_17  and  C11_18 
REMARK    6  A    between atoms: C11_18  and  C12_19 
REMARK    7  A    between atoms: C12_19  and  N5_20 
ROOT
HETATM    1  C6  UNL     1      26.183   0.123  53.788  1.00  0.00     0.133 C 
HETATM    2  N2  UNL     1      25.501  -0.824  54.312  1.00  0.00    -0.224 NA
HETATM    3  C7  UNL     1      24.089  -0.825  54.409  1.00  0.00     0.236 C 
HETATM    4  N3  UNL     1      22.828  -0.777  54.277  1.00  0.00    -0.235 NA
HETATM    5  C8  UNL     1      22.239  -0.488  53.023  1.00  0.00     0.237 C 
HETATM    6  N4  UNL     1      21.723  -0.049  51.924  1.00  0.00    -0.216 NA
HETATM    7  C9  UNL     1      21.638   1.374  51.766  1.00  0.00     0.198 C 
HETATM    8  C17 UNL     1      22.478   2.168  52.400  1.00  0.00     0.129 C 
HETATM    9  C18 UNL     1      22.425   3.645  52.266  1.00  0.00     0.237 C 
HETATM   10  O3  UNL     1      23.674   4.134  52.682  1.00  0.00    -0.378 OA
HETATM   11  C19 UNL     1      24.716   3.345  52.260  1.00  0.00     0.233 C 
HETATM   12  C20 UNL     1      24.772   2.011  52.931  1.00  0.00     0.080 C 
HETATM   13  C21 UNL     1      25.916   1.404  53.160  1.00  0.00     0.085 C 
HETATM   14  O4  UNL     1      23.460   1.593  53.232  1.00  0.00    -0.310 OA
ENDROOT
BRANCH   7  15
HETATM   15  O1  UNL     1      20.649   1.837  50.933  1.00  0.00    -0.332 OA
BRANCH  15  16
HETATM   16  C10 UNL     1      20.191   1.180  49.788  1.00  0.00     0.179 C 
BRANCH  16  17
HETATM   17  C11 UNL     1      20.039   2.177  48.637  1.00  0.00     0.057 C 
BRANCH  17  18
HETATM   18  C12 UNL     1      19.943   3.573  49.217  1.00  0.00     0.274 C 
BRANCH  18  19
HETATM   19  N5  UNL     1      20.914   4.491  48.727  1.00  0.00     0.092 N 
HETATM   20  C13 UNL     1      20.436   5.212  47.592  1.00  0.00     0.298 C 
HETATM   21  C14 UNL     1      21.451   6.186  47.038  1.00  0.00     0.198 C 
HETATM   22  O2  UNL     1      22.726   5.627  46.982  1.00  0.00    -0.388 OA
HETATM   23  C15 UNL     1      23.134   5.199  48.260  1.00  0.00     0.198 C 
HETATM   24  C16 UNL     1      22.246   3.992  48.588  1.00  0.00     0.298 C 
ENDBRANCH  18  19
ENDBRANCH  17  18
ENDBRANCH  16  17
ENDBRANCH  15  16
ENDBRANCH   7  15
BRANCH   1  25
HETATM   25  N1  UNL     1      27.551  -0.310  53.912  1.00  0.00    -0.332 N 
HETATM   26  C2  UNL     1      28.761   0.248  54.479  1.00  0.00     0.157 C 
HETATM   27  C3  UNL     1      29.860  -0.467  53.764  1.00  0.00     0.220 C 
HETATM   28  F2  UNL     1      30.395   0.294  52.748  1.00  0.00    -0.243 F 
HETATM   29  C4  UNL     1      29.274  -1.740  53.288  1.00  0.00     0.029 C 
HETATM   30  C5  UNL     1      27.969  -1.585  53.397  1.00  0.00     0.092 C 
BRANCH  26  31
HETATM   31  C1  UNL     1      28.850   1.754  54.284  1.00  0.00     0.251 C 
HETATM   32  F1  UNL     1      29.943   2.269  54.943  1.00  0.00    -0.253 F 
ENDBRANCH  26  31
ENDBRANCH   1  25
TORSDOF 7
ENDMDL
MODEL 9
REMARK VINA RESULT:      -7.1      2.674      4.108
REMARK  7 active torsions:
REMARK  status: ('A' for Active; 'I' for Inactive)
REMARK    1  A    between atoms: C1_2  and  C2_3 
REMARK    2  A    between atoms: N1_8  and  C6_9 
REMARK    3  A    between atoms: C9_15  and  O1_16 
REMARK    4  A    between atoms: O1_16  and  C10_17 
REMARK    5  A    between atoms: C10_17  and  C11_18 
REMARK    6  A    between atoms: C11_18  and  C12_19 
REMARK    7  A    between atoms: C12_19  and  N5_20 
ROOT
HETATM    1  C6  UNL     1      26.298   1.979  52.427  1.00  0.00     0.133 C 
HETATM    2  N2  UNL     1      25.245   2.005  53.154  1.00  0.00    -0.224 NA
HETATM    3  C7  UNL     1      24.132   2.844  52.907  1.00  0.00     0.236 C 
HETATM    4  N3  UNL     1      23.144   3.514  52.476  1.00  0.00    -0.235 NA
HETATM    5  C8  UNL     1      22.716   3.396  51.133  1.00  0.00     0.237 C 
HETATM    6  N4  UNL     1      22.452   3.415  49.870  1.00  0.00    -0.216 NA
HETATM    7  C9  UNL     1      23.217   4.314  49.056  1.00  0.00     0.198 C 
HETATM    8  C17 UNL     1      24.427   4.686  49.427  1.00  0.00     0.129 C 
HETATM    9  C18 UNL     1      25.252   5.616  48.616  1.00  0.00     0.237 C 
HETATM   10  O3  UNL     1      26.581   5.448  49.038  1.00  0.00    -0.378 OA
HETATM   11  C19 UNL     1      26.894   4.133  49.286  1.00  0.00     0.233 C 
HETATM   12  C20 UNL     1      26.213   3.569  50.490  1.00  0.00     0.080 C 
HETATM   13  C21 UNL     1      26.784   2.647  51.234  1.00  0.00     0.085 C 
HETATM   14  O4  UNL     1      24.952   4.182  50.634  1.00  0.00    -0.310 OA
ENDROOT
BRANCH   7  15
HETATM   15  O1  UNL     1      22.619   4.747  47.898  1.00  0.00    -0.332 OA
BRANCH  15  16
HETATM   16  C10 UNL     1      21.671   5.770  47.817  1.00  0.00     0.179 C 
BRANCH  16  17
HETATM   17  C11 UNL     1      21.955   6.654  46.601  1.00  0.00     0.057 C 
BRANCH  17  18
HETATM   18  C12 UNL     1      21.972   8.101  47.049  1.00  0.00     0.274 C 
BRANCH  18  19
HETATM   19  N5  UNL     1      23.261   8.703  47.071  1.00  0.00     0.092 N 
HETATM   20  C13 UNL     1      24.167   8.046  46.186  1.00  0.00     0.298 C 
HETATM   21  C14 UNL     1      25.551   8.654  46.196  1.00  0.00     0.198 C 
HETATM   22  O2  UNL     1      25.978   8.945  47.491  1.00  0.00    -0.388 OA
HETATM   23  C15 UNL     1      25.075   9.822  48.123  1.00  0.00     0.198 C 
HETATM   24  C16 UNL     1      23.805   8.995  48.360  1.00  0.00     0.298 C 
ENDBRANCH  18  19
ENDBRANCH  17  18
ENDBRANCH  16  17
ENDBRANCH  15  16
ENDBRANCH   7  15
BRANCH   1  25
HETATM   25  N1  UNL     1      27.140   0.993  53.053  1.00  0.00    -0.332 N 
HETATM   26  C2  UNL     1      28.178   1.015  54.063  1.00  0.00     0.157 C 
HETATM   27  C3  UNL     1      28.966  -0.227  53.802  1.00  0.00     0.220 C 
HETATM   28  F2  UNL     1      30.121   0.034  53.099  1.00  0.00    -0.243 F 
HETATM   29  C4  UNL     1      28.050  -1.147  53.091  1.00  0.00     0.029 C 
HETATM   30  C5  UNL     1      27.041  -0.396  52.693  1.00  0.00     0.092 C 
BRANCH  26  31
HETATM   31  C1  UNL     1      29.046   2.261  53.972  1.00  0.00     0.251 C 
HETATM   32  F1  UNL     1      29.906   2.338  55.044  1.00  0.00    -0.253 F 
ENDBRANCH  26  31
ENDBRANCH   1  25
TORSDOF 7
ENDMDL
