MODEL 1
REMARK VINA RESULT:      -7.2      0.000      0.000
REMARK  2 active torsions:
REMARK  status: ('A' for Active; 'I' for Inactive)
REMARK    1  A    between atoms: C4_5  and  O1_6 
REMARK    2  A    between atoms: C11_16  and  C13_18 
ROOT
HETATM    1  C1  UNL     1      21.690   3.620  45.693  1.00  0.00     0.049 C 
HETATM    2  C2  UNL     1      22.182   3.491  47.077  1.00  0.00    -0.047 C 
HETATM    3  C3  UNL     1      22.544   4.774  47.249  1.00  0.00     0.096 C 
HETATM    4  N1  UNL     1      22.623   6.062  46.677  1.00  0.00    -0.349 N 
HETATM    5  C4  UNL     1      22.261   6.814  47.803  1.00  0.00     0.131 C 
HETATM    6  C5  UNL     1      21.667   6.807  48.949  1.00  0.00     0.145 C 
HETATM    7  S1  UNL     1      20.775   6.302  50.388  1.00  0.00    -0.133 SA
HETATM    8  C6  UNL     1      21.870   5.551  51.584  1.00  0.00     0.220 C 
HETATM    9  N2  UNL     1      22.356   4.227  51.190  1.00  0.00    -0.282 N 
HETATM   10  N3  UNL     1      21.466   3.210  50.867  1.00  0.00    -0.191 NA
HETATM   11  C7  UNL     1      21.812   2.026  51.303  1.00  0.00     0.123 C 
HETATM   12  C8  UNL     1      23.033   2.171  50.416  1.00  0.00     0.084 C 
HETATM   13  C9  UNL     1      22.553   2.130  49.058  1.00  0.00    -0.013 C 
HETATM   14  C10 UNL     1      22.146   2.252  47.804  1.00  0.00     0.005 C 
HETATM   15  C11 UNL     1      23.537   3.456  50.990  1.00  0.00     0.086 C 
HETATM   16  C12 UNL     1      23.972   3.039  52.434  1.00  0.00     0.047 C 
HETATM   17  H5  UNL     1      22.884   5.594  45.853  1.00  0.00     0.167 HD
ENDROOT
BRANCH  15  18
HETATM   18  C13 UNL     1      24.689   4.034  50.351  1.00  0.00    -0.028 A 
HETATM   19  C14 UNL     1      24.838   5.391  50.040  1.00  0.00     0.011 A 
HETATM   20  C15 UNL     1      25.905   5.997  49.413  1.00  0.00     0.019 A 
HETATM   21  C16 UNL     1      26.956   5.185  49.044  1.00  0.00     0.011 A 
HETATM   22 BR1  UNL     1      28.459   5.969  48.174  1.00  0.00    -0.051 Br
HETATM   23  C17 UNL     1      26.893   3.834  49.312  1.00  0.00     0.019 A 
HETATM   24  C18 UNL     1      25.786   3.315  49.943  1.00  0.00     0.011 A 
ENDBRANCH  15  18
BRANCH   5  25
HETATM   25  O1  UNL     1      22.834   7.949  47.337  1.00  0.00    -0.348 OA
HETATM   26  H6  UNL     1      23.056   8.093  46.357  1.00  0.00     0.219 HD
ENDBRANCH   5  25
TORSDOF 2
ENDMDL
MODEL 2
REMARK VINA RESULT:      -6.9      1.095      1.266
REMARK  2 active torsions:
REMARK  status: ('A' for Active; 'I' for Inactive)
REMARK    1  A    between atoms: C4_5  and  O1_6 
REMARK    2  A    between atoms: C11_16  and  C13_18 
ROOT
HETATM    1  C1  UNL     1      21.780   5.860  45.454  1.00  0.00     0.049 C 
HETATM    2  C2  UNL     1      22.323   5.211  46.661  1.00  0.00    -0.047 C 
HETATM    3  C3  UNL     1      22.857   6.311  47.219  1.00  0.00     0.096 C 
HETATM    4  N1  UNL     1      23.073   7.702  47.109  1.00  0.00    -0.349 N 
HETATM    5  C4  UNL     1      22.872   8.052  48.451  1.00  0.00     0.131 C 
HETATM    6  C5  UNL     1      22.343   7.713  49.578  1.00  0.00     0.145 C 
HETATM    7  S1  UNL     1      21.469   6.839  50.841  1.00  0.00    -0.133 SA
HETATM    8  C6  UNL     1      22.519   5.611  51.606  1.00  0.00     0.220 C 
HETATM    9  N2  UNL     1      22.807   4.461  50.746  1.00  0.00    -0.282 N 
HETATM   10  N3  UNL     1      21.777   3.717  50.185  1.00  0.00    -0.191 NA
HETATM   11  C7  UNL     1      21.988   2.426  50.164  1.00  0.00     0.123 C 
HETATM   12  C8  UNL     1      23.169   2.740  49.267  1.00  0.00     0.084 C 
HETATM   13  C9  UNL     1      22.617   3.220  48.026  1.00  0.00    -0.013 C 
HETATM   14  C10 UNL     1      22.165   3.808  46.929  1.00  0.00     0.005 C 
HETATM   15  C11 UNL     1      23.866   3.688  50.190  1.00  0.00     0.086 C 
HETATM   16  C12 UNL     1      24.318   2.756  51.362  1.00  0.00     0.047 C 
HETATM   17  H5  UNL     1      23.227   7.522  46.154  1.00  0.00     0.167 HD
ENDROOT
BRANCH  15  18
HETATM   18  C13 UNL     1      25.048   4.328  49.677  1.00  0.00    -0.028 A 
HETATM   19  C14 UNL     1      25.144   5.682  49.335  1.00  0.00     0.011 A 
HETATM   20  C15 UNL     1      26.239   6.343  48.822  1.00  0.00     0.019 A 
HETATM   21  C16 UNL     1      27.380   5.598  48.618  1.00  0.00     0.011 A 
HETATM   22 BR1  UNL     1      28.925   6.461  47.912  1.00  0.00    -0.051 Br
HETATM   23  C17 UNL     1      27.374   4.255  48.927  1.00  0.00     0.019 A 
HETATM   24  C18 UNL     1      26.234   3.677  49.435  1.00  0.00     0.011 A 
ENDBRANCH  15  18
BRANCH   5  25
HETATM   25  O1  UNL     1      23.562   9.213  48.341  1.00  0.00    -0.348 OA
HETATM   26  H6  UNL     1      24.537   9.250  48.065  1.00  0.00     0.219 HD
ENDBRANCH   5  25
TORSDOF 2
ENDMDL
MODEL 3
REMARK VINA RESULT:      -6.4      6.500      9.155
REMARK  2 active torsions:
REMARK  status: ('A' for Active; 'I' for Inactive)
REMARK    1  A    between atoms: C4_5  and  O1_6 
REMARK    2  A    between atoms: C11_16  and  C13_18 
ROOT
HETATM    1  C1  UNL     1      30.190  12.371  49.004  1.00  0.00     0.049 C 
HETATM    2  C2  UNL     1      30.265  10.923  48.740  1.00  0.00    -0.047 C 
HETATM    3  C3  UNL     1      29.624  10.932  47.559  1.00  0.00     0.096 C 
HETATM    4  N1  UNL     1      28.978  11.712  46.575  1.00  0.00    -0.349 N 
HETATM    5  C4  UNL     1      29.466  11.059  45.436  1.00  0.00     0.131 C 
HETATM    6  C5  UNL     1      30.391  10.301  44.951  1.00  0.00     0.145 C 
HETATM    7  S1  UNL     1      31.830   9.290  44.774  1.00  0.00    -0.133 SA
HETATM    8  C6  UNL     1      31.484   7.603  45.255  1.00  0.00     0.220 C 
HETATM    9  N2  UNL     1      31.304   7.425  46.697  1.00  0.00    -0.282 N 
HETATM   10  N3  UNL     1      32.286   7.833  47.592  1.00  0.00    -0.191 NA
HETATM   11  C7  UNL     1      32.475   7.019  48.599  1.00  0.00     0.123 C 
HETATM   12  C8  UNL     1      31.039   7.323  48.978  1.00  0.00     0.084 C 
HETATM   13  C9  UNL     1      31.013   8.702  49.392  1.00  0.00    -0.013 C 
HETATM   14  C10 UNL     1      30.909  10.000  49.634  1.00  0.00     0.005 C 
HETATM   15  C11 UNL     1      30.409   6.921  47.683  1.00  0.00     0.086 C 
HETATM   16  C12 UNL     1      30.639   5.373  47.656  1.00  0.00     0.047 C 
HETATM   17  H5  UNL     1      28.600  12.212  47.333  1.00  0.00     0.167 HD
ENDROOT
BRANCH  15  18
HETATM   18  C13 UNL     1      28.991   7.141  47.566  1.00  0.00    -0.028 A 
HETATM   19  C14 UNL     1      28.386   7.994  46.635  1.00  0.00     0.011 A 
HETATM   20  C15 UNL     1      27.041   8.258  46.490  1.00  0.00     0.019 A 
HETATM   21  C16 UNL     1      26.180   7.616  47.353  1.00  0.00     0.011 A 
HETATM   22 BR1  UNL     1      24.310   7.944  47.196  1.00  0.00    -0.051 Br
HETATM   23  C17 UNL     1      26.692   6.757  48.303  1.00  0.00     0.019 A 
HETATM   24  C18 UNL     1      28.050   6.553  48.376  1.00  0.00     0.011 A 
ENDBRANCH  15  18
BRANCH   5  25
HETATM   25  O1  UNL     1      28.461  11.504  44.643  1.00  0.00    -0.348 OA
HETATM   26  H6  UNL     1      27.697  12.074  44.990  1.00  0.00     0.219 HD
ENDBRANCH   5  25
TORSDOF 2
ENDMDL
MODEL 4
REMARK VINA RESULT:      -6.2      8.378     10.146
REMARK  2 active torsions:
REMARK  status: ('A' for Active; 'I' for Inactive)
REMARK    1  A    between atoms: C4_5  and  O1_6 
REMARK    2  A    between atoms: C11_16  and  C13_18 
ROOT
HETATM    1  C1  UNL     1      28.020   8.527  45.130  1.00  0.00     0.049 C 
HETATM    2  C2  UNL     1      29.248   8.077  45.808  1.00  0.00    -0.047 C 
HETATM    3  C3  UNL     1      30.123   8.537  44.897  1.00  0.00     0.096 C 
HETATM    4  N1  UNL     1      30.301   9.215  43.672  1.00  0.00    -0.349 N 
HETATM    5  C4  UNL     1      31.433   9.968  44.011  1.00  0.00     0.131 C 
HETATM    6  C5  UNL     1      32.139  10.466  44.969  1.00  0.00     0.145 C 
HETATM    7  S1  UNL     1      32.739  10.921  46.568  1.00  0.00    -0.133 SA
HETATM    8  C6  UNL     1      33.739   9.614  47.267  1.00  0.00     0.220 C 
HETATM    9  N2  UNL     1      32.970   8.439  47.682  1.00  0.00    -0.282 N 
HETATM   10  N3  UNL     1      31.910   8.561  48.572  1.00  0.00    -0.191 NA
HETATM   11  C7  UNL     1      31.825   7.597  49.451  1.00  0.00     0.123 C 
HETATM   12  C8  UNL     1      31.617   6.675  48.266  1.00  0.00     0.084 C 
HETATM   13  C9  UNL     1      30.333   7.016  47.709  1.00  0.00    -0.013 C 
HETATM   14  C10 UNL     1      29.235   7.395  47.073  1.00  0.00     0.005 C 
HETATM   15  C11 UNL     1      32.868   7.027  47.526  1.00  0.00     0.086 C 
HETATM   16  C12 UNL     1      33.989   6.456  48.456  1.00  0.00     0.047 C 
HETATM   17  H5  UNL     1      29.509   8.715  43.371  1.00  0.00     0.167 HD
ENDROOT
BRANCH  15  18
HETATM   18  C13 UNL     1      33.040   6.419  46.233  1.00  0.00    -0.028 A 
HETATM   19  C14 UNL     1      33.333   7.112  45.052  1.00  0.00     0.011 A 
HETATM   20  C15 UNL     1      33.488   6.588  43.787  1.00  0.00     0.019 A 
HETATM   21  C16 UNL     1      33.341   5.225  43.653  1.00  0.00     0.011 A 
HETATM   22 BR1  UNL     1      33.546   4.446  41.927  1.00  0.00    -0.051 Br
HETATM   23  C17 UNL     1      33.051   4.463  44.766  1.00  0.00     0.019 A 
HETATM   24  C18 UNL     1      32.913   5.072  45.991  1.00  0.00     0.011 A 
ENDBRANCH  15  18
BRANCH   5  25
HETATM   25  O1  UNL     1      31.800  10.159  42.721  1.00  0.00    -0.348 OA
HETATM   26  H6  UNL     1      31.245   9.834  41.936  1.00  0.00     0.219 HD
ENDBRANCH   5  25
TORSDOF 2
ENDMDL
MODEL 5
REMARK VINA RESULT:      -6.0      9.042     11.027
REMARK  2 active torsions:
REMARK  status: ('A' for Active; 'I' for Inactive)
REMARK    1  A    between atoms: C4_5  and  O1_6 
REMARK    2  A    between atoms: C11_16  and  C13_18 
ROOT
HETATM    1  C1  UNL     1      35.360   9.830  44.518  1.00  0.00     0.049 C 
HETATM    2  C2  UNL     1      34.662   9.022  45.533  1.00  0.00    -0.047 C 
HETATM    3  C3  UNL     1      33.631   8.636  44.763  1.00  0.00     0.096 C 
HETATM    4  N1  UNL     1      33.024   8.695  43.489  1.00  0.00    -0.349 N 
HETATM    5  C4  UNL     1      32.596   7.364  43.398  1.00  0.00     0.131 C 
HETATM    6  C5  UNL     1      32.758   6.156  43.823  1.00  0.00     0.145 C 
HETATM    7  S1  UNL     1      33.347   4.732  44.688  1.00  0.00    -0.133 SA
HETATM    8  C6  UNL     1      32.558   4.588  46.285  1.00  0.00     0.220 C 
HETATM    9  N2  UNL     1      32.999   5.593  47.255  1.00  0.00    -0.282 N 
HETATM   10  N3  UNL     1      34.346   5.744  47.560  1.00  0.00    -0.191 NA
HETATM   11  C7  UNL     1      34.595   5.971  48.824  1.00  0.00     0.123 C 
HETATM   12  C8  UNL     1      33.789   7.243  48.646  1.00  0.00     0.084 C 
HETATM   13  C9  UNL     1      34.564   8.094  47.779  1.00  0.00    -0.013 C 
HETATM   14  C10 UNL     1      35.164   8.845  46.868  1.00  0.00     0.005 C 
HETATM   15  C11 UNL     1      32.534   6.607  48.140  1.00  0.00     0.086 C 
HETATM   16  C12 UNL     1      32.020   5.819  49.390  1.00  0.00     0.047 C 
HETATM   17  H5  UNL     1      33.297   9.640  43.491  1.00  0.00     0.167 HD
ENDROOT
BRANCH  15  18
HETATM   18  C13 UNL     1      31.480   7.501  47.740  1.00  0.00    -0.028 A 
HETATM   19  C14 UNL     1      30.694   7.352  46.591  1.00  0.00     0.011 A 
HETATM   20  C15 UNL     1      29.688   8.184  46.148  1.00  0.00     0.019 A 
HETATM   21  C16 UNL     1      29.413   9.295  46.915  1.00  0.00     0.011 A 
HETATM   22 BR1  UNL     1      28.032  10.479  46.350  1.00  0.00    -0.051 Br
HETATM   23  C17 UNL     1      30.140   9.520  48.065  1.00  0.00     0.019 A 
HETATM   24  C18 UNL     1      31.128   8.636  48.430  1.00  0.00     0.011 A 
ENDBRANCH  15  18
BRANCH   5  25
HETATM   25  O1  UNL     1      31.652   7.641  42.466  1.00  0.00    -0.348 OA
HETATM   26  H6  UNL     1      31.617   7.180  41.563  1.00  0.00     0.219 HD
ENDBRANCH   5  25
TORSDOF 2
ENDMDL
MODEL 6
REMARK VINA RESULT:      -5.8      6.594      8.811
REMARK  2 active torsions:
REMARK  status: ('A' for Active; 'I' for Inactive)
REMARK    1  A    between atoms: C4_5  and  O1_6 
REMARK    2  A    between atoms: C11_16  and  C13_18 
ROOT
HETATM    1  C1  UNL     1      30.843  11.210  43.792  1.00  0.00     0.049 C 
HETATM    2  C2  UNL     1      30.214  10.294  44.761  1.00  0.00    -0.047 C 
HETATM    3  C3  UNL     1      30.924  10.674  45.838  1.00  0.00     0.096 C 
HETATM    4  N1  UNL     1      31.930  11.524  46.346  1.00  0.00    -0.349 N 
HETATM    5  C4  UNL     1      31.340  11.833  47.579  1.00  0.00     0.131 C 
HETATM    6  C5  UNL     1      30.244  11.890  48.257  1.00  0.00     0.145 C 
HETATM    7  S1  UNL     1      28.546  11.798  48.737  1.00  0.00    -0.133 SA
HETATM    8  C6  UNL     1      28.123  10.142  49.263  1.00  0.00     0.220 C 
HETATM    9  N2  UNL     1      28.063   9.172  48.167  1.00  0.00    -0.282 N 
HETATM   10  N3  UNL     1      27.244   9.392  47.067  1.00  0.00    -0.191 NA
HETATM   11  C7  UNL     1      26.636   8.323  46.620  1.00  0.00     0.123 C 
HETATM   12  C8  UNL     1      28.023   7.779  46.339  1.00  0.00     0.084 C 
HETATM   13  C9  UNL     1      28.564   8.583  45.272  1.00  0.00    -0.013 C 
HETATM   14  C10 UNL     1      29.160   9.385  44.405  1.00  0.00     0.005 C 
HETATM   15  C11 UNL     1      28.567   7.916  47.725  1.00  0.00     0.086 C 
HETATM   16  C12 UNL     1      27.732   6.863  48.527  1.00  0.00     0.047 C 
HETATM   17  H5  UNL     1      32.397  11.347  45.499  1.00  0.00     0.167 HD
ENDROOT
BRANCH  15  18
HETATM   18  C13 UNL     1      29.956   7.580  47.903  1.00  0.00    -0.028 A 
HETATM   19  C14 UNL     1      30.865   8.310  48.678  1.00  0.00     0.011 A 
HETATM   20  C15 UNL     1      32.204   8.050  48.869  1.00  0.00     0.019 A 
HETATM   21  C16 UNL     1      32.724   6.946  48.229  1.00  0.00     0.011 A 
HETATM   22 BR1  UNL     1      34.570   6.537  48.458  1.00  0.00    -0.051 Br
HETATM   23  C17 UNL     1      31.898   6.169  47.444  1.00  0.00     0.019 A 
HETATM   24  C18 UNL     1      30.571   6.505  47.310  1.00  0.00     0.011 A 
ENDBRANCH  15  18
BRANCH   5  25
HETATM   25  O1  UNL     1      32.517  12.188  48.150  1.00  0.00    -0.348 OA
HETATM   26  H6  UNL     1      32.601  12.435  49.131  1.00  0.00     0.219 HD
ENDBRANCH   5  25
TORSDOF 2
ENDMDL
MODEL 7
REMARK VINA RESULT:      -5.7      6.659      8.185
REMARK  2 active torsions:
REMARK  status: ('A' for Active; 'I' for Inactive)
REMARK    1  A    between atoms: C4_5  and  O1_6 
REMARK    2  A    between atoms: C11_16  and  C13_18 
ROOT
HETATM    1  C1  UNL     1      26.513   8.667  44.078  1.00  0.00     0.049 C 
HETATM    2  C2  UNL     1      27.396   8.929  45.228  1.00  0.00    -0.047 C 
HETATM    3  C3  UNL     1      26.601   9.815  45.853  1.00  0.00     0.096 C 
HETATM    4  N1  UNL     1      25.375  10.514  45.837  1.00  0.00    -0.349 N 
HETATM    5  C4  UNL     1      25.071  10.436  47.203  1.00  0.00     0.131 C 
HETATM    6  C5  UNL     1      25.278   9.810  48.311  1.00  0.00     0.145 C 
HETATM    7  S1  UNL     1      25.869   8.668  49.524  1.00  0.00    -0.133 SA
HETATM    8  C6  UNL     1      27.441   9.202  50.186  1.00  0.00     0.220 C 
HETATM    9  N2  UNL     1      28.555   9.071  49.244  1.00  0.00    -0.282 N 
HETATM   10  N3  UNL     1      28.841   7.849  48.648  1.00  0.00    -0.191 NA
HETATM   11  C7  UNL     1      30.118   7.586  48.535  1.00  0.00     0.123 C 
HETATM   12  C8  UNL     1      30.184   8.811  47.643  1.00  0.00     0.084 C 
HETATM   13  C9  UNL     1      29.452   8.480  46.447  1.00  0.00    -0.013 C 
HETATM   14  C10 UNL     1      28.665   8.279  45.401  1.00  0.00     0.005 C 
HETATM   15  C11 UNL     1      29.613   9.790  48.619  1.00  0.00     0.086 C 
HETATM   16  C12 UNL     1      30.726   9.867  49.717  1.00  0.00     0.047 C 
HETATM   17  H5  UNL     1      25.529  10.604  44.870  1.00  0.00     0.167 HD
ENDROOT
BRANCH  15  18
HETATM   18  C13 UNL     1      29.403  11.128  48.134  1.00  0.00    -0.028 A 
HETATM   19  C14 UNL     1      28.450  12.023  48.636  1.00  0.00     0.011 A 
HETATM   20  C15 UNL     1      28.190  13.305  48.200  1.00  0.00     0.019 A 
HETATM   21  C16 UNL     1      28.948  13.773  47.149  1.00  0.00     0.011 A 
HETATM   22 BR1  UNL     1      28.632  15.538  46.506  1.00  0.00    -0.051 Br
HETATM   23  C17 UNL     1      29.911  12.957  46.593  1.00  0.00     0.019 A 
HETATM   24  C18 UNL     1      30.101  11.690  47.093  1.00  0.00     0.011 A 
ENDBRANCH  15  18
BRANCH   5  25
HETATM   25  O1  UNL     1      24.228  11.497  47.164  1.00  0.00    -0.348 OA
HETATM   26  H6  UNL     1      24.492  12.423  47.482  1.00  0.00     0.219 HD
ENDBRANCH   5  25
TORSDOF 2
ENDMDL
MODEL 8
REMARK VINA RESULT:      -5.6      7.724      9.653
REMARK  2 active torsions:
REMARK  status: ('A' for Active; 'I' for Inactive)
REMARK    1  A    between atoms: C4_5  and  O1_6 
REMARK    2  A    between atoms: C11_16  and  C13_18 
ROOT
HETATM    1  C1  UNL     1      28.336  10.189  43.447  1.00  0.00     0.049 C 
HETATM    2  C2  UNL     1      29.028   9.628  44.621  1.00  0.00    -0.047 C 
HETATM    3  C3  UNL     1      29.861  10.661  44.837  1.00  0.00     0.096 C 
HETATM    4  N1  UNL     1      30.284  11.941  44.418  1.00  0.00    -0.349 N 
HETATM    5  C4  UNL     1      30.469  12.523  45.679  1.00  0.00     0.131 C 
HETATM    6  C5  UNL     1      30.171  12.476  46.934  1.00  0.00     0.145 C 
HETATM    7  S1  UNL     1      29.482  12.007  48.492  1.00  0.00    -0.133 SA
HETATM    8  C6  UNL     1      30.454  10.713  49.252  1.00  0.00     0.220 C 
HETATM    9  N2  UNL     1      30.327   9.413  48.591  1.00  0.00    -0.282 N 
HETATM   10  N3  UNL     1      29.080   8.829  48.405  1.00  0.00    -0.191 NA
HETATM   11  C7  UNL     1      29.053   7.535  48.591  1.00  0.00     0.123 C 
HETATM   12  C8  UNL     1      30.024   7.452  47.430  1.00  0.00     0.084 C 
HETATM   13  C9  UNL     1      29.286   7.847  46.257  1.00  0.00    -0.013 C 
HETATM   14  C10 UNL     1      28.697   8.347  45.182  1.00  0.00     0.005 C 
HETATM   15  C11 UNL     1      31.073   8.358  47.992  1.00  0.00     0.086 C 
HETATM   16  C12 UNL     1      31.621   7.537  49.206  1.00  0.00     0.047 C 
HETATM   17  H5  UNL     1      30.174  11.592  43.505  1.00  0.00     0.167 HD
ENDROOT
BRANCH  15  18
HETATM   18  C13 UNL     1      32.193   8.648  47.136  1.00  0.00    -0.028 A 
HETATM   19  C14 UNL     1      32.769   9.913  46.969  1.00  0.00     0.011 A 
HETATM   20  C15 UNL     1      33.826  10.254  46.153  1.00  0.00     0.019 A 
HETATM   21  C16 UNL     1      34.391   9.242  45.408  1.00  0.00     0.011 A 
HETATM   22 BR1  UNL     1      35.856   9.655  44.261  1.00  0.00    -0.051 Br
HETATM   23  C17 UNL     1      33.886   7.963  45.510  1.00  0.00     0.019 A 
HETATM   24  C18 UNL     1      32.827   7.714  46.352  1.00  0.00     0.011 A 
ENDBRANCH  15  18
BRANCH   5  25
HETATM   25  O1  UNL     1      31.305  13.481  45.210  1.00  0.00    -0.348 OA
HETATM   26  H6  UNL     1      31.013  14.441  45.059  1.00  0.00     0.219 HD
ENDBRANCH   5  25
TORSDOF 2
ENDMDL
MODEL 9
REMARK VINA RESULT:      -5.5      7.652      9.540
REMARK  2 active torsions:
REMARK  status: ('A' for Active; 'I' for Inactive)
REMARK    1  A    between atoms: C4_5  and  O1_6 
REMARK    2  A    between atoms: C11_16  and  C13_18 
ROOT
HETATM    1  C1  UNL     1      26.259   8.453  45.560  1.00  0.00     0.049 C 
HETATM    2  C2  UNL     1      27.147   9.325  46.350  1.00  0.00    -0.047 C 
HETATM    3  C3  UNL     1      28.261   9.137  45.623  1.00  0.00     0.096 C 
HETATM    4  N1  UNL     1      28.847   8.498  44.509  1.00  0.00    -0.349 N 
HETATM    5  C4  UNL     1      29.655   9.553  44.062  1.00  0.00     0.131 C 
HETATM    6  C5  UNL     1      29.851  10.828  44.072  1.00  0.00     0.145 C 
HETATM    7  S1  UNL     1      29.696  12.561  44.382  1.00  0.00    -0.133 SA
HETATM    8  C6  UNL     1      30.460  13.000  45.937  1.00  0.00     0.220 C 
HETATM    9  N2  UNL     1      29.721  12.531  47.111  1.00  0.00    -0.282 N 
HETATM   10  N3  UNL     1      28.384  12.866  47.290  1.00  0.00    -0.191 NA
HETATM   11  C7  UNL     1      28.055  13.145  48.524  1.00  0.00     0.123 C 
HETATM   12  C8  UNL     1      28.448  11.715  48.842  1.00  0.00     0.084 C 
HETATM   13  C9  UNL     1      27.472  10.875  48.196  1.00  0.00    -0.013 C 
HETATM   14  C10 UNL     1      26.694  10.062  47.498  1.00  0.00     0.005 C 
HETATM   15  C11 UNL     1      29.845  11.778  48.313  1.00  0.00     0.086 C 
HETATM   16  C12 UNL     1      30.545  12.759  49.311  1.00  0.00     0.047 C 
HETATM   17  H5  UNL     1      28.305   7.720  44.770  1.00  0.00     0.167 HD
ENDROOT
BRANCH  15  18
HETATM   18  C13 UNL     1      30.593  10.549  48.333  1.00  0.00    -0.028 A 
HETATM   19  C14 UNL     1      30.610   9.637  49.395  1.00  0.00     0.011 A 
HETATM   20  C15 UNL     1      31.320   8.458  49.479  1.00  0.00     0.019 A 
HETATM   21  C16 UNL     1      32.108   8.126  48.399  1.00  0.00     0.011 A 
HETATM   22 BR1  UNL     1      33.111   6.507  48.460  1.00  0.00    -0.051 Br
HETATM   23  C17 UNL     1      32.151   8.968  47.308  1.00  0.00     0.019 A 
HETATM   24  C18 UNL     1      31.409  10.126  47.312  1.00  0.00     0.011 A 
ENDBRANCH  15  18
BRANCH   5  25
HETATM   25  O1  UNL     1      30.492   8.737  43.377  1.00  0.00    -0.348 OA
HETATM   26  H6  UNL     1      30.310   7.748  43.243  1.00  0.00     0.219 HD
ENDBRANCH   5  25
TORSDOF 2
ENDMDL
