MODEL 1
REMARK VINA RESULT:      -8.3      0.000      0.000
REMARK  3 active torsions:
REMARK  status: ('A' for Active; 'I' for Inactive)
REMARK    1  A    between atoms: C8_9  and  S1_10 
REMARK    2  A    between atoms: S1_10  and  C9_11 
REMARK    3  A    between atoms: C9_11  and  C10_12 
ROOT
HETATM    1  C1  UNL     1      28.671   0.309  54.862  1.00  0.00     0.017 C 
HETATM    2  C2  UNL     1      27.488   0.143  54.580  1.00  0.00    -0.081 C 
HETATM    3  C3  UNL     1      26.055  -0.073  54.260  1.00  0.00     0.007 C 
HETATM    4  C4  UNL     1      25.345  -0.685  55.209  1.00  0.00     0.017 C 
HETATM    5  C5  UNL     1      24.106  -1.245  55.725  1.00  0.00    -0.001 C 
HETATM    6  C6  UNL     1      22.872  -1.418  55.275  1.00  0.00    -0.000 C 
HETATM    7  C7  UNL     1      22.184  -1.134  54.015  1.00  0.00     0.205 C 
HETATM    8  O1  UNL     1      21.103  -0.223  54.108  1.00  0.00    -0.324 OA
HETATM    9  C8  UNL     1      21.150   0.839  53.143  1.00  0.00     0.225 C 
HETATM   10  N1  UNL     1      22.236   1.425  52.800  1.00  0.00    -0.118 NA
HETATM   11  N2  UNL     1      23.522   1.248  53.191  1.00  0.00    -0.163 NA
HETATM   12  C16 UNL     1      24.540   0.791  52.579  1.00  0.00     0.128 C 
HETATM   13  C17 UNL     1      25.957   0.573  52.935  1.00  0.00     0.023 C 
HETATM   14  C18 UNL     1      26.637  -0.354  51.946  1.00  0.00     0.027 C 
HETATM   15  C19 UNL     1      26.699   1.916  52.885  1.00  0.00     0.027 C 
ENDROOT
BRANCH   9  16
HETATM   16  S1  UNL     1      20.158   1.832  52.058  1.00  0.00    -0.079 SA
BRANCH  16  17
HETATM   17  C9  UNL     1      19.571   0.824  50.697  1.00  0.00     0.121 C 
BRANCH  17  18
HETATM   18  C10 UNL     1      18.316   0.112  51.004  1.00  0.00    -0.049 A 
HETATM   19  C11 UNL     1      18.096  -0.565  52.184  1.00  0.00     0.008 A 
HETATM   20  C12 UNL     1      16.963  -1.250  52.543  1.00  0.00     0.001 A 
HETATM   21  C13 UNL     1      15.958  -1.244  51.609  1.00  0.00     0.000 A 
HETATM   22  C14 UNL     1      16.086  -0.592  50.395  1.00  0.00     0.001 A 
HETATM   23  C15 UNL     1      17.262   0.087  50.088  1.00  0.00     0.008 A 
ENDBRANCH  17  18
ENDBRANCH  16  17
ENDBRANCH   9  16
TORSDOF 3
ENDMDL
MODEL 2
REMARK VINA RESULT:      -8.3      4.041      7.299
REMARK  3 active torsions:
REMARK  status: ('A' for Active; 'I' for Inactive)
REMARK    1  A    between atoms: C8_9  and  S1_10 
REMARK    2  A    between atoms: S1_10  and  C9_11 
REMARK    3  A    between atoms: C9_11  and  C10_12 
ROOT
HETATM    1  C1  UNL     1      25.351  -0.900  55.550  1.00  0.00     0.017 C 
HETATM    2  C2  UNL     1      24.911  -0.413  54.512  1.00  0.00    -0.081 C 
HETATM    3  C3  UNL     1      24.358   0.162  53.261  1.00  0.00     0.007 C 
HETATM    4  C4  UNL     1      23.058  -0.057  53.059  1.00  0.00     0.017 C 
HETATM    5  C5  UNL     1      21.842   0.069  52.271  1.00  0.00    -0.001 C 
HETATM    6  C6  UNL     1      21.510   0.586  51.098  1.00  0.00    -0.000 C 
HETATM    7  C7  UNL     1      22.239   1.267  50.027  1.00  0.00     0.205 C 
HETATM    8  O1  UNL     1      21.826   2.596  49.764  1.00  0.00    -0.324 OA
HETATM    9  C8  UNL     1      22.905   3.543  49.713  1.00  0.00     0.225 C 
HETATM   10  N1  UNL     1      23.906   3.507  50.510  1.00  0.00    -0.118 NA
HETATM   11  N2  UNL     1      24.224   2.667  51.525  1.00  0.00    -0.163 NA
HETATM   12  C16 UNL     1      25.140   1.792  51.649  1.00  0.00     0.128 C 
HETATM   13  C17 UNL     1      25.544   0.852  52.713  1.00  0.00     0.023 C 
HETATM   14  C18 UNL     1      26.467  -0.225  52.176  1.00  0.00     0.027 C 
HETATM   15  C19 UNL     1      26.321   1.620  53.793  1.00  0.00     0.027 C 
ENDROOT
BRANCH   9  16
HETATM   16  S1  UNL     1      23.513   4.974  48.858  1.00  0.00    -0.079 SA
BRANCH  16  17
HETATM   17  C9  UNL     1      24.742   5.796  49.871  1.00  0.00     0.121 C 
BRANCH  17  18
HETATM   18  C10 UNL     1      26.046   5.939  49.195  1.00  0.00    -0.049 A 
HETATM   19  C11 UNL     1      26.472   7.109  48.605  1.00  0.00     0.008 A 
HETATM   20  C12 UNL     1      27.662   7.322  47.958  1.00  0.00     0.001 A 
HETATM   21  C13 UNL     1      28.501   6.237  47.909  1.00  0.00     0.000 A 
HETATM   22  C14 UNL     1      28.162   5.019  48.473  1.00  0.00     0.001 A 
HETATM   23  C15 UNL     1      26.937   4.866  49.116  1.00  0.00     0.008 A 
ENDBRANCH  17  18
ENDBRANCH  16  17
ENDBRANCH   9  16
TORSDOF 3
ENDMDL
MODEL 3
REMARK VINA RESULT:      -8.2      5.250      8.992
REMARK  3 active torsions:
REMARK  status: ('A' for Active; 'I' for Inactive)
REMARK    1  A    between atoms: C8_9  and  S1_10 
REMARK    2  A    between atoms: S1_10  and  C9_11 
REMARK    3  A    between atoms: C9_11  and  C10_12 
ROOT
HETATM    1  C1  UNL     1      23.434   9.027  48.382  1.00  0.00     0.017 C 
HETATM    2  C2  UNL     1      23.861   7.915  48.679  1.00  0.00    -0.081 C 
HETATM    3  C3  UNL     1      24.399   6.576  49.026  1.00  0.00     0.007 C 
HETATM    4  C4  UNL     1      25.699   6.404  48.783  1.00  0.00     0.017 C 
HETATM    5  C5  UNL     1      26.908   5.595  48.776  1.00  0.00    -0.001 C 
HETATM    6  C6  UNL     1      27.226   4.346  49.078  1.00  0.00    -0.000 C 
HETATM    7  C7  UNL     1      26.482   3.177  49.551  1.00  0.00     0.205 C 
HETATM    8  O1  UNL     1      26.881   2.677  50.815  1.00  0.00    -0.324 OA
HETATM    9  C8  UNL     1      25.794   2.468  51.729  1.00  0.00     0.225 C 
HETATM   10  N1  UNL     1      24.799   3.268  51.829  1.00  0.00    -0.118 NA
HETATM   11  N2  UNL     1      24.497   4.421  51.181  1.00  0.00    -0.163 NA
HETATM   12  C16 UNL     1      23.590   4.706  50.336  1.00  0.00     0.128 C 
HETATM   13  C17 UNL     1      23.202   5.925  49.598  1.00  0.00     0.023 C 
HETATM   14  C18 UNL     1      22.285   5.598  48.435  1.00  0.00     0.027 C 
HETATM   15  C19 UNL     1      22.427   6.858  50.541  1.00  0.00     0.027 C 
ENDROOT
BRANCH   9  16
HETATM   16  S1  UNL     1      25.166   1.378  52.981  1.00  0.00    -0.079 SA
BRANCH  16  17
HETATM   17  C9  UNL     1      25.733  -0.291  52.657  1.00  0.00     0.121 C 
BRANCH  17  18
HETATM   18  C10 UNL     1      27.130  -0.518  53.075  1.00  0.00    -0.049 A 
HETATM   19  C11 UNL     1      27.875   0.407  53.774  1.00  0.00     0.008 A 
HETATM   20  C12 UNL     1      29.173   0.273  54.195  1.00  0.00     0.001 A 
HETATM   21  C13 UNL     1      29.769  -0.920  53.873  1.00  0.00     0.000 A 
HETATM   22  C14 UNL     1      29.103  -1.911  53.173  1.00  0.00     0.001 A 
HETATM   23  C15 UNL     1      27.784  -1.715  52.773  1.00  0.00     0.008 A 
ENDBRANCH  17  18
ENDBRANCH  16  17
ENDBRANCH   9  16
TORSDOF 3
ENDMDL
MODEL 4
REMARK VINA RESULT:      -8.2      1.938      3.273
REMARK  3 active torsions:
REMARK  status: ('A' for Active; 'I' for Inactive)
REMARK    1  A    between atoms: C8_9  and  S1_10 
REMARK    2  A    between atoms: S1_10  and  C9_11 
REMARK    3  A    between atoms: C9_11  and  C10_12 
ROOT
HETATM    1  C1  UNL     1      28.475   0.263  54.929  1.00  0.00     0.017 C 
HETATM    2  C2  UNL     1      27.303   0.119  54.593  1.00  0.00    -0.081 C 
HETATM    3  C3  UNL     1      25.883  -0.070  54.207  1.00  0.00     0.007 C 
HETATM    4  C4  UNL     1      25.127  -0.704  55.105  1.00  0.00     0.017 C 
HETATM    5  C5  UNL     1      23.862  -1.266  55.551  1.00  0.00    -0.001 C 
HETATM    6  C6  UNL     1      22.648  -1.411  55.045  1.00  0.00    -0.000 C 
HETATM    7  C7  UNL     1      22.015  -1.079  53.767  1.00  0.00     0.205 C 
HETATM    8  O1  UNL     1      20.941  -0.160  53.845  1.00  0.00    -0.324 OA
HETATM    9  C8  UNL     1      21.039   0.932  52.917  1.00  0.00     0.225 C 
HETATM   10  N1  UNL     1      22.144   1.517  52.639  1.00  0.00    -0.118 NA
HETATM   11  N2  UNL     1      23.410   1.313  53.077  1.00  0.00    -0.163 NA
HETATM   12  C16 UNL     1      24.448   0.864  52.493  1.00  0.00     0.128 C 
HETATM   13  C17 UNL     1      25.847   0.619  52.900  1.00  0.00     0.023 C 
HETATM   14  C18 UNL     1      26.558  -0.284  51.911  1.00  0.00     0.027 C 
HETATM   15  C19 UNL     1      26.604   1.955  52.925  1.00  0.00     0.027 C 
ENDROOT
BRANCH   9  16
HETATM   16  S1  UNL     1      20.102   1.970  51.824  1.00  0.00    -0.079 SA
BRANCH  16  17
HETATM   17  C9  UNL     1      19.870   1.132  50.258  1.00  0.00     0.121 C 
BRANCH  17  18
HETATM   18  C10 UNL     1      20.569   1.793  49.139  1.00  0.00    -0.049 A 
HETATM   19  C11 UNL     1      21.826   1.429  48.707  1.00  0.00     0.008 A 
HETATM   20  C12 UNL     1      22.541   1.992  47.680  1.00  0.00     0.001 A 
HETATM   21  C13 UNL     1      21.913   3.025  47.032  1.00  0.00     0.000 A 
HETATM   22  C14 UNL     1      20.651   3.463  47.393  1.00  0.00     0.001 A 
HETATM   23  C15 UNL     1      19.975   2.850  48.445  1.00  0.00     0.008 A 
ENDBRANCH  17  18
ENDBRANCH  16  17
ENDBRANCH   9  16
TORSDOF 3
ENDMDL
MODEL 5
REMARK VINA RESULT:      -7.9      2.355      8.056
REMARK  3 active torsions:
REMARK  status: ('A' for Active; 'I' for Inactive)
REMARK    1  A    between atoms: C8_9  and  S1_10 
REMARK    2  A    between atoms: S1_10  and  C9_11 
REMARK    3  A    between atoms: C9_11  and  C10_12 
ROOT
HETATM    1  C1  UNL     1      19.314   2.924  47.923  1.00  0.00     0.017 C 
HETATM    2  C2  UNL     1      19.745   2.477  48.982  1.00  0.00    -0.081 C 
HETATM    3  C3  UNL     1      20.242   1.928  50.267  1.00  0.00     0.007 C 
HETATM    4  C4  UNL     1      19.451   1.021  50.844  1.00  0.00     0.017 C 
HETATM    5  C5  UNL     1      19.130   0.096  51.919  1.00  0.00    -0.001 C 
HETATM    6  C6  UNL     1      19.673  -0.255  53.074  1.00  0.00    -0.000 C 
HETATM    7  C7  UNL     1      20.863   0.153  53.822  1.00  0.00     0.205 C 
HETATM    8  O1  UNL     1      21.818  -0.869  54.044  1.00  0.00    -0.324 OA
HETATM    9  C8  UNL     1      23.160  -0.500  53.691  1.00  0.00     0.225 C 
HETATM   10  N1  UNL     1      23.445   0.199  52.657  1.00  0.00    -0.118 NA
HETATM   11  N2  UNL     1      22.666   0.743  51.691  1.00  0.00    -0.163 NA
HETATM   12  C16 UNL     1      22.376   1.951  51.414  1.00  0.00     0.128 C 
HETATM   13  C17 UNL     1      21.546   2.613  50.388  1.00  0.00     0.023 C 
HETATM   14  C18 UNL     1      21.249   4.052  50.762  1.00  0.00     0.027 C 
HETATM   15  C19 UNL     1      22.315   2.637  49.059  1.00  0.00     0.027 C 
ENDROOT
BRANCH   9  16
HETATM   16  S1  UNL     1      24.859  -0.641  54.184  1.00  0.00    -0.079 SA
BRANCH  16  17
HETATM   17  C9  UNL     1      25.913  -0.482  52.743  1.00  0.00     0.121 C 
BRANCH  17  18
HETATM   18  C10 UNL     1      27.350  -0.573  53.066  1.00  0.00    -0.049 A 
HETATM   19  C11 UNL     1      28.115   0.511  53.440  1.00  0.00     0.008 A 
HETATM   20  C12 UNL     1      29.450   0.510  53.752  1.00  0.00     0.001 A 
HETATM   21  C13 UNL     1      30.065  -0.714  53.677  1.00  0.00     0.000 A 
HETATM   22  C14 UNL     1      29.381  -1.860  53.311  1.00  0.00     0.001 A 
HETATM   23  C15 UNL     1      28.025  -1.794  53.005  1.00  0.00     0.008 A 
ENDBRANCH  17  18
ENDBRANCH  16  17
ENDBRANCH   9  16
TORSDOF 3
ENDMDL
MODEL 6
REMARK VINA RESULT:      -7.8      1.897      8.266
REMARK  3 active torsions:
REMARK  status: ('A' for Active; 'I' for Inactive)
REMARK    1  A    between atoms: C8_9  and  S1_10 
REMARK    2  A    between atoms: S1_10  and  C9_11 
REMARK    3  A    between atoms: C9_11  and  C10_12 
ROOT
HETATM    1  C1  UNL     1      16.490   0.128  49.901  1.00  0.00     0.017 C 
HETATM    2  C2  UNL     1      17.459   0.207  50.651  1.00  0.00    -0.081 C 
HETATM    3  C3  UNL     1      18.621   0.284  51.570  1.00  0.00     0.007 C 
HETATM    4  C4  UNL     1      18.731  -0.725  52.435  1.00  0.00     0.017 C 
HETATM    5  C5  UNL     1      19.396  -1.408  53.534  1.00  0.00    -0.001 C 
HETATM    6  C6  UNL     1      20.435  -1.172  54.319  1.00  0.00    -0.000 C 
HETATM    7  C7  UNL     1      21.401  -0.079  54.453  1.00  0.00     0.205 C 
HETATM    8  O1  UNL     1      22.751  -0.433  54.214  1.00  0.00    -0.324 OA
HETATM    9  C8  UNL     1      23.430   0.439  53.298  1.00  0.00     0.225 C 
HETATM   10  N1  UNL     1      22.874   0.923  52.250  1.00  0.00    -0.118 NA
HETATM   11  N2  UNL     1      21.625   0.781  51.742  1.00  0.00    -0.163 NA
HETATM   12  C16 UNL     1      20.655   1.598  51.634  1.00  0.00     0.128 C 
HETATM   13  C17 UNL     1      19.282   1.517  51.095  1.00  0.00     0.023 C 
HETATM   14  C18 UNL     1      18.433   2.680  51.572  1.00  0.00     0.027 C 
HETATM   15  C19 UNL     1      19.339   1.593  49.562  1.00  0.00     0.027 C 
ENDROOT
BRANCH   9  16
HETATM   16  S1  UNL     1      24.973   1.251  52.971  1.00  0.00    -0.079 SA
BRANCH  16  17
HETATM   17  C9  UNL     1      26.035   0.158  52.029  1.00  0.00     0.121 C 
BRANCH  17  18
HETATM   18  C10 UNL     1      27.332  -0.095  52.685  1.00  0.00    -0.049 A 
HETATM   19  C11 UNL     1      27.899  -1.346  52.792  1.00  0.00     0.008 A 
HETATM   20  C12 UNL     1      29.094  -1.663  53.385  1.00  0.00     0.001 A 
HETATM   21  C13 UNL     1      29.779  -0.601  53.919  1.00  0.00     0.000 A 
HETATM   22  C14 UNL     1      29.292   0.693  53.861  1.00  0.00     0.001 A 
HETATM   23  C15 UNL     1      28.070   0.951  53.245  1.00  0.00     0.008 A 
ENDBRANCH  17  18
ENDBRANCH  16  17
ENDBRANCH   9  16
TORSDOF 3
ENDMDL
MODEL 7
REMARK VINA RESULT:      -7.8      5.127      7.415
REMARK  3 active torsions:
REMARK  status: ('A' for Active; 'I' for Inactive)
REMARK    1  A    between atoms: C8_9  and  S1_10 
REMARK    2  A    between atoms: S1_10  and  C9_11 
REMARK    3  A    between atoms: C9_11  and  C10_12 
ROOT
HETATM    1  C1  UNL     1      23.593   9.047  47.437  1.00  0.00     0.017 C 
HETATM    2  C2  UNL     1      24.026   7.972  47.841  1.00  0.00    -0.081 C 
HETATM    3  C3  UNL     1      24.572   6.678  48.320  1.00  0.00     0.007 C 
HETATM    4  C4  UNL     1      25.903   6.586  48.320  1.00  0.00     0.017 C 
HETATM    5  C5  UNL     1      27.139   5.857  48.554  1.00  0.00    -0.001 C 
HETATM    6  C6  UNL     1      27.472   4.638  48.947  1.00  0.00    -0.000 C 
HETATM    7  C7  UNL     1      26.727   3.432  49.317  1.00  0.00     0.205 C 
HETATM    8  O1  UNL     1      26.921   2.986  50.647  1.00  0.00    -0.324 OA
HETATM    9  C8  UNL     1      25.702   2.726  51.359  1.00  0.00     0.225 C 
HETATM   10  N1  UNL     1      24.659   3.461  51.253  1.00  0.00    -0.118 NA
HETATM   11  N2  UNL     1      24.410   4.578  50.526  1.00  0.00    -0.163 NA
HETATM   12  C16 UNL     1      23.655   4.787  49.524  1.00  0.00     0.128 C 
HETATM   13  C17 UNL     1      23.333   5.963  48.690  1.00  0.00     0.023 C 
HETATM   14  C18 UNL     1      22.662   5.553  47.393  1.00  0.00     0.027 C 
HETATM   15  C19 UNL     1      22.346   6.862  49.449  1.00  0.00     0.027 C 
ENDROOT
BRANCH   9  16
HETATM   16  S1  UNL     1      24.925   1.623  52.512  1.00  0.00    -0.079 SA
BRANCH  16  17
HETATM   17  C9  UNL     1      23.159   1.594  52.214  1.00  0.00     0.121 C 
BRANCH  17  18
HETATM   18  C10 UNL     1      22.455   0.567  53.006  1.00  0.00    -0.049 A 
HETATM   19  C11 UNL     1      23.095  -0.308  53.856  1.00  0.00     0.008 A 
HETATM   20  C12 UNL     1      22.517  -1.287  54.622  1.00  0.00     0.001 A 
HETATM   21  C13 UNL     1      21.152  -1.383  54.511  1.00  0.00     0.000 A 
HETATM   22  C14 UNL     1      20.421  -0.549  53.683  1.00  0.00     0.001 A 
HETATM   23  C15 UNL     1      21.068   0.427  52.929  1.00  0.00     0.008 A 
ENDBRANCH  17  18
ENDBRANCH  16  17
ENDBRANCH   9  16
TORSDOF 3
ENDMDL
MODEL 8
REMARK VINA RESULT:      -7.7      5.030      8.868
REMARK  3 active torsions:
REMARK  status: ('A' for Active; 'I' for Inactive)
REMARK    1  A    between atoms: C8_9  and  S1_10 
REMARK    2  A    between atoms: S1_10  and  C9_11 
REMARK    3  A    between atoms: C9_11  and  C10_12 
ROOT
HETATM    1  C1  UNL     1      26.171   8.485  46.484  1.00  0.00     0.017 C 
HETATM    2  C2  UNL     1      25.642   7.704  47.270  1.00  0.00    -0.081 C 
HETATM    3  C3  UNL     1      24.980   6.764  48.208  1.00  0.00     0.007 C 
HETATM    4  C4  UNL     1      23.733   6.419  47.884  1.00  0.00     0.017 C 
HETATM    5  C5  UNL     1      22.493   5.700  48.134  1.00  0.00    -0.001 C 
HETATM    6  C6  UNL     1      22.019   4.912  49.087  1.00  0.00    -0.000 C 
HETATM    7  C7  UNL     1      22.533   4.409  50.362  1.00  0.00     0.205 C 
HETATM    8  O1  UNL     1      22.660   3.002  50.450  1.00  0.00    -0.324 OA
HETATM    9  C8  UNL     1      23.942   2.560  50.924  1.00  0.00     0.225 C 
HETATM   10  N1  UNL     1      25.044   3.115  50.582  1.00  0.00    -0.118 NA
HETATM   11  N2  UNL     1      25.313   4.164  49.767  1.00  0.00    -0.163 NA
HETATM   12  C16 UNL     1      25.748   5.336  50.007  1.00  0.00     0.128 C 
HETATM   13  C17 UNL     1      26.065   6.518  49.180  1.00  0.00     0.023 C 
HETATM   14  C18 UNL     1      26.183   7.769  50.029  1.00  0.00     0.027 C 
HETATM   15  C19 UNL     1      27.422   6.302  48.495  1.00  0.00     0.027 C 
ENDROOT
BRANCH   9  16
HETATM   16  S1  UNL     1      24.751   1.365  51.957  1.00  0.00    -0.079 SA
BRANCH  16  17
HETATM   17  C9  UNL     1      26.322   2.024  52.512  1.00  0.00     0.121 C 
BRANCH  17  18
HETATM   18  C10 UNL     1      27.307   0.974  52.837  1.00  0.00    -0.049 A 
HETATM   19  C11 UNL     1      28.567   1.240  53.329  1.00  0.00     0.008 A 
HETATM   20  C12 UNL     1      29.536   0.325  53.652  1.00  0.00     0.001 A 
HETATM   21  C13 UNL     1      29.187  -0.987  53.457  1.00  0.00     0.000 A 
HETATM   22  C14 UNL     1      27.945  -1.353  52.968  1.00  0.00     0.001 A 
HETATM   23  C15 UNL     1      27.003  -0.377  52.657  1.00  0.00     0.008 A 
ENDBRANCH  17  18
ENDBRANCH  16  17
ENDBRANCH   9  16
TORSDOF 3
ENDMDL
MODEL 9
REMARK VINA RESULT:      -7.6      4.479      8.446
REMARK  3 active torsions:
REMARK  status: ('A' for Active; 'I' for Inactive)
REMARK    1  A    between atoms: C8_9  and  S1_10 
REMARK    2  A    between atoms: S1_10  and  C9_11 
REMARK    3  A    between atoms: C9_11  and  C10_12 
ROOT
HETATM    1  C1  UNL     1      23.607   7.121  46.617  1.00  0.00     0.017 C 
HETATM    2  C2  UNL     1      23.510   6.273  47.499  1.00  0.00    -0.081 C 
HETATM    3  C3  UNL     1      23.377   5.234  48.550  1.00  0.00     0.007 C 
HETATM    4  C4  UNL     1      22.825   4.087  48.152  1.00  0.00     0.017 C 
HETATM    5  C5  UNL     1      22.349   2.736  48.402  1.00  0.00    -0.001 C 
HETATM    6  C6  UNL     1      22.244   1.937  49.453  1.00  0.00    -0.000 C 
HETATM    7  C7  UNL     1      22.551   2.061  50.880  1.00  0.00     0.205 C 
HETATM    8  O1  UNL     1      23.527   1.160  51.369  1.00  0.00    -0.324 OA
HETATM    9  C8  UNL     1      24.570   1.787  52.132  1.00  0.00     0.225 C 
HETATM   10  N1  UNL     1      25.083   2.917  51.819  1.00  0.00    -0.118 NA
HETATM   11  N2  UNL     1      24.834   3.772  50.796  1.00  0.00    -0.163 NA
HETATM   12  C16 UNL     1      24.306   4.929  50.766  1.00  0.00     0.128 C 
HETATM   13  C17 UNL     1      24.007   5.910  49.703  1.00  0.00     0.023 C 
HETATM   14  C18 UNL     1      23.026   6.961  50.183  1.00  0.00     0.027 C 
HETATM   15  C19 UNL     1      25.302   6.639  49.314  1.00  0.00     0.027 C 
ENDROOT
BRANCH   9  16
HETATM   16  S1  UNL     1      25.604   1.604  53.562  1.00  0.00    -0.079 SA
BRANCH  16  17
HETATM   17  C9  UNL     1      27.316   1.476  53.048  1.00  0.00     0.121 C 
BRANCH  17  18
HETATM   18  C10 UNL     1      27.825   0.091  53.070  1.00  0.00    -0.049 A 
HETATM   19  C11 UNL     1      29.100  -0.244  53.471  1.00  0.00     0.008 A 
HETATM   20  C12 UNL     1      29.646  -1.501  53.519  1.00  0.00     0.001 A 
HETATM   21  C13 UNL     1      28.812  -2.515  53.121  1.00  0.00     0.000 A 
HETATM   22  C14 UNL     1      27.514  -2.278  52.702  1.00  0.00     0.001 A 
HETATM   23  C15 UNL     1      27.017  -0.978  52.675  1.00  0.00     0.008 A 
ENDBRANCH  17  18
ENDBRANCH  16  17
ENDBRANCH   9  16
TORSDOF 3
ENDMDL
