MODEL 1
REMARK VINA RESULT:      -7.4      0.000      0.000
REMARK  6 active torsions:
REMARK  status: ('A' for Active; 'I' for Inactive)
REMARK    1  A    between atoms: C1_2  and  C2_3 
REMARK       I    between atoms: C1_2  and  N1_8 
REMARK    2  A    between atoms: C3_4  and  C4_5 
REMARK    3  A    between atoms: N1_8  and  C6_9 
REMARK    4  A    between atoms: C10_13  and  C11_14 
REMARK    5  A    between atoms: C11_14  and  C12_15 
REMARK    6  A    between atoms: C12_15  and  C13_16 
ROOT
HETATM    1  C6  UNL     1      24.688   2.540  53.069  1.00  0.00     0.035 A 
HETATM    2  C7  UNL     1      24.036   3.640  52.588  1.00  0.00     0.029 A 
HETATM    3  C8  UNL     1      22.749   3.639  52.095  1.00  0.00     0.003 A 
HETATM    4  C9  UNL     1      22.030   2.470  52.065  1.00  0.00     0.007 A 
HETATM    5  C10 UNL     1      22.656   1.337  52.543  1.00  0.00    -0.056 A 
HETATM    6  C14 UNL     1      23.941   1.383  53.027  1.00  0.00     0.036 A 
ENDROOT
BRANCH   1   7
HETATM    7  N1  UNL     1      26.002   2.475  53.586  1.00  0.00    -0.324 N 
HETATM    8  C1  UNL     1      27.241   2.445  52.904  1.00  0.00     0.245 C 
HETATM    9  O1  UNL     1      27.199   2.479  51.650  1.00  0.00    -0.268 OA
HETATM   10  H5  UNL     1      26.110   2.443  54.627  1.00  0.00     0.169 HD
BRANCH   8  11
HETATM   11  C2  UNL     1      28.502   2.377  53.620  1.00  0.00     0.074 C 
HETATM   12  C3  UNL     1      29.172   1.275  53.859  1.00  0.00     0.003 C 
BRANCH  12  13
HETATM   13  C4  UNL     1      29.129  -0.154  53.645  1.00  0.00    -0.009 C 
HETATM   14  C5  UNL     1      28.281  -1.047  53.209  1.00  0.00     0.206 C 
HETATM   15 BR1  UNL     1      28.871  -2.858  53.176  1.00  0.00    -0.193 Br
ENDBRANCH  12  13
ENDBRANCH   8  11
ENDBRANCH   1   7
BRANCH   5  16
HETATM   16  C11 UNL     1      21.901   0.058  52.524  1.00  0.00     0.047 C 
BRANCH  16  17
HETATM   17  C12 UNL     1      22.638  -0.962  53.352  1.00  0.00     0.122 C 
BRANCH  17  18
HETATM   18  C13 UNL     1      21.841  -1.249  54.621  1.00  0.00     0.388 C 
HETATM   19  F1  UNL     1      22.687  -1.920  55.503  1.00  0.00    -0.171 F 
HETATM   20  F2  UNL     1      20.718  -1.996  54.329  1.00  0.00    -0.171 F 
HETATM   21  F3  UNL     1      21.491  -0.080  55.262  1.00  0.00    -0.171 F 
ENDBRANCH  17  18
ENDBRANCH  16  17
ENDBRANCH   5  16
TORSDOF 6
ENDMDL
MODEL 2
REMARK VINA RESULT:      -7.2      3.667      4.586
REMARK  6 active torsions:
REMARK  status: ('A' for Active; 'I' for Inactive)
REMARK    1  A    between atoms: C1_2  and  C2_3 
REMARK       I    between atoms: C1_2  and  N1_8 
REMARK    2  A    between atoms: C3_4  and  C4_5 
REMARK    3  A    between atoms: N1_8  and  C6_9 
REMARK    4  A    between atoms: C10_13  and  C11_14 
REMARK    5  A    between atoms: C11_14  and  C12_15 
REMARK    6  A    between atoms: C12_15  and  C13_16 
ROOT
HETATM    1  C6  UNL     1      25.566   2.508  51.713  1.00  0.00     0.035 A 
HETATM    2  C7  UNL     1      26.541   1.682  52.195  1.00  0.00     0.029 A 
HETATM    3  C8  UNL     1      26.312   0.509  52.882  1.00  0.00     0.003 A 
HETATM    4  C9  UNL     1      25.023   0.101  53.123  1.00  0.00     0.007 A 
HETATM    5  C10 UNL     1      24.011   0.910  52.651  1.00  0.00    -0.056 A 
HETATM    6  C14 UNL     1      24.285   2.071  51.970  1.00  0.00     0.036 A 
ENDROOT
BRANCH   1   7
HETATM    7  N1  UNL     1      25.735   3.719  51.003  1.00  0.00    -0.324 N 
HETATM    8  C1  UNL     1      26.281   3.943  49.718  1.00  0.00     0.245 C 
HETATM    9  O1  UNL     1      26.686   2.935  49.089  1.00  0.00    -0.268 OA
HETATM   10  H5  UNL     1      25.419   4.600  51.470  1.00  0.00     0.169 HD
BRANCH   8  11
HETATM   11  C2  UNL     1      26.371   5.277  49.151  1.00  0.00     0.074 C 
HETATM   12  C3  UNL     1      27.439   5.781  48.580  1.00  0.00     0.003 C 
BRANCH  12  13
HETATM   13  C4  UNL     1      28.807   5.460  48.238  1.00  0.00    -0.009 C 
HETATM   14  C5  UNL     1      29.972   6.053  48.227  1.00  0.00     0.206 C 
HETATM   15 BR1  UNL     1      31.461   5.025  47.634  1.00  0.00    -0.193 Br
ENDBRANCH  12  13
ENDBRANCH   8  11
ENDBRANCH   1   7
BRANCH   5  16
HETATM   16  C11 UNL     1      22.607   0.492  52.898  1.00  0.00     0.047 C 
BRANCH  16  17
HETATM   17  C12 UNL     1      22.597  -0.933  53.389  1.00  0.00     0.122 C 
BRANCH  17  18
HETATM   18  C13 UNL     1      21.923  -0.989  54.756  1.00  0.00     0.388 C 
HETATM   19  F1  UNL     1      20.980  -2.015  54.716  1.00  0.00    -0.171 F 
HETATM   20  F2  UNL     1      21.339   0.224  55.058  1.00  0.00    -0.171 F 
HETATM   21  F3  UNL     1      22.820  -1.351  55.737  1.00  0.00    -0.171 F 
ENDBRANCH  17  18
ENDBRANCH  16  17
ENDBRANCH   5  16
TORSDOF 6
ENDMDL
MODEL 3
REMARK VINA RESULT:      -6.9      4.482      6.021
REMARK  6 active torsions:
REMARK  status: ('A' for Active; 'I' for Inactive)
REMARK    1  A    between atoms: C1_2  and  C2_3 
REMARK       I    between atoms: C1_2  and  N1_8 
REMARK    2  A    between atoms: C3_4  and  C4_5 
REMARK    3  A    between atoms: N1_8  and  C6_9 
REMARK    4  A    between atoms: C10_13  and  C11_14 
REMARK    5  A    between atoms: C11_14  and  C12_15 
REMARK    6  A    between atoms: C12_15  and  C13_16 
ROOT
HETATM    1  C6  UNL     1      24.677   2.777  51.800  1.00  0.00     0.035 A 
HETATM    2  C7  UNL     1      23.652   2.212  52.505  1.00  0.00     0.029 A 
HETATM    3  C8  UNL     1      23.689   0.961  53.082  1.00  0.00     0.003 A 
HETATM    4  C9  UNL     1      24.819   0.189  52.966  1.00  0.00     0.007 A 
HETATM    5  C10 UNL     1      25.875   0.727  52.261  1.00  0.00    -0.056 A 
HETATM    6  C14 UNL     1      25.796   1.979  51.702  1.00  0.00     0.036 A 
ENDROOT
BRANCH   1   7
HETATM    7  N1  UNL     1      24.701   4.051  51.187  1.00  0.00    -0.324 N 
HETATM    8  C1  UNL     1      24.341   4.427  49.872  1.00  0.00     0.245 C 
HETATM    9  O1  UNL     1      23.935   3.514  49.111  1.00  0.00    -0.268 OA
HETATM   10  H5  UNL     1      25.030   4.859  51.765  1.00  0.00     0.169 HD
BRANCH   8  11
HETATM   11  C2  UNL     1      24.436   5.804  49.421  1.00  0.00     0.074 C 
HETATM   12  C3  UNL     1      25.527   6.371  48.964  1.00  0.00     0.003 C 
BRANCH  12  13
HETATM   13  C4  UNL     1      26.921   6.105  48.689  1.00  0.00    -0.009 C 
HETATM   14  C5  UNL     1      27.706   5.068  48.561  1.00  0.00     0.206 C 
HETATM   15 BR1  UNL     1      29.540   5.413  48.177  1.00  0.00    -0.193 Br
ENDBRANCH  12  13
ENDBRANCH   8  11
ENDBRANCH   1   7
BRANCH   5  16
HETATM   16  C11 UNL     1      27.110  -0.086  52.120  1.00  0.00     0.047 C 
BRANCH  16  17
HETATM   17  C12 UNL     1      27.580  -0.509  53.488  1.00  0.00     0.122 C 
BRANCH  17  18
HETATM   18  C13 UNL     1      28.890   0.202  53.812  1.00  0.00     0.388 C 
HETATM   19  F1  UNL     1      29.930  -0.644  53.430  1.00  0.00    -0.171 F 
HETATM   20  F2  UNL     1      28.955   0.510  55.155  1.00  0.00    -0.171 F 
HETATM   21  F3  UNL     1      29.039   1.339  53.048  1.00  0.00    -0.171 F 
ENDBRANCH  17  18
ENDBRANCH  16  17
ENDBRANCH   5  16
TORSDOF 6
ENDMDL
MODEL 4
REMARK VINA RESULT:      -6.9      3.772      5.153
REMARK  6 active torsions:
REMARK  status: ('A' for Active; 'I' for Inactive)
REMARK    1  A    between atoms: C1_2  and  C2_3 
REMARK       I    between atoms: C1_2  and  N1_8 
REMARK    2  A    between atoms: C3_4  and  C4_5 
REMARK    3  A    between atoms: N1_8  and  C6_9 
REMARK    4  A    between atoms: C10_13  and  C11_14 
REMARK    5  A    between atoms: C11_14  and  C12_15 
REMARK    6  A    between atoms: C12_15  and  C13_16 
ROOT
HETATM    1  C6  UNL     1      26.276   1.937  51.768  1.00  0.00     0.035 A 
HETATM    2  C7  UNL     1      27.031   0.869  52.161  1.00  0.00     0.029 A 
HETATM    3  C8  UNL     1      26.551  -0.223  52.851  1.00  0.00     0.003 A 
HETATM    4  C9  UNL     1      25.222  -0.285  53.190  1.00  0.00     0.007 A 
HETATM    5  C10 UNL     1      24.428   0.776  52.809  1.00  0.00    -0.056 A 
HETATM    6  C14 UNL     1      24.948   1.845  52.121  1.00  0.00     0.036 A 
ENDROOT
BRANCH   1   7
HETATM    7  N1  UNL     1      26.707   3.083  51.060  1.00  0.00    -0.324 N 
HETATM    8  C1  UNL     1      26.242   3.615  49.834  1.00  0.00     0.245 C 
HETATM    9  O1  UNL     1      25.308   2.999  49.266  1.00  0.00    -0.268 OA
HETATM   10  H5  UNL     1      27.485   3.645  51.478  1.00  0.00     0.169 HD
BRANCH   8  11
HETATM   11  C2  UNL     1      26.818   4.818  49.260  1.00  0.00     0.074 C 
HETATM   12  C3  UNL     1      26.197   5.967  49.144  1.00  0.00     0.003 C 
BRANCH  12  13
HETATM   13  C4  UNL     1      24.932   6.612  49.418  1.00  0.00    -0.009 C 
HETATM   14  C5  UNL     1      24.131   6.790  50.435  1.00  0.00     0.206 C 
HETATM   15 BR1  UNL     1      22.537   7.782  50.118  1.00  0.00    -0.193 Br
ENDBRANCH  12  13
ENDBRANCH   8  11
ENDBRANCH   1   7
BRANCH   5  16
HETATM   16  C11 UNL     1      22.986   0.734  53.162  1.00  0.00     0.047 C 
BRANCH  16  17
HETATM   17  C12 UNL     1      22.566  -0.702  53.350  1.00  0.00     0.122 C 
BRANCH  17  18
HETATM   18  C13 UNL     1      21.913  -0.860  54.719  1.00  0.00     0.388 C 
HETATM   19  F1  UNL     1      21.019  -1.926  54.636  1.00  0.00    -0.171 F 
HETATM   20  F2  UNL     1      21.277   0.308  55.090  1.00  0.00    -0.171 F 
HETATM   21  F3  UNL     1      22.839  -1.228  55.670  1.00  0.00    -0.171 F 
ENDBRANCH  17  18
ENDBRANCH  16  17
ENDBRANCH   5  16
TORSDOF 6
ENDMDL
MODEL 5
REMARK VINA RESULT:      -6.8      4.673      7.185
REMARK  6 active torsions:
REMARK  status: ('A' for Active; 'I' for Inactive)
REMARK    1  A    between atoms: C1_2  and  C2_3 
REMARK       I    between atoms: C1_2  and  N1_8 
REMARK    2  A    between atoms: C3_4  and  C4_5 
REMARK    3  A    between atoms: N1_8  and  C6_9 
REMARK    4  A    between atoms: C10_13  and  C11_14 
REMARK    5  A    between atoms: C11_14  and  C12_15 
REMARK    6  A    between atoms: C12_15  and  C13_16 
ROOT
HETATM    1  C6  UNL     1      23.090   0.518  52.942  1.00  0.00     0.035 A 
HETATM    2  C7  UNL     1      23.428   1.842  52.913  1.00  0.00     0.029 A 
HETATM    3  C8  UNL     1      24.709   2.330  53.042  1.00  0.00     0.003 A 
HETATM    4  C9  UNL     1      25.757   1.460  53.217  1.00  0.00     0.007 A 
HETATM    5  C10 UNL     1      25.454   0.114  53.252  1.00  0.00    -0.056 A 
HETATM    6  C14 UNL     1      24.161  -0.330  53.118  1.00  0.00     0.036 A 
ENDROOT
BRANCH   1   7
HETATM    7  N1  UNL     1      21.799  -0.045  52.815  1.00  0.00    -0.324 N 
HETATM    8  C1  UNL     1      20.780  -0.196  53.784  1.00  0.00     0.245 C 
HETATM    9  O1  UNL     1      21.030   0.222  54.941  1.00  0.00    -0.268 OA
HETATM   10  H5  UNL     1      21.524  -0.414  51.875  1.00  0.00     0.169 HD
BRANCH   8  11
HETATM   11  C2  UNL     1      19.504  -0.807  53.458  1.00  0.00     0.074 C 
HETATM   12  C3  UNL     1      18.711  -0.419  52.487  1.00  0.00     0.003 C 
BRANCH  12  13
HETATM   13  C4  UNL     1      18.601   0.559  51.428  1.00  0.00    -0.009 C 
HETATM   14  C5  UNL     1      19.293   0.954  50.392  1.00  0.00     0.206 C 
HETATM   15 BR1  UNL     1      18.555   2.364  49.345  1.00  0.00    -0.193 Br
ENDBRANCH  12  13
ENDBRANCH   8  11
ENDBRANCH   1   7
BRANCH   5  16
HETATM   16  C11 UNL     1      26.569  -0.850  53.439  1.00  0.00     0.047 C 
BRANCH  16  17
HETATM   17  C12 UNL     1      27.829  -0.265  52.854  1.00  0.00     0.122 C 
BRANCH  17  18
HETATM   18  C13 UNL     1      29.000  -0.564  53.785  1.00  0.00     0.388 C 
HETATM   19  F1  UNL     1      29.338  -1.905  53.616  1.00  0.00    -0.171 F 
HETATM   20  F2  UNL     1      28.661  -0.288  55.094  1.00  0.00    -0.171 F 
HETATM   21  F3  UNL     1      30.120   0.148  53.416  1.00  0.00    -0.171 F 
ENDBRANCH  17  18
ENDBRANCH  16  17
ENDBRANCH   5  16
TORSDOF 6
ENDMDL
MODEL 6
REMARK VINA RESULT:      -6.7      5.149      6.749
REMARK  6 active torsions:
REMARK  status: ('A' for Active; 'I' for Inactive)
REMARK    1  A    between atoms: C1_2  and  C2_3 
REMARK       I    between atoms: C1_2  and  N1_8 
REMARK    2  A    between atoms: C3_4  and  C4_5 
REMARK    3  A    between atoms: N1_8  and  C6_9 
REMARK    4  A    between atoms: C10_13  and  C11_14 
REMARK    5  A    between atoms: C11_14  and  C12_15 
REMARK    6  A    between atoms: C12_15  and  C13_16 
ROOT
HETATM    1  C6  UNL     1      26.210   2.431  51.711  1.00  0.00     0.035 A 
HETATM    2  C7  UNL     1      24.990   2.524  52.318  1.00  0.00     0.029 A 
HETATM    3  C8  UNL     1      24.443   1.562  53.138  1.00  0.00     0.003 A 
HETATM    4  C9  UNL     1      25.139   0.406  53.393  1.00  0.00     0.007 A 
HETATM    5  C10 UNL     1      26.377   0.276  52.798  1.00  0.00    -0.056 A 
HETATM    6  C14 UNL     1      26.885   1.262  51.987  1.00  0.00     0.036 A 
ENDROOT
BRANCH   1   7
HETATM    7  N1  UNL     1      26.826   3.380  50.863  1.00  0.00    -0.324 N 
HETATM    8  C1  UNL     1      26.421   3.852  49.592  1.00  0.00     0.245 C 
HETATM    9  O1  UNL     1      25.360   3.374  49.121  1.00  0.00    -0.268 OA
HETATM   10  H5  UNL     1      27.717   3.818  51.195  1.00  0.00     0.169 HD
BRANCH   8  11
HETATM   11  C2  UNL     1      27.196   4.842  48.866  1.00  0.00     0.074 C 
HETATM   12  C3  UNL     1      26.777   6.046  48.558  1.00  0.00     0.003 C 
BRANCH  12  13
HETATM   13  C4  UNL     1      25.634   6.923  48.686  1.00  0.00    -0.009 C 
HETATM   14  C5  UNL     1      25.332   8.170  48.441  1.00  0.00     0.206 C 
HETATM   15 BR1  UNL     1      23.561   8.731  48.859  1.00  0.00    -0.193 Br
ENDBRANCH  12  13
ENDBRANCH   8  11
ENDBRANCH   1   7
BRANCH   5  16
HETATM   16  C11 UNL     1      27.152  -0.964  53.057  1.00  0.00     0.047 C 
BRANCH  16  17
HETATM   17  C12 UNL     1      28.304  -0.642  53.974  1.00  0.00     0.122 C 
BRANCH  17  18
HETATM   18  C13 UNL     1      29.573  -1.293  53.435  1.00  0.00     0.388 C 
HETATM   19  F1  UNL     1      30.416  -1.529  54.519  1.00  0.00    -0.171 F 
HETATM   20  F2  UNL     1      30.173  -0.481  52.494  1.00  0.00    -0.171 F 
HETATM   21  F3  UNL     1      29.304  -2.534  52.899  1.00  0.00    -0.171 F 
ENDBRANCH  17  18
ENDBRANCH  16  17
ENDBRANCH   5  16
TORSDOF 6
ENDMDL
MODEL 7
REMARK VINA RESULT:      -6.6      3.729      5.801
REMARK  6 active torsions:
REMARK  status: ('A' for Active; 'I' for Inactive)
REMARK    1  A    between atoms: C1_2  and  C2_3 
REMARK       I    between atoms: C1_2  and  N1_8 
REMARK    2  A    between atoms: C3_4  and  C4_5 
REMARK    3  A    between atoms: N1_8  and  C6_9 
REMARK    4  A    between atoms: C10_13  and  C11_14 
REMARK    5  A    between atoms: C11_14  and  C12_15 
REMARK    6  A    between atoms: C12_15  and  C13_16 
ROOT
HETATM    1  C6  UNL     1      22.246   0.542  52.462  1.00  0.00     0.035 A 
HETATM    2  C7  UNL     1      21.272  -0.060  53.208  1.00  0.00     0.029 A 
HETATM    3  C8  UNL     1      21.503  -0.854  54.310  1.00  0.00     0.003 A 
HETATM    4  C9  UNL     1      22.791  -1.086  54.726  1.00  0.00     0.007 A 
HETATM    5  C10 UNL     1      23.801  -0.495  53.997  1.00  0.00    -0.056 A 
HETATM    6  C14 UNL     1      23.526   0.291  52.904  1.00  0.00     0.036 A 
ENDROOT
BRANCH   1   7
HETATM    7  N1  UNL     1      22.075   1.365  51.325  1.00  0.00    -0.324 N 
HETATM    8  C1  UNL     1      21.617   2.701  51.238  1.00  0.00     0.245 C 
HETATM    9  O1  UNL     1      21.307   3.266  52.315  1.00  0.00    -0.268 OA
HETATM   10  H5  UNL     1      22.315   0.956  50.392  1.00  0.00     0.169 HD
BRANCH   8  11
HETATM   11  C2  UNL     1      21.509   3.387  49.963  1.00  0.00     0.074 C 
HETATM   12  C3  UNL     1      22.525   3.804  49.246  1.00  0.00     0.003 C 
BRANCH  12  13
HETATM   13  C4  UNL     1      23.970   3.851  49.236  1.00  0.00    -0.009 C 
HETATM   14  C5  UNL     1      24.938   4.192  50.046  1.00  0.00     0.206 C 
HETATM   15 BR1  UNL     1      26.717   4.009  49.393  1.00  0.00    -0.193 Br
ENDBRANCH  12  13
ENDBRANCH   8  11
ENDBRANCH   1   7
BRANCH   5  16
HETATM   16  C11 UNL     1      25.204  -0.729  54.425  1.00  0.00     0.047 C 
BRANCH  16  17
HETATM   17  C12 UNL     1      26.116   0.183  53.645  1.00  0.00     0.122 C 
BRANCH  17  18
HETATM   18  C13 UNL     1      26.915  -0.643  52.643  1.00  0.00     0.388 C 
HETATM   19  F1  UNL     1      28.254  -0.589  53.029  1.00  0.00    -0.171 F 
HETATM   20  F2  UNL     1      26.737  -0.158  51.363  1.00  0.00    -0.171 F 
HETATM   21  F3  UNL     1      26.566  -1.975  52.708  1.00  0.00    -0.171 F 
ENDBRANCH  17  18
ENDBRANCH  16  17
ENDBRANCH   5  16
TORSDOF 6
ENDMDL
MODEL 8
REMARK VINA RESULT:      -6.3      5.185      6.715
REMARK  6 active torsions:
REMARK  status: ('A' for Active; 'I' for Inactive)
REMARK    1  A    between atoms: C1_2  and  C2_3 
REMARK       I    between atoms: C1_2  and  N1_8 
REMARK    2  A    between atoms: C3_4  and  C4_5 
REMARK    3  A    between atoms: N1_8  and  C6_9 
REMARK    4  A    between atoms: C10_13  and  C11_14 
REMARK    5  A    between atoms: C11_14  and  C12_15 
REMARK    6  A    between atoms: C12_15  and  C13_16 
ROOT
HETATM    1  C6  UNL     1      26.090   4.176  49.538  1.00  0.00     0.035 A 
HETATM    2  C7  UNL     1      27.348   4.388  49.050  1.00  0.00     0.029 A 
HETATM    3  C8  UNL     1      27.760   5.534  48.405  1.00  0.00     0.003 A 
HETATM    4  C9  UNL     1      26.874   6.566  48.215  1.00  0.00     0.007 A 
HETATM    5  C10 UNL     1      25.593   6.388  48.694  1.00  0.00    -0.056 A 
HETATM    6  C14 UNL     1      25.225   5.229  49.333  1.00  0.00     0.036 A 
ENDROOT
BRANCH   1   7
HETATM    7  N1  UNL     1      25.606   3.028  50.207  1.00  0.00    -0.324 N 
HETATM    8  C1  UNL     1      26.191   2.283  51.258  1.00  0.00     0.245 C 
HETATM    9  O1  UNL     1      27.306   2.675  51.681  1.00  0.00    -0.268 OA
HETATM   10  H5  UNL     1      24.680   2.646  49.904  1.00  0.00     0.169 HD
BRANCH   8  11
HETATM   11  C2  UNL     1      25.532   1.118  51.822  1.00  0.00     0.074 C 
HETATM   12  C3  UNL     1      26.145   0.124  52.419  1.00  0.00     0.003 C 
BRANCH  12  13
HETATM   13  C4  UNL     1      27.461  -0.342  52.797  1.00  0.00    -0.009 C 
HETATM   14  C5  UNL     1      28.387  -0.038  53.668  1.00  0.00     0.206 C 
HETATM   15 BR1  UNL     1      29.972  -1.093  53.649  1.00  0.00    -0.193 Br
ENDBRANCH  12  13
ENDBRANCH   8  11
ENDBRANCH   1   7
BRANCH   5  16
HETATM   16  C11 UNL     1      24.614   7.489  48.502  1.00  0.00     0.047 C 
BRANCH  16  17
HETATM   17  C12 UNL     1      23.283   7.069  49.070  1.00  0.00     0.122 C 
BRANCH  17  18
HETATM   18  C13 UNL     1      22.878   8.040  50.173  1.00  0.00     0.388 C 
HETATM   19  F1  UNL     1      22.457   9.219  49.560  1.00  0.00    -0.171 F 
HETATM   20  F2  UNL     1      23.934   8.265  51.033  1.00  0.00    -0.171 F 
HETATM   21  F3  UNL     1      21.782   7.574  50.867  1.00  0.00    -0.171 F 
ENDBRANCH  17  18
ENDBRANCH  16  17
ENDBRANCH   5  16
TORSDOF 6
ENDMDL
MODEL 9
REMARK VINA RESULT:      -6.2      4.168      6.210
REMARK  6 active torsions:
REMARK  status: ('A' for Active; 'I' for Inactive)
REMARK    1  A    between atoms: C1_2  and  C2_3 
REMARK       I    between atoms: C1_2  and  N1_8 
REMARK    2  A    between atoms: C3_4  and  C4_5 
REMARK    3  A    between atoms: N1_8  and  C6_9 
REMARK    4  A    between atoms: C10_13  and  C11_14 
REMARK    5  A    between atoms: C11_14  and  C12_15 
REMARK    6  A    between atoms: C12_15  and  C13_16 
ROOT
HETATM    1  C6  UNL     1      22.994   0.888  52.571  1.00  0.00     0.035 A 
HETATM    2  C7  UNL     1      22.227   0.199  53.467  1.00  0.00     0.029 A 
HETATM    3  C8  UNL     1      22.715  -0.680  54.410  1.00  0.00     0.003 A 
HETATM    4  C9  UNL     1      24.066  -0.912  54.492  1.00  0.00     0.007 A 
HETATM    5  C10 UNL     1      24.873  -0.234  53.603  1.00  0.00    -0.056 A 
HETATM    6  C14 UNL     1      24.344   0.634  52.679  1.00  0.00     0.036 A 
ENDROOT
BRANCH   1   7
HETATM    7  N1  UNL     1      22.556   1.800  51.584  1.00  0.00    -0.324 N 
HETATM    8  C1  UNL     1      21.826   1.563  50.396  1.00  0.00     0.245 C 
HETATM    9  O1  UNL     1      21.505   0.374  50.154  1.00  0.00    -0.268 OA
HETATM   10  H5  UNL     1      22.790   2.811  51.723  1.00  0.00     0.169 HD
BRANCH   8  11
HETATM   11  C2  UNL     1      21.464   2.644  49.497  1.00  0.00     0.074 C 
HETATM   12  C3  UNL     1      22.291   3.561  49.053  1.00  0.00     0.003 C 
BRANCH  12  13
HETATM   13  C4  UNL     1      23.672   3.985  49.131  1.00  0.00    -0.009 C 
HETATM   14  C5  UNL     1      24.844   3.446  49.336  1.00  0.00     0.206 C 
HETATM   15 BR1  UNL     1      26.349   4.613  49.312  1.00  0.00    -0.193 Br
ENDBRANCH  12  13
ENDBRANCH   8  11
ENDBRANCH   1   7
BRANCH   5  16
HETATM   16  C11 UNL     1      26.338  -0.465  53.669  1.00  0.00     0.047 C 
BRANCH  16  17
HETATM   17  C12 UNL     1      26.992   0.707  54.355  1.00  0.00     0.122 C 
BRANCH  17  18
HETATM   18  C13 UNL     1      27.980   1.363  53.395  1.00  0.00     0.388 C 
HETATM   19  F1  UNL     1      29.122   0.565  53.361  1.00  0.00    -0.171 F 
HETATM   20  F2  UNL     1      28.271   2.649  53.804  1.00  0.00    -0.171 F 
HETATM   21  F3  UNL     1      27.492   1.365  52.107  1.00  0.00    -0.171 F 
ENDBRANCH  17  18
ENDBRANCH  16  17
ENDBRANCH   5  16
TORSDOF 6
ENDMDL
