MODEL 1
REMARK VINA RESULT:      -8.0      0.000      0.000
REMARK  7 active torsions:
REMARK  status: ('A' for Active; 'I' for Inactive)
REMARK    1  A    between atoms: C2_2  and  C3_3 
REMARK    2  A    between atoms: C3_3  and  C4_4 
REMARK    3  A    between atoms: C4_4  and  C5_5 
REMARK    4  A    between atoms: C6_6  and  O1_7 
REMARK    5  A    between atoms: C8_9  and  C9_10 
REMARK    6  A    between atoms: C9_10  and  N1_11 
REMARK    7  A    between atoms: N2_14  and  C11_15 
ROOT
HETATM    1  C5  UNL     1      26.706   0.728  53.850  1.00  0.00     0.043 A 
HETATM    2  C6  UNL     1      25.847   1.614  53.375  1.00  0.00     0.098 A 
HETATM    3  C7  UNL     1      24.430   1.342  53.168  1.00  0.00    -0.002 A 
HETATM    4  C8  UNL     1      23.564   2.219  52.694  1.00  0.00     0.009 C 
HETATM    5  C17 UNL     1      23.962   0.006  53.513  1.00  0.00     0.031 A 
HETATM    6  C18 UNL     1      24.859  -0.844  53.983  1.00  0.00     0.089 A 
HETATM    7  N3  UNL     1      26.238  -0.558  54.179  1.00  0.00    -0.367 N 
HETATM    8  H21 UNL     1      26.877  -1.290  54.556  1.00  0.00     0.165 HD
ENDROOT
BRANCH   2   9
HETATM    9  O1  UNL     1      26.361   2.855  53.071  1.00  0.00    -0.358 OA
HETATM   10  H10 UNL     1      26.525   3.232  52.166  1.00  0.00     0.217 HD
ENDBRANCH   2   9
BRANCH   4  11
HETATM   11  C9  UNL     1      23.579   3.602  52.237  1.00  0.00     0.180 C 
BRANCH  11  12
HETATM   12  N1  UNL     1      23.858   3.648  50.811  1.00  0.00    -0.253 N 
HETATM   13  C10 UNL     1      23.549   3.270  49.447  1.00  0.00     0.216 A 
HETATM   14  S1  UNL     1      22.506   2.400  48.540  1.00  0.00    -0.037 SA
HETATM   15  N2  UNL     1      24.666   4.123  49.738  1.00  0.00    -0.224 N 
BRANCH  15  16
HETATM   16  C11 UNL     1      25.754   4.862  49.195  1.00  0.00     0.059 A 
HETATM   17  C12 UNL     1      26.983   4.250  49.118  1.00  0.00     0.031 A 
HETATM   18  C13 UNL     1      28.047   4.970  48.587  1.00  0.00     0.002 A 
HETATM   19  C14 UNL     1      27.809   6.257  48.168  1.00  0.00     0.000 A 
HETATM   20  C15 UNL     1      26.570   6.905  48.234  1.00  0.00     0.002 A 
HETATM   21  C16 UNL     1      25.543   6.154  48.767  1.00  0.00     0.031 A 
ENDBRANCH  15  16
ENDBRANCH  11  12
ENDBRANCH   4  11
BRANCH   1  22
HETATM   22  C4  UNL     1      28.136   1.005  54.059  1.00  0.00     0.060 C 
BRANCH  22  23
HETATM   23  C3  UNL     1      28.900  -0.167  54.578  1.00  0.00     0.006 C 
BRANCH  23  24
HETATM   24  C2  UNL     1      29.818  -0.718  53.508  1.00  0.00    -0.004 C 
HETATM   25  C1  UNL     1      29.362  -2.151  53.268  1.00  0.00     0.005 C 
ENDBRANCH  23  24
ENDBRANCH  22  23
ENDBRANCH   1  22
TORSDOF 7
ENDMDL
MODEL 2
REMARK VINA RESULT:      -7.6      2.179      6.449
REMARK  7 active torsions:
REMARK  status: ('A' for Active; 'I' for Inactive)
REMARK    1  A    between atoms: C2_2  and  C3_3 
REMARK    2  A    between atoms: C3_3  and  C4_4 
REMARK    3  A    between atoms: C4_4  and  C5_5 
REMARK    4  A    between atoms: C6_6  and  O1_7 
REMARK    5  A    between atoms: C8_9  and  C9_10 
REMARK    6  A    between atoms: C9_10  and  N1_11 
REMARK    7  A    between atoms: N2_14  and  C11_15 
ROOT
HETATM    1  C5  UNL     1      25.755   5.269  49.861  1.00  0.00     0.043 A 
HETATM    2  C6  UNL     1      25.112   4.179  50.243  1.00  0.00     0.098 A 
HETATM    3  C7  UNL     1      24.001   4.180  51.187  1.00  0.00    -0.002 A 
HETATM    4  C8  UNL     1      23.352   3.097  51.575  1.00  0.00     0.009 C 
HETATM    5  C17 UNL     1      23.598   5.473  51.724  1.00  0.00     0.031 A 
HETATM    6  C18 UNL     1      24.272   6.533  51.312  1.00  0.00     0.089 A 
HETATM    7  N3  UNL     1      25.354   6.510  50.389  1.00  0.00    -0.367 N 
HETATM    8  H21 UNL     1      25.829   7.397  50.118  1.00  0.00     0.165 HD
ENDROOT
BRANCH   2   9
HETATM    9  O1  UNL     1      25.547   2.993  49.694  1.00  0.00    -0.358 OA
HETATM   10  H10 UNL     1      26.110   2.879  48.882  1.00  0.00     0.217 HD
ENDBRANCH   2   9
BRANCH   4  11
HETATM   11  C9  UNL     1      23.404   1.665  51.316  1.00  0.00     0.180 C 
BRANCH  11  12
HETATM   12  N1  UNL     1      24.026   0.982  52.439  1.00  0.00    -0.253 N 
HETATM   13  C10 UNL     1      23.962   0.054  53.550  1.00  0.00     0.216 A 
HETATM   14  S1  UNL     1      22.961  -0.964  54.342  1.00  0.00    -0.037 SA
HETATM   15  N2  UNL     1      25.178   0.754  53.246  1.00  0.00    -0.224 N 
BRANCH  15  16
HETATM   16  C11 UNL     1      26.536   0.963  53.611  1.00  0.00     0.059 A 
HETATM   17  C12 UNL     1      27.164  -0.001  54.365  1.00  0.00     0.031 A 
HETATM   18  C13 UNL     1      28.492   0.201  54.723  1.00  0.00     0.002 A 
HETATM   19  C14 UNL     1      29.104   1.358  54.302  1.00  0.00     0.000 A 
HETATM   20  C15 UNL     1      28.491   2.355  53.536  1.00  0.00     0.002 A 
HETATM   21  C16 UNL     1      27.174   2.114  53.203  1.00  0.00     0.031 A 
ENDBRANCH  15  16
ENDBRANCH  11  12
ENDBRANCH   4  11
BRANCH   1  22
HETATM   22  C4  UNL     1      26.876   5.267  48.907  1.00  0.00     0.060 C 
BRANCH  22  23
HETATM   23  C3  UNL     1      27.075   6.575  48.219  1.00  0.00     0.006 C 
BRANCH  23  24
HETATM   24  C2  UNL     1      28.543   6.808  47.935  1.00  0.00    -0.004 C 
HETATM   25  C1  UNL     1      29.232   5.473  48.187  1.00  0.00     0.005 C 
ENDBRANCH  23  24
ENDBRANCH  22  23
ENDBRANCH   1  22
TORSDOF 7
ENDMDL
MODEL 3
REMARK VINA RESULT:      -7.5      4.037      7.047
REMARK  7 active torsions:
REMARK  status: ('A' for Active; 'I' for Inactive)
REMARK    1  A    between atoms: C2_2  and  C3_3 
REMARK    2  A    between atoms: C3_3  and  C4_4 
REMARK    3  A    between atoms: C4_4  and  C5_5 
REMARK    4  A    between atoms: C6_6  and  O1_7 
REMARK    5  A    between atoms: C8_9  and  C9_10 
REMARK    6  A    between atoms: C9_10  and  N1_11 
REMARK    7  A    between atoms: N2_14  and  C11_15 
ROOT
HETATM    1  C5  UNL     1      19.870  -0.406  52.950  1.00  0.00     0.043 A 
HETATM    2  C6  UNL     1      20.885   0.287  52.462  1.00  0.00     0.098 A 
HETATM    3  C7  UNL     1      22.234   0.251  53.015  1.00  0.00    -0.002 A 
HETATM    4  C8  UNL     1      23.254   0.939  52.535  1.00  0.00     0.009 C 
HETATM    5  C17 UNL     1      22.445  -0.608  54.173  1.00  0.00     0.031 A 
HETATM    6  C18 UNL     1      21.399  -1.279  54.624  1.00  0.00     0.089 A 
HETATM    7  N3  UNL     1      20.090  -1.230  54.069  1.00  0.00    -0.367 N 
HETATM    8  H21 UNL     1      19.322  -1.795  54.490  1.00  0.00     0.165 HD
ENDROOT
BRANCH   2   9
HETATM    9  O1  UNL     1      20.612   1.075  51.367  1.00  0.00    -0.358 OA
HETATM   10  H10 UNL     1      20.957   0.958  50.441  1.00  0.00     0.217 HD
ENDBRANCH   2   9
BRANCH   4  11
HETATM   11  C9  UNL     1      23.500   1.876  51.449  1.00  0.00     0.180 C 
BRANCH  11  12
HETATM   12  N1  UNL     1      24.928   2.116  51.317  1.00  0.00    -0.253 N 
HETATM   13  C10 UNL     1      26.045   2.814  50.713  1.00  0.00     0.216 A 
HETATM   14  S1  UNL     1      26.424   3.962  49.615  1.00  0.00    -0.037 SA
HETATM   15  N2  UNL     1      26.261   1.809  51.714  1.00  0.00    -0.224 N 
BRANCH  15  16
HETATM   16  C11 UNL     1      27.229   1.100  52.478  1.00  0.00     0.059 A 
HETATM   17  C12 UNL     1      28.195   1.823  53.138  1.00  0.00     0.031 A 
HETATM   18  C13 UNL     1      29.142   1.132  53.886  1.00  0.00     0.002 A 
HETATM   19  C14 UNL     1      29.059  -0.239  53.922  1.00  0.00     0.000 A 
HETATM   20  C15 UNL     1      28.089  -1.001  53.261  1.00  0.00     0.002 A 
HETATM   21  C16 UNL     1      27.170  -0.275  52.531  1.00  0.00     0.031 A 
ENDBRANCH  15  16
ENDBRANCH  11  12
ENDBRANCH   4  11
BRANCH   1  22
HETATM   22  C4  UNL     1      18.509  -0.369  52.390  1.00  0.00     0.060 C 
BRANCH  22  23
HETATM   23  C3  UNL     1      17.518  -1.154  53.182  1.00  0.00     0.006 C 
BRANCH  23  24
HETATM   24  C2  UNL     1      16.310  -1.491  52.335  1.00  0.00    -0.004 C 
HETATM   25  C1  UNL     1      16.005  -0.235  51.529  1.00  0.00     0.005 C 
ENDBRANCH  23  24
ENDBRANCH  22  23
ENDBRANCH   1  22
TORSDOF 7
ENDMDL
MODEL 4
REMARK VINA RESULT:      -7.5      1.471      2.086
REMARK  7 active torsions:
REMARK  status: ('A' for Active; 'I' for Inactive)
REMARK    1  A    between atoms: C2_2  and  C3_3 
REMARK    2  A    between atoms: C3_3  and  C4_4 
REMARK    3  A    between atoms: C4_4  and  C5_5 
REMARK    4  A    between atoms: C6_6  and  O1_7 
REMARK    5  A    between atoms: C8_9  and  C9_10 
REMARK    6  A    between atoms: C9_10  and  N1_11 
REMARK    7  A    between atoms: N2_14  and  C11_15 
ROOT
HETATM    1  C5  UNL     1      25.143   1.320  53.396  1.00  0.00     0.043 A 
HETATM    2  C6  UNL     1      24.213   2.193  53.047  1.00  0.00     0.098 A 
HETATM    3  C7  UNL     1      22.847   1.827  52.693  1.00  0.00    -0.002 A 
HETATM    4  C8  UNL     1      21.911   2.691  52.343  1.00  0.00     0.009 C 
HETATM    5  C17 UNL     1      22.517   0.408  52.735  1.00  0.00     0.031 A 
HETATM    6  C18 UNL     1      23.481  -0.424  53.089  1.00  0.00     0.089 A 
HETATM    7  N3  UNL     1      24.808  -0.046  53.431  1.00  0.00    -0.367 N 
HETATM    8  H21 UNL     1      25.507  -0.771  53.700  1.00  0.00     0.165 HD
ENDROOT
BRANCH   2   9
HETATM    9  O1  UNL     1      24.597   3.516  53.030  1.00  0.00    -0.358 OA
HETATM   10  H10 UNL     1      25.400   3.913  53.462  1.00  0.00     0.217 HD
ENDBRANCH   2   9
BRANCH   4  11
HETATM   11  C9  UNL     1      21.792   4.131  52.171  1.00  0.00     0.180 C 
BRANCH  11  12
HETATM   12  N1  UNL     1      22.251   4.510  50.844  1.00  0.00    -0.253 N 
HETATM   13  C10 UNL     1      21.987   4.966  49.495  1.00  0.00     0.216 A 
HETATM   14  S1  UNL     1      20.786   5.407  48.479  1.00  0.00    -0.037 SA
HETATM   15  N2  UNL     1      23.327   4.695  49.930  1.00  0.00    -0.224 N 
BRANCH  15  16
HETATM   16  C11 UNL     1      24.701   4.677  49.562  1.00  0.00     0.059 A 
HETATM   17  C12 UNL     1      25.252   5.826  49.045  1.00  0.00     0.031 A 
HETATM   18  C13 UNL     1      26.595   5.811  48.684  1.00  0.00     0.002 A 
HETATM   19  C14 UNL     1      27.298   4.644  48.867  1.00  0.00     0.000 A 
HETATM   20  C15 UNL     1      26.765   3.461  49.391  1.00  0.00     0.002 A 
HETATM   21  C16 UNL     1      25.430   3.521  49.734  1.00  0.00     0.031 A 
ENDBRANCH  15  16
ENDBRANCH  11  12
ENDBRANCH   4  11
BRANCH   1  22
HETATM   22  C4  UNL     1      26.522   1.692  53.753  1.00  0.00     0.060 C 
BRANCH  22  23
HETATM   23  C3  UNL     1      27.558   0.847  53.091  1.00  0.00     0.006 C 
BRANCH  23  24
HETATM   24  C2  UNL     1      28.884   0.973  53.808  1.00  0.00    -0.004 C 
HETATM   25  C1  UNL     1      29.596  -0.358  53.600  1.00  0.00     0.005 C 
ENDBRANCH  23  24
ENDBRANCH  22  23
ENDBRANCH   1  22
TORSDOF 7
ENDMDL
MODEL 5
REMARK VINA RESULT:      -7.4      2.689      5.841
REMARK  7 active torsions:
REMARK  status: ('A' for Active; 'I' for Inactive)
REMARK    1  A    between atoms: C2_2  and  C3_3 
REMARK    2  A    between atoms: C3_3  and  C4_4 
REMARK    3  A    between atoms: C4_4  and  C5_5 
REMARK    4  A    between atoms: C6_6  and  O1_7 
REMARK    5  A    between atoms: C8_9  and  C9_10 
REMARK    6  A    between atoms: C9_10  and  N1_11 
REMARK    7  A    between atoms: N2_14  and  C11_15 
ROOT
HETATM    1  C5  UNL     1      25.995   2.365  51.734  1.00  0.00     0.043 A 
HETATM    2  C6  UNL     1      24.876   3.027  51.975  1.00  0.00     0.098 A 
HETATM    3  C7  UNL     1      24.253   3.941  51.025  1.00  0.00    -0.002 A 
HETATM    4  C8  UNL     1      23.135   4.607  51.256  1.00  0.00     0.009 C 
HETATM    5  C17 UNL     1      24.925   4.115  49.744  1.00  0.00     0.031 A 
HETATM    6  C18 UNL     1      26.040   3.431  49.552  1.00  0.00     0.089 A 
HETATM    7  N3  UNL     1      26.632   2.544  50.492  1.00  0.00    -0.367 N 
HETATM    8  H21 UNL     1      27.516   2.044  50.255  1.00  0.00     0.165 HD
ENDROOT
BRANCH   2   9
HETATM    9  O1  UNL     1      24.297   2.812  53.205  1.00  0.00    -0.358 OA
HETATM   10  H10 UNL     1      23.950   1.952  53.564  1.00  0.00     0.217 HD
ENDBRANCH   2   9
BRANCH   4  11
HETATM   11  C9  UNL     1      22.170   4.739  52.337  1.00  0.00     0.180 C 
BRANCH  11  12
HETATM   12  N1  UNL     1      21.246   3.616  52.314  1.00  0.00    -0.253 N 
HETATM   13  C10 UNL     1      19.950   3.047  52.005  1.00  0.00     0.216 A 
HETATM   14  S1  UNL     1      18.485   3.407  51.379  1.00  0.00    -0.037 SA
HETATM   15  N2  UNL     1      20.982   2.245  52.597  1.00  0.00    -0.224 N 
BRANCH  15  16
HETATM   16  C11 UNL     1      21.335   0.954  53.081  1.00  0.00     0.059 A 
HETATM   17  C12 UNL     1      22.302   0.248  52.404  1.00  0.00     0.031 A 
HETATM   18  C13 UNL     1      22.649  -1.014  52.875  1.00  0.00     0.002 A 
HETATM   19  C14 UNL     1      22.004  -1.484  53.994  1.00  0.00     0.000 A 
HETATM   20  C15 UNL     1      21.018  -0.788  54.702  1.00  0.00     0.002 A 
HETATM   21  C16 UNL     1      20.704   0.458  54.200  1.00  0.00     0.031 A 
ENDBRANCH  15  16
ENDBRANCH  11  12
ENDBRANCH   4  11
BRANCH   1  22
HETATM   22  C4  UNL     1      26.623   1.442  52.693  1.00  0.00     0.060 C 
BRANCH  22  23
HETATM   23  C3  UNL     1      26.708   0.037  52.200  1.00  0.00     0.006 C 
BRANCH  23  24
HETATM   24  C2  UNL     1      26.349  -0.935  53.303  1.00  0.00    -0.004 C 
HETATM   25  C1  UNL     1      25.898  -0.080  54.480  1.00  0.00     0.005 C 
ENDBRANCH  23  24
ENDBRANCH  22  23
ENDBRANCH   1  22
TORSDOF 7
ENDMDL
MODEL 6
REMARK VINA RESULT:      -7.2      2.641      7.279
REMARK  7 active torsions:
REMARK  status: ('A' for Active; 'I' for Inactive)
REMARK    1  A    between atoms: C2_2  and  C3_3 
REMARK    2  A    between atoms: C3_3  and  C4_4 
REMARK    3  A    between atoms: C4_4  and  C5_5 
REMARK    4  A    between atoms: C6_6  and  O1_7 
REMARK    5  A    between atoms: C8_9  and  C9_10 
REMARK    6  A    between atoms: C9_10  and  N1_11 
REMARK    7  A    between atoms: N2_14  and  C11_15 
ROOT
HETATM    1  C5  UNL     1      24.746   5.758  50.730  1.00  0.00     0.043 A 
HETATM    2  C6  UNL     1      24.264   4.591  51.122  1.00  0.00     0.098 A 
HETATM    3  C7  UNL     1      24.802   3.306  50.693  1.00  0.00    -0.002 A 
HETATM    4  C8  UNL     1      24.328   2.134  51.078  1.00  0.00     0.009 C 
HETATM    5  C17 UNL     1      25.935   3.341  49.777  1.00  0.00     0.031 A 
HETATM    6  C18 UNL     1      26.379   4.533  49.415  1.00  0.00     0.089 A 
HETATM    7  N3  UNL     1      25.841   5.776  49.846  1.00  0.00    -0.367 N 
HETATM    8  H21 UNL     1      26.255   6.671  49.509  1.00  0.00     0.165 HD
ENDROOT
BRANCH   2   9
HETATM    9  O1  UNL     1      23.194   4.635  51.987  1.00  0.00    -0.358 OA
HETATM   10  H10 UNL     1      22.852   5.429  52.479  1.00  0.00     0.217 HD
ENDBRANCH   2   9
BRANCH   4  11
HETATM   11  C9  UNL     1      23.264   1.638  51.938  1.00  0.00     0.180 C 
BRANCH  11  12
HETATM   12  N1  UNL     1      23.799   0.657  52.869  1.00  0.00    -0.253 N 
HETATM   13  C10 UNL     1      23.611  -0.366  53.877  1.00  0.00     0.216 A 
HETATM   14  S1  UNL     1      22.467  -1.171  54.721  1.00  0.00    -0.037 SA
HETATM   15  N2  UNL     1      24.928   0.008  53.446  1.00  0.00    -0.224 N 
BRANCH  15  16
HETATM   16  C11 UNL     1      26.324  -0.219  53.599  1.00  0.00     0.059 A 
HETATM   17  C12 UNL     1      27.009   0.537  54.521  1.00  0.00     0.031 A 
HETATM   18  C13 UNL     1      28.374   0.316  54.673  1.00  0.00     0.002 A 
HETATM   19  C14 UNL     1      28.961  -0.649  53.890  1.00  0.00     0.000 A 
HETATM   20  C15 UNL     1      28.290  -1.433  52.945  1.00  0.00     0.002 A 
HETATM   21  C16 UNL     1      26.938  -1.180  52.828  1.00  0.00     0.031 A 
ENDBRANCH  15  16
ENDBRANCH  11  12
ENDBRANCH   4  11
BRANCH   1  22
HETATM   22  C4  UNL     1      24.203   7.056  51.165  1.00  0.00     0.060 C 
BRANCH  22  23
HETATM   23  C3  UNL     1      23.304   7.693  50.160  1.00  0.00     0.006 C 
BRANCH  23  24
HETATM   24  C2  UNL     1      21.856   7.549  50.576  1.00  0.00    -0.004 C 
HETATM   25  C1  UNL     1      21.251   6.523  49.626  1.00  0.00     0.005 C 
ENDBRANCH  23  24
ENDBRANCH  22  23
ENDBRANCH   1  22
TORSDOF 7
ENDMDL
MODEL 7
REMARK VINA RESULT:      -7.2      3.373      7.463
REMARK  7 active torsions:
REMARK  status: ('A' for Active; 'I' for Inactive)
REMARK    1  A    between atoms: C2_2  and  C3_3 
REMARK    2  A    between atoms: C3_3  and  C4_4 
REMARK    3  A    between atoms: C4_4  and  C5_5 
REMARK    4  A    between atoms: C6_6  and  O1_7 
REMARK    5  A    between atoms: C8_9  and  C9_10 
REMARK    6  A    between atoms: C9_10  and  N1_11 
REMARK    7  A    between atoms: N2_14  and  C11_15 
ROOT
HETATM    1  C5  UNL     1      23.086   3.891  49.956  1.00  0.00     0.043 A 
HETATM    2  C6  UNL     1      23.849   3.428  50.931  1.00  0.00     0.098 A 
HETATM    3  C7  UNL     1      23.692   3.800  52.332  1.00  0.00    -0.002 A 
HETATM    4  C8  UNL     1      24.449   3.344  53.314  1.00  0.00     0.009 C 
HETATM    5  C17 UNL     1      22.622   4.739  52.645  1.00  0.00     0.031 A 
HETATM    6  C18 UNL     1      21.887   5.173  51.635  1.00  0.00     0.089 A 
HETATM    7  N3  UNL     1      22.057   4.797  50.274  1.00  0.00    -0.367 N 
HETATM    8  H21 UNL     1      21.430   5.189  49.541  1.00  0.00     0.165 HD
ENDROOT
BRANCH   2   9
HETATM    9  O1  UNL     1      24.838   2.545  50.561  1.00  0.00    -0.358 OA
HETATM   10  H10 UNL     1      24.823   1.914  49.792  1.00  0.00     0.217 HD
ENDBRANCH   2   9
BRANCH   4  11
HETATM   11  C9  UNL     1      25.577   2.437  53.464  1.00  0.00     0.180 C 
BRANCH  11  12
HETATM   12  N1  UNL     1      25.127   1.061  53.325  1.00  0.00    -0.253 N 
HETATM   13  C10 UNL     1      25.398  -0.344  53.102  1.00  0.00     0.216 A 
HETATM   14  S1  UNL     1      26.603  -1.410  52.822  1.00  0.00    -0.037 SA
HETATM   15  N2  UNL     1      24.057   0.121  53.313  1.00  0.00    -0.224 N 
BRANCH  15  16
HETATM   16  C11 UNL     1      22.687  -0.249  53.412  1.00  0.00     0.059 A 
HETATM   17  C12 UNL     1      21.770   0.439  52.652  1.00  0.00     0.031 A 
HETATM   18  C13 UNL     1      20.430   0.079  52.747  1.00  0.00     0.002 A 
HETATM   19  C14 UNL     1      20.098  -0.948  53.598  1.00  0.00     0.000 A 
HETATM   20  C15 UNL     1      21.008  -1.665  54.383  1.00  0.00     0.002 A 
HETATM   21  C16 UNL     1      22.326  -1.274  54.257  1.00  0.00     0.031 A 
ENDBRANCH  15  16
ENDBRANCH  11  12
ENDBRANCH   4  11
BRANCH   1  22
HETATM   22  C4  UNL     1      23.245   3.514  48.542  1.00  0.00     0.060 C 
BRANCH  22  23
HETATM   23  C3  UNL     1      22.006   2.951  47.932  1.00  0.00     0.006 C 
BRANCH  23  24
HETATM   24  C2  UNL     1      21.941   1.454  48.146  1.00  0.00    -0.004 C 
HETATM   25  C1  UNL     1      20.834   1.229  49.169  1.00  0.00     0.005 C 
ENDBRANCH  23  24
ENDBRANCH  22  23
ENDBRANCH   1  22
TORSDOF 7
ENDMDL
MODEL 8
REMARK VINA RESULT:      -7.1      2.276      7.254
REMARK  7 active torsions:
REMARK  status: ('A' for Active; 'I' for Inactive)
REMARK    1  A    between atoms: C2_2  and  C3_3 
REMARK    2  A    between atoms: C3_3  and  C4_4 
REMARK    3  A    between atoms: C4_4  and  C5_5 
REMARK    4  A    between atoms: C6_6  and  O1_7 
REMARK    5  A    between atoms: C8_9  and  C9_10 
REMARK    6  A    between atoms: C9_10  and  N1_11 
REMARK    7  A    between atoms: N2_14  and  C11_15 
ROOT
HETATM    1  C5  UNL     1      26.087   6.851  49.722  1.00  0.00     0.043 A 
HETATM    2  C6  UNL     1      25.470   5.708  49.972  1.00  0.00     0.098 A 
HETATM    3  C7  UNL     1      25.986   4.404  49.576  1.00  0.00    -0.002 A 
HETATM    4  C8  UNL     1      25.378   3.256  49.820  1.00  0.00     0.009 C 
HETATM    5  C17 UNL     1      27.257   4.389  48.864  1.00  0.00     0.031 A 
HETATM    6  C18 UNL     1      27.834   5.557  48.638  1.00  0.00     0.089 A 
HETATM    7  N3  UNL     1      27.314   6.820  49.034  1.00  0.00    -0.367 N 
HETATM    8  H21 UNL     1      27.838   7.694  48.814  1.00  0.00     0.165 HD
ENDROOT
BRANCH   2   9
HETATM    9  O1  UNL     1      24.274   5.799  50.649  1.00  0.00    -0.358 OA
HETATM   10  H10 UNL     1      23.364   5.859  50.254  1.00  0.00     0.217 HD
ENDBRANCH   2   9
BRANCH   4  11
HETATM   11  C9  UNL     1      24.153   2.809  50.468  1.00  0.00     0.180 C 
BRANCH  11  12
HETATM   12  N1  UNL     1      24.471   1.864  51.526  1.00  0.00    -0.253 N 
HETATM   13  C10 UNL     1      24.071   0.857  52.488  1.00  0.00     0.216 A 
HETATM   14  S1  UNL     1      22.777   0.039  53.056  1.00  0.00    -0.037 SA
HETATM   15  N2  UNL     1      25.444   1.260  52.374  1.00  0.00    -0.224 N 
BRANCH  15  16
HETATM   16  C11 UNL     1      26.767   1.075  52.862  1.00  0.00     0.059 A 
HETATM   17  C12 UNL     1      27.248  -0.208  52.969  1.00  0.00     0.031 A 
HETATM   18  C13 UNL     1      28.542  -0.391  53.446  1.00  0.00     0.002 A 
HETATM   19  C14 UNL     1      29.268   0.726  53.785  1.00  0.00     0.000 A 
HETATM   20  C15 UNL     1      28.804   2.043  53.686  1.00  0.00     0.002 A 
HETATM   21  C16 UNL     1      27.516   2.177  53.209  1.00  0.00     0.031 A 
ENDBRANCH  15  16
ENDBRANCH  11  12
ENDBRANCH   4  11
BRANCH   1  22
HETATM   22  C4  UNL     1      25.566   8.168  50.124  1.00  0.00     0.060 C 
BRANCH  22  23
HETATM   23  C3  UNL     1      24.483   8.677  49.232  1.00  0.00     0.006 C 
BRANCH  23  24
HETATM   24  C2  UNL     1      24.955   8.721  47.795  1.00  0.00    -0.004 C 
HETATM   25  C1  UNL     1      23.943   7.905  47.000  1.00  0.00     0.005 C 
ENDBRANCH  23  24
ENDBRANCH  22  23
ENDBRANCH   1  22
TORSDOF 7
ENDMDL
MODEL 9
REMARK VINA RESULT:      -7.0      2.065      2.778
REMARK  7 active torsions:
REMARK  status: ('A' for Active; 'I' for Inactive)
REMARK    1  A    between atoms: C2_2  and  C3_3 
REMARK    2  A    between atoms: C3_3  and  C4_4 
REMARK    3  A    between atoms: C4_4  and  C5_5 
REMARK    4  A    between atoms: C6_6  and  O1_7 
REMARK    5  A    between atoms: C8_9  and  C9_10 
REMARK    6  A    between atoms: C9_10  and  N1_11 
REMARK    7  A    between atoms: N2_14  and  C11_15 
ROOT
HETATM    1  C5  UNL     1      25.305  -0.663  54.118  1.00  0.00     0.043 A 
HETATM    2  C6  UNL     1      24.396  -0.373  53.202  1.00  0.00     0.098 A 
HETATM    3  C7  UNL     1      22.960  -0.509  53.412  1.00  0.00    -0.002 A 
HETATM    4  C8  UNL     1      22.044  -0.222  52.504  1.00  0.00     0.009 C 
HETATM    5  C17 UNL     1      22.531  -0.996  54.716  1.00  0.00     0.031 A 
HETATM    6  C18 UNL     1      23.477  -1.273  55.597  1.00  0.00     0.089 A 
HETATM    7  N3  UNL     1      24.874  -1.132  55.373  1.00  0.00    -0.367 N 
HETATM    8  H21 UNL     1      25.553  -1.374  56.126  1.00  0.00     0.165 HD
ENDROOT
BRANCH   2   9
HETATM    9  O1  UNL     1      24.875   0.083  51.994  1.00  0.00    -0.358 OA
HETATM   10  H10 UNL     1      24.917  -0.420  51.137  1.00  0.00     0.217 HD
ENDBRANCH   2   9
BRANCH   4  11
HETATM   11  C9  UNL     1      22.009   0.268  51.134  1.00  0.00     0.180 C 
BRANCH  11  12
HETATM   12  N1  UNL     1      22.198   1.710  51.121  1.00  0.00    -0.253 N 
HETATM   13  C10 UNL     1      21.732   3.051  51.408  1.00  0.00     0.216 A 
HETATM   14  S1  UNL     1      20.479   3.889  52.037  1.00  0.00    -0.037 SA
HETATM   15  N2  UNL     1      23.012   2.833  50.798  1.00  0.00    -0.224 N 
BRANCH  15  16
HETATM   16  C11 UNL     1      24.187   3.446  50.281  1.00  0.00     0.059 A 
HETATM   17  C12 UNL     1      25.402   2.867  50.562  1.00  0.00     0.031 A 
HETATM   18  C13 UNL     1      26.552   3.464  50.057  1.00  0.00     0.002 A 
HETATM   19  C14 UNL     1      26.407   4.604  49.302  1.00  0.00     0.000 A 
HETATM   20  C15 UNL     1      25.186   5.215  49.000  1.00  0.00     0.002 A 
HETATM   21  C16 UNL     1      24.072   4.589  49.521  1.00  0.00     0.031 A 
ENDBRANCH  15  16
ENDBRANCH  11  12
ENDBRANCH   4  11
BRANCH   1  22
HETATM   22  C4  UNL     1      26.755  -0.524  53.905  1.00  0.00     0.060 C 
BRANCH  22  23
HETATM   23  C3  UNL     1      27.337   0.694  54.541  1.00  0.00     0.006 C 
BRANCH  23  24
HETATM   24  C2  UNL     1      27.386   1.838  53.552  1.00  0.00    -0.004 C 
HETATM   25  C1  UNL     1      28.769   2.457  53.702  1.00  0.00     0.005 C 
ENDBRANCH  23  24
ENDBRANCH  22  23
ENDBRANCH   1  22
TORSDOF 7
ENDMDL
