MODEL 1
REMARK VINA RESULT:      -8.9      0.000      0.000
REMARK  5 active torsions:
REMARK  status: ('A' for Active; 'I' for Inactive)
REMARK    1  A    between atoms: C5_6  and  C6_7 
REMARK    2  A    between atoms: C6_7  and  O1_8 
REMARK    3  A    between atoms: O1_8  and  C7_9 
REMARK    4  A    between atoms: N1_11  and  C9_12 
REMARK    5  A    between atoms: C11_14  and  C12_15 
ROOT
HETATM    1  C7  UNL     1      23.847   0.468  53.358  1.00  0.00     0.106 A 
HETATM    2  C8  UNL     1      23.974   1.640  52.758  1.00  0.00     0.131 A 
HETATM    3  N1  UNL     1      22.888   2.452  52.341  1.00  0.00    -0.336 N 
HETATM    4  C17 UNL     1      21.524   2.025  52.560  1.00  0.00     0.159 A 
HETATM    5  C18 UNL     1      21.549   0.712  53.233  1.00  0.00     0.020 A 
HETATM    6  C19 UNL     1      22.527  -0.078  53.638  1.00  0.00     0.066 A 
HETATM    7 CL1  UNL     1      22.197  -1.607  54.422  1.00  0.00    -0.082 Cl
ENDROOT
BRANCH   3   8
HETATM    8  C9  UNL     1      23.066   3.703  51.700  1.00  0.00     0.133 A 
HETATM    9  C10 UNL     1      24.183   4.049  51.016  1.00  0.00     0.083 A 
HETATM   10  C11 UNL     1      24.356   5.257  50.397  1.00  0.00     0.072 A 
HETATM   11  N2  UNL     1      23.320   6.100  50.512  1.00  0.00    -0.241 NA
HETATM   12  C16 UNL     1      22.177   5.847  51.167  1.00  0.00     0.235 A 
HETATM   13  N3  UNL     1      22.111   4.648  51.732  1.00  0.00    -0.224 NA
BRANCH  10  14
HETATM   14  C12 UNL     1      25.599   5.549  49.676  1.00  0.00    -0.000 A 
HETATM   15  C13 UNL     1      26.358   4.487  49.370  1.00  0.00     0.021 A 
HETATM   16  C14 UNL     1      27.592   4.821  48.649  1.00  0.00     0.050 A 
HETATM   17  S1  UNL     1      27.520   6.708  48.486  1.00  0.00    -0.113 SA
HETATM   18  C15 UNL     1      25.952   6.862  49.339  1.00  0.00     0.063 A 
ENDBRANCH  10  14
ENDBRANCH   3   8
BRANCH   1  19
HETATM   19  O1  UNL     1      24.937  -0.297  53.752  1.00  0.00    -0.344 OA
BRANCH  19  20
HETATM   20  C6  UNL     1      25.825  -0.887  52.821  1.00  0.00     0.214 C 
BRANCH  20  21
HETATM   21  C5  UNL     1      27.235  -0.526  53.120  1.00  0.00    -0.031 A 
HETATM   22  C4  UNL     1      28.302  -1.394  53.186  1.00  0.00     0.009 A 
HETATM   23  C3  UNL     1      29.558  -0.910  53.475  1.00  0.00     0.004 A 
HETATM   24  C2  UNL     1      29.787   0.435  53.704  1.00  0.00     0.042 A 
HETATM   25  C1  UNL     1      28.741   1.330  53.646  1.00  0.00     0.117 A 
HETATM   26  F1  UNL     1      28.904   2.664  53.860  1.00  0.00    -0.206 F 
HETATM   27  C20 UNL     1      27.490   0.830  53.355  1.00  0.00     0.051 A 
ENDBRANCH  20  21
ENDBRANCH  19  20
ENDBRANCH   1  19
TORSDOF 5
ENDMDL
MODEL 2
REMARK VINA RESULT:      -8.9      1.852      2.385
REMARK  5 active torsions:
REMARK  status: ('A' for Active; 'I' for Inactive)
REMARK    1  A    between atoms: C5_6  and  C6_7 
REMARK    2  A    between atoms: C6_7  and  O1_8 
REMARK    3  A    between atoms: O1_8  and  C7_9 
REMARK    4  A    between atoms: N1_11  and  C9_12 
REMARK    5  A    between atoms: C11_14  and  C12_15 
ROOT
HETATM    1  C7  UNL     1      24.888   1.707  52.849  1.00  0.00     0.106 A 
HETATM    2  C8  UNL     1      25.045   2.724  52.018  1.00  0.00     0.131 A 
HETATM    3  N1  UNL     1      24.150   3.049  50.967  1.00  0.00    -0.336 N 
HETATM    4  C17 UNL     1      22.966   2.251  50.736  1.00  0.00     0.159 A 
HETATM    5  C18 UNL     1      22.934   1.166  51.734  1.00  0.00     0.020 A 
HETATM    6  C19 UNL     1      23.737   0.824  52.726  1.00  0.00     0.066 A 
HETATM    7 CL1  UNL     1      23.393  -0.557  53.743  1.00  0.00    -0.082 Cl
ENDROOT
BRANCH   3   8
HETATM    8  C9  UNL     1      24.353   4.150  50.098  1.00  0.00     0.133 A 
HETATM    9  C10 UNL     1      25.574   4.605  49.729  1.00  0.00     0.083 A 
HETATM   10  C11 UNL     1      25.772   5.667  48.890  1.00  0.00     0.072 A 
HETATM   11  N2  UNL     1      24.649   6.245  48.441  1.00  0.00    -0.241 NA
HETATM   12  C16 UNL     1      23.399   5.865  48.750  1.00  0.00     0.235 A 
HETATM   13  N3  UNL     1      23.318   4.826  49.571  1.00  0.00    -0.224 NA
BRANCH  10  14
HETATM   14  C12 UNL     1      27.131   6.095  48.542  1.00  0.00    -0.000 A 
HETATM   15  C13 UNL     1      28.050   5.121  48.481  1.00  0.00     0.021 A 
HETATM   16  C14 UNL     1      29.396   5.589  48.130  1.00  0.00     0.050 A 
HETATM   17  S1  UNL     1      29.180   7.460  47.918  1.00  0.00    -0.113 SA
HETATM   18  C15 UNL     1      27.428   7.441  48.293  1.00  0.00     0.063 A 
ENDBRANCH  10  14
ENDBRANCH   3   8
BRANCH   1  19
HETATM   19  O1  UNL     1      25.788   1.422  53.868  1.00  0.00    -0.344 OA
BRANCH  19  20
HETATM   20  C6  UNL     1      27.173   1.695  53.756  1.00  0.00     0.214 C 
BRANCH  20  21
HETATM   21  C5  UNL     1      27.957   0.443  53.603  1.00  0.00    -0.031 A 
HETATM   22  C4  UNL     1      29.276   0.260  53.958  1.00  0.00     0.009 A 
HETATM   23  C3  UNL     1      29.872  -0.964  53.754  1.00  0.00     0.004 A 
HETATM   24  C2  UNL     1      29.184  -2.029  53.200  1.00  0.00     0.042 A 
HETATM   25  C1  UNL     1      27.865  -1.878  52.833  1.00  0.00     0.117 A 
HETATM   26  F1  UNL     1      27.135  -2.887  52.283  1.00  0.00    -0.206 F 
HETATM   27  C20 UNL     1      27.282  -0.647  53.043  1.00  0.00     0.051 A 
ENDBRANCH  20  21
ENDBRANCH  19  20
ENDBRANCH   1  19
TORSDOF 5
ENDMDL
MODEL 3
REMARK VINA RESULT:      -8.8      4.010      6.285
REMARK  5 active torsions:
REMARK  status: ('A' for Active; 'I' for Inactive)
REMARK    1  A    between atoms: C5_6  and  C6_7 
REMARK    2  A    between atoms: C6_7  and  O1_8 
REMARK    3  A    between atoms: O1_8  and  C7_9 
REMARK    4  A    between atoms: N1_11  and  C9_12 
REMARK    5  A    between atoms: C11_14  and  C12_15 
ROOT
HETATM    1  C7  UNL     1      25.572   2.276  51.693  1.00  0.00     0.106 A 
HETATM    2  C8  UNL     1      24.577   1.640  52.288  1.00  0.00     0.131 A 
HETATM    3  N1  UNL     1      23.251   1.576  51.790  1.00  0.00    -0.336 N 
HETATM    4  C17 UNL     1      22.898   2.232  50.550  1.00  0.00     0.159 A 
HETATM    5  C18 UNL     1      24.103   2.892  50.013  1.00  0.00     0.020 A 
HETATM    6  C19 UNL     1      25.351   2.979  50.437  1.00  0.00     0.066 A 
HETATM    7 CL1  UNL     1      26.561   3.863  49.533  1.00  0.00    -0.082 Cl
ENDROOT
BRANCH   3   8
HETATM    8  C9  UNL     1      22.211   0.881  52.458  1.00  0.00     0.133 A 
HETATM    9  C10 UNL     1      20.978   0.683  51.934  1.00  0.00     0.083 A 
HETATM   10  C11 UNL     1      19.974   0.013  52.578  1.00  0.00     0.072 A 
HETATM   11  N2  UNL     1      20.297  -0.450  53.793  1.00  0.00    -0.241 NA
HETATM   12  C16 UNL     1      21.488  -0.304  54.393  1.00  0.00     0.235 A 
HETATM   13  N3  UNL     1      22.392   0.362  53.684  1.00  0.00    -0.224 NA
BRANCH  10  14
HETATM   14  C12 UNL     1      18.665  -0.155  51.936  1.00  0.00    -0.000 A 
HETATM   15  C13 UNL     1      18.555   0.348  50.699  1.00  0.00     0.021 A 
HETATM   16  C14 UNL     1      17.232   0.159  50.091  1.00  0.00     0.050 A 
HETATM   17  S1  UNL     1      16.253  -0.763  51.427  1.00  0.00    -0.113 SA
HETATM   18  C15 UNL     1      17.613  -0.806  52.592  1.00  0.00     0.063 A 
ENDBRANCH  10  14
ENDBRANCH   3   8
BRANCH   1  19
HETATM   19  O1  UNL     1      26.859   2.315  52.214  1.00  0.00    -0.344 OA
BRANCH  19  20
HETATM   20  C6  UNL     1      27.169   1.831  53.507  1.00  0.00     0.214 C 
BRANCH  20  21
HETATM   21  C5  UNL     1      27.993   0.597  53.436  1.00  0.00    -0.031 A 
HETATM   22  C4  UNL     1      29.332   0.493  53.740  1.00  0.00     0.009 A 
HETATM   23  C3  UNL     1      29.965  -0.724  53.626  1.00  0.00     0.004 A 
HETATM   24  C2  UNL     1      29.293  -1.860  53.211  1.00  0.00     0.042 A 
HETATM   25  C1  UNL     1      27.953  -1.790  52.897  1.00  0.00     0.117 A 
HETATM   26  F1  UNL     1      27.238  -2.872  52.483  1.00  0.00    -0.206 F 
HETATM   27  C20 UNL     1      27.334  -0.564  53.017  1.00  0.00     0.051 A 
ENDBRANCH  20  21
ENDBRANCH  19  20
ENDBRANCH   1  19
TORSDOF 5
ENDMDL
MODEL 4
REMARK VINA RESULT:      -8.6      3.844      6.737
REMARK  5 active torsions:
REMARK  status: ('A' for Active; 'I' for Inactive)
REMARK    1  A    between atoms: C5_6  and  C6_7 
REMARK    2  A    between atoms: C6_7  and  O1_8 
REMARK    3  A    between atoms: O1_8  and  C7_9 
REMARK    4  A    between atoms: N1_11  and  C9_12 
REMARK    5  A    between atoms: C11_14  and  C12_15 
ROOT
HETATM    1  C7  UNL     1      26.606   1.528  52.514  1.00  0.00     0.106 A 
HETATM    2  C8  UNL     1      25.348   1.127  52.564  1.00  0.00     0.131 A 
HETATM    3  N1  UNL     1      24.822   0.245  53.543  1.00  0.00    -0.336 N 
HETATM    4  C17 UNL     1      25.672  -0.286  54.586  1.00  0.00     0.159 A 
HETATM    5  C18 UNL     1      27.033   0.250  54.396  1.00  0.00     0.020 A 
HETATM    6  C19 UNL     1      27.567   1.068  53.506  1.00  0.00     0.066 A 
HETATM    7 CL1  UNL     1      29.260   1.507  53.573  1.00  0.00    -0.082 Cl
ENDROOT
BRANCH   3   8
HETATM    8  C9  UNL     1      23.465  -0.161  53.562  1.00  0.00     0.133 A 
HETATM    9  C10 UNL     1      22.550   0.219  52.639  1.00  0.00     0.083 A 
HETATM   10  C11 UNL     1      21.239  -0.172  52.657  1.00  0.00     0.072 A 
HETATM   11  N2  UNL     1      20.908  -0.981  53.673  1.00  0.00    -0.241 NA
HETATM   12  C16 UNL     1      21.743  -1.411  54.633  1.00  0.00     0.235 A 
HETATM   13  N3  UNL     1      22.991  -0.973  54.523  1.00  0.00    -0.224 NA
BRANCH  10  14
HETATM   14  C12 UNL     1      20.313   0.288  51.616  1.00  0.00    -0.000 A 
HETATM   15  C13 UNL     1      20.878   0.895  50.563  1.00  0.00     0.021 A 
HETATM   16  C14 UNL     1      19.920   1.341  49.544  1.00  0.00     0.050 A 
HETATM   17  S1  UNL     1      18.240   0.812  50.246  1.00  0.00    -0.113 SA
HETATM   18  C15 UNL     1      18.932   0.094  51.735  1.00  0.00     0.063 A 
ENDBRANCH  10  14
ENDBRANCH   3   8
BRANCH   1  19
HETATM   19  O1  UNL     1      27.082   2.394  51.538  1.00  0.00    -0.344 OA
BRANCH  19  20
HETATM   20  C6  UNL     1      26.488   2.493  50.257  1.00  0.00     0.214 C 
BRANCH  20  21
HETATM   21  C5  UNL     1      26.358   3.911  49.833  1.00  0.00    -0.031 A 
HETATM   22  C4  UNL     1      25.354   4.781  50.197  1.00  0.00     0.009 A 
HETATM   23  C3  UNL     1      25.366   6.073  49.721  1.00  0.00     0.004 A 
HETATM   24  C2  UNL     1      26.365   6.532  48.881  1.00  0.00     0.042 A 
HETATM   25  C1  UNL     1      27.383   5.687  48.497  1.00  0.00     0.117 A 
HETATM   26  F1  UNL     1      28.393   6.080  47.674  1.00  0.00    -0.206 F 
HETATM   27  C20 UNL     1      27.357   4.397  48.981  1.00  0.00     0.051 A 
ENDBRANCH  20  21
ENDBRANCH  19  20
ENDBRANCH   1  19
TORSDOF 5
ENDMDL
MODEL 5
REMARK VINA RESULT:      -8.5      3.616      5.776
REMARK  5 active torsions:
REMARK  status: ('A' for Active; 'I' for Inactive)
REMARK    1  A    between atoms: C5_6  and  C6_7 
REMARK    2  A    between atoms: C6_7  and  O1_8 
REMARK    3  A    between atoms: O1_8  and  C7_9 
REMARK    4  A    between atoms: N1_11  and  C9_12 
REMARK    5  A    between atoms: C11_14  and  C12_15 
ROOT
HETATM    1  C7  UNL     1      25.972   3.218  50.683  1.00  0.00     0.106 A 
HETATM    2  C8  UNL     1      24.773   2.968  51.181  1.00  0.00     0.131 A 
HETATM    3  N1  UNL     1      23.572   3.567  50.724  1.00  0.00    -0.336 N 
HETATM    4  C17 UNL     1      23.594   4.526  49.641  1.00  0.00     0.159 A 
HETATM    5  C18 UNL     1      24.990   4.696  49.197  1.00  0.00     0.020 A 
HETATM    6  C19 UNL     1      26.135   4.164  49.589  1.00  0.00     0.066 A 
HETATM    7 CL1  UNL     1      27.649   4.598  48.827  1.00  0.00    -0.082 Cl
ENDROOT
BRANCH   3   8
HETATM    8  C9  UNL     1      22.304   3.272  51.284  1.00  0.00     0.133 A 
HETATM    9  C10 UNL     1      22.002   2.101  51.893  1.00  0.00     0.083 A 
HETATM   10  C11 UNL     1      20.778   1.814  52.434  1.00  0.00     0.072 A 
HETATM   11  N2  UNL     1      19.872   2.795  52.321  1.00  0.00    -0.241 NA
HETATM   12  C16 UNL     1      20.077   3.985  51.737  1.00  0.00     0.235 A 
HETATM   13  N3  UNL     1      21.297   4.162  51.245  1.00  0.00    -0.224 NA
BRANCH  10  14
HETATM   14  C12 UNL     1      20.537   0.518  53.076  1.00  0.00    -0.000 A 
HETATM   15  C13 UNL     1      21.523   0.065  53.863  1.00  0.00     0.021 A 
HETATM   16  C14 UNL     1      21.243  -1.234  54.487  1.00  0.00     0.050 A 
HETATM   17  S1  UNL     1      19.516  -1.677  53.843  1.00  0.00    -0.113 SA
HETATM   18  C15 UNL     1      19.343  -0.185  52.867  1.00  0.00     0.063 A 
ENDBRANCH  10  14
ENDBRANCH   3   8
BRANCH   1  19
HETATM   19  O1  UNL     1      27.126   2.609  51.160  1.00  0.00    -0.344 OA
BRANCH  19  20
HETATM   20  C6  UNL     1      27.279   2.227  52.514  1.00  0.00     0.214 C 
BRANCH  20  21
HETATM   21  C5  UNL     1      27.447   0.757  52.642  1.00  0.00    -0.031 A 
HETATM   22  C4  UNL     1      26.540  -0.204  52.252  1.00  0.00     0.009 A 
HETATM   23  C3  UNL     1      26.836  -1.536  52.435  1.00  0.00     0.004 A 
HETATM   24  C2  UNL     1      28.029  -1.947  53.004  1.00  0.00     0.042 A 
HETATM   25  C1  UNL     1      28.957  -1.011  53.406  1.00  0.00     0.117 A 
HETATM   26  F1  UNL     1      30.147  -1.353  53.972  1.00  0.00    -0.206 F 
HETATM   27  C20 UNL     1      28.646   0.317  53.216  1.00  0.00     0.051 A 
ENDBRANCH  20  21
ENDBRANCH  19  20
ENDBRANCH   1  19
TORSDOF 5
ENDMDL
MODEL 6
REMARK VINA RESULT:      -8.4      1.427      1.910
REMARK  5 active torsions:
REMARK  status: ('A' for Active; 'I' for Inactive)
REMARK    1  A    between atoms: C5_6  and  C6_7 
REMARK    2  A    between atoms: C6_7  and  O1_8 
REMARK    3  A    between atoms: O1_8  and  C7_9 
REMARK    4  A    between atoms: N1_11  and  C9_12 
REMARK    5  A    between atoms: C11_14  and  C12_15 
ROOT
HETATM    1  C7  UNL     1      24.148  -0.082  53.331  1.00  0.00     0.106 A 
HETATM    2  C8  UNL     1      24.168   0.778  52.326  1.00  0.00     0.131 A 
HETATM    3  N1  UNL     1      23.021   1.418  51.791  1.00  0.00    -0.336 N 
HETATM    4  C17 UNL     1      21.709   1.153  52.339  1.00  0.00     0.159 A 
HETATM    5  C18 UNL     1      21.851   0.183  53.441  1.00  0.00     0.020 A 
HETATM    6  C19 UNL     1      22.890  -0.436  53.973  1.00  0.00     0.066 A 
HETATM    7 CL1  UNL     1      22.701  -1.552  55.307  1.00  0.00    -0.082 Cl
ENDROOT
BRANCH   3   8
HETATM    8  C9  UNL     1      23.085   2.335  50.713  1.00  0.00     0.133 A 
HETATM    9  C10 UNL     1      23.626   3.573  50.807  1.00  0.00     0.083 A 
HETATM   10  C11 UNL     1      23.688   4.460  49.767  1.00  0.00     0.072 A 
HETATM   11  N2  UNL     1      23.167   4.013  48.616  1.00  0.00    -0.241 NA
HETATM   12  C16 UNL     1      22.611   2.806  48.427  1.00  0.00     0.235 A 
HETATM   13  N3  UNL     1      22.601   2.023  49.498  1.00  0.00    -0.224 NA
BRANCH  10  14
HETATM   14  C12 UNL     1      24.292   5.784  49.956  1.00  0.00    -0.000 A 
HETATM   15  C13 UNL     1      23.480   6.728  50.453  1.00  0.00     0.021 A 
HETATM   16  C14 UNL     1      24.121   8.037  50.628  1.00  0.00     0.050 A 
HETATM   17  S1  UNL     1      25.898   7.749  50.033  1.00  0.00    -0.113 SA
HETATM   18  C15 UNL     1      25.633   6.023  49.633  1.00  0.00     0.063 A 
ENDBRANCH  10  14
ENDBRANCH   3   8
BRANCH   1  19
HETATM   19  O1  UNL     1      25.295  -0.687  53.826  1.00  0.00    -0.344 OA
BRANCH  19  20
HETATM   20  C6  UNL     1      26.267  -1.277  52.983  1.00  0.00     0.214 C 
BRANCH  20  21
HETATM   21  C5  UNL     1      27.614  -0.704  53.232  1.00  0.00    -0.031 A 
HETATM   22  C4  UNL     1      28.795  -1.409  53.320  1.00  0.00     0.009 A 
HETATM   23  C3  UNL     1      29.973  -0.737  53.557  1.00  0.00     0.004 A 
HETATM   24  C2  UNL     1      30.012   0.638  53.710  1.00  0.00     0.042 A 
HETATM   25  C1  UNL     1      28.848   1.371  53.629  1.00  0.00     0.117 A 
HETATM   26  F1  UNL     1      28.822   2.725  53.771  1.00  0.00    -0.206 F 
HETATM   27  C20 UNL     1      27.677   0.685  53.392  1.00  0.00     0.051 A 
ENDBRANCH  20  21
ENDBRANCH  19  20
ENDBRANCH   1  19
TORSDOF 5
ENDMDL
MODEL 7
REMARK VINA RESULT:      -8.3      3.387      5.061
REMARK  5 active torsions:
REMARK  status: ('A' for Active; 'I' for Inactive)
REMARK    1  A    between atoms: C5_6  and  C6_7 
REMARK    2  A    between atoms: C6_7  and  O1_8 
REMARK    3  A    between atoms: O1_8  and  C7_9 
REMARK    4  A    between atoms: N1_11  and  C9_12 
REMARK    5  A    between atoms: C11_14  and  C12_15 
ROOT
HETATM    1  C7  UNL     1      25.849   3.011  50.339  1.00  0.00     0.106 A 
HETATM    2  C8  UNL     1      26.750   3.789  49.763  1.00  0.00     0.131 A 
HETATM    3  N1  UNL     1      26.452   4.986  49.064  1.00  0.00    -0.336 N 
HETATM    4  C17 UNL     1      25.085   5.441  48.936  1.00  0.00     0.159 A 
HETATM    5  C18 UNL     1      24.206   4.476  49.623  1.00  0.00     0.020 A 
HETATM    6  C19 UNL     1      24.435   3.355  50.284  1.00  0.00     0.066 A 
HETATM    7 CL1  UNL     1      23.129   2.432  50.992  1.00  0.00    -0.082 Cl
ENDROOT
BRANCH   3   8
HETATM    8  C9  UNL     1      27.448   5.793  48.461  1.00  0.00     0.133 A 
HETATM    9  C10 UNL     1      28.757   5.450  48.391  1.00  0.00     0.083 A 
HETATM   10  C11 UNL     1      29.720   6.229  47.809  1.00  0.00     0.072 A 
HETATM   11  N2  UNL     1      29.275   7.385  47.298  1.00  0.00    -0.241 NA
HETATM   12  C16 UNL     1      28.002   7.809  47.320  1.00  0.00     0.235 A 
HETATM   13  N3  UNL     1      27.147   6.980  47.907  1.00  0.00    -0.224 NA
BRANCH  10  14
HETATM   14  C12 UNL     1      31.116   5.780  47.776  1.00  0.00    -0.000 A 
HETATM   15  C13 UNL     1      31.307   4.495  47.444  1.00  0.00     0.021 A 
HETATM   16  C14 UNL     1      32.716   4.085  47.422  1.00  0.00     0.050 A 
HETATM   17  S1  UNL     1      33.650   5.663  47.903  1.00  0.00    -0.113 SA
HETATM   18  C15 UNL     1      32.168   6.655  48.076  1.00  0.00     0.063 A 
ENDBRANCH  10  14
ENDBRANCH   3   8
BRANCH   1  19
HETATM   19  O1  UNL     1      26.182   1.845  51.016  1.00  0.00    -0.344 OA
BRANCH  19  20
HETATM   20  C6  UNL     1      26.337   1.802  52.422  1.00  0.00     0.214 C 
BRANCH  20  21
HETATM   21  C5  UNL     1      27.426   0.872  52.815  1.00  0.00    -0.031 A 
HETATM   22  C4  UNL     1      28.652   1.227  53.334  1.00  0.00     0.009 A 
HETATM   23  C3  UNL     1      29.566   0.248  53.653  1.00  0.00     0.004 A 
HETATM   24  C2  UNL     1      29.292  -1.096  53.468  1.00  0.00     0.042 A 
HETATM   25  C1  UNL     1      28.075  -1.483  52.949  1.00  0.00     0.117 A 
HETATM   26  F1  UNL     1      27.747  -2.789  52.744  1.00  0.00    -0.206 F 
HETATM   27  C20 UNL     1      27.171  -0.492  52.635  1.00  0.00     0.051 A 
ENDBRANCH  20  21
ENDBRANCH  19  20
ENDBRANCH   1  19
TORSDOF 5
ENDMDL
MODEL 8
REMARK VINA RESULT:      -8.2      2.514      3.610
REMARK  5 active torsions:
REMARK  status: ('A' for Active; 'I' for Inactive)
REMARK    1  A    between atoms: C5_6  and  C6_7 
REMARK    2  A    between atoms: C6_7  and  O1_8 
REMARK    3  A    between atoms: O1_8  and  C7_9 
REMARK    4  A    between atoms: N1_11  and  C9_12 
REMARK    5  A    between atoms: C11_14  and  C12_15 
ROOT
HETATM    1  C7  UNL     1      24.507   1.959  51.716  1.00  0.00     0.106 A 
HETATM    2  C8  UNL     1      25.310   2.839  51.142  1.00  0.00     0.131 A 
HETATM    3  N1  UNL     1      25.023   3.520  49.932  1.00  0.00    -0.336 N 
HETATM    4  C17 UNL     1      23.782   3.279  49.228  1.00  0.00     0.159 A 
HETATM    5  C18 UNL     1      23.002   2.283  49.987  1.00  0.00     0.020 A 
HETATM    6  C19 UNL     1      23.225   1.625  51.111  1.00  0.00     0.066 A 
HETATM    7 CL1  UNL     1      22.059   0.486  51.747  1.00  0.00    -0.082 Cl
ENDROOT
BRANCH   3   8
HETATM    8  C9  UNL     1      25.911   4.458  49.348  1.00  0.00     0.133 A 
HETATM    9  C10 UNL     1      25.547   5.706  48.969  1.00  0.00     0.083 A 
HETATM   10  C11 UNL     1      26.403   6.613  48.405  1.00  0.00     0.072 A 
HETATM   11  N2  UNL     1      27.660   6.176  48.249  1.00  0.00    -0.241 NA
HETATM   12  C16 UNL     1      28.113   4.961  48.593  1.00  0.00     0.235 A 
HETATM   13  N3  UNL     1      27.203   4.158  49.131  1.00  0.00    -0.224 NA
BRANCH  10  14
HETATM   14  C12 UNL     1      25.925   7.946  48.023  1.00  0.00    -0.000 A 
HETATM   15  C13 UNL     1      25.421   8.050  46.784  1.00  0.00     0.021 A 
HETATM   16  C14 UNL     1      24.953   9.398  46.440  1.00  0.00     0.050 A 
HETATM   17  S1  UNL     1      25.305  10.408  48.005  1.00  0.00    -0.113 SA
HETATM   18  C15 UNL     1      25.997   9.026  48.911  1.00  0.00     0.063 A 
ENDBRANCH  10  14
ENDBRANCH   3   8
BRANCH   1  19
HETATM   19  O1  UNL     1      24.825   1.313  52.903  1.00  0.00    -0.344 OA
BRANCH  19  20
HETATM   20  C6  UNL     1      25.336  -0.007  52.936  1.00  0.00     0.214 C 
BRANCH  20  21
HETATM   21  C5  UNL     1      26.797  -0.011  53.205  1.00  0.00    -0.031 A 
HETATM   22  C4  UNL     1      27.552   1.065  53.617  1.00  0.00     0.009 A 
HETATM   23  C3  UNL     1      28.904   0.908  53.828  1.00  0.00     0.004 A 
HETATM   24  C2  UNL     1      29.536  -0.308  53.637  1.00  0.00     0.042 A 
HETATM   25  C1  UNL     1      28.809  -1.403  53.225  1.00  0.00     0.117 A 
HETATM   26  F1  UNL     1      29.374  -2.625  53.021  1.00  0.00    -0.206 F 
HETATM   27  C20 UNL     1      27.458  -1.230  53.018  1.00  0.00     0.051 A 
ENDBRANCH  20  21
ENDBRANCH  19  20
ENDBRANCH   1  19
TORSDOF 5
ENDMDL
MODEL 9
REMARK VINA RESULT:      -8.1      4.576      6.664
REMARK  5 active torsions:
REMARK  status: ('A' for Active; 'I' for Inactive)
REMARK    1  A    between atoms: C5_6  and  C6_7 
REMARK    2  A    between atoms: C6_7  and  O1_8 
REMARK    3  A    between atoms: O1_8  and  C7_9 
REMARK    4  A    between atoms: N1_11  and  C9_12 
REMARK    5  A    between atoms: C11_14  and  C12_15 
ROOT
HETATM    1  C7  UNL     1      23.472   0.217  53.443  1.00  0.00     0.106 A 
HETATM    2  C8  UNL     1      22.425   0.479  52.678  1.00  0.00     0.131 A 
HETATM    3  N1  UNL     1      21.164  -0.158  52.796  1.00  0.00    -0.336 N 
HETATM    4  C17 UNL     1      20.944  -1.174  53.802  1.00  0.00     0.159 A 
HETATM    5  C18 UNL     1      22.193  -1.351  54.566  1.00  0.00     0.020 A 
HETATM    6  C19 UNL     1      23.385  -0.785  54.495  1.00  0.00     0.066 A 
HETATM    7 CL1  UNL     1      24.677  -1.242  55.583  1.00  0.00    -0.082 Cl
ENDROOT
BRANCH   3   8
HETATM    8  C9  UNL     1      20.065   0.152  51.957  1.00  0.00     0.133 A 
HETATM    9  C10 UNL     1      18.778  -0.142  52.260  1.00  0.00     0.083 A 
HETATM   10  C11 UNL     1      17.716   0.157  51.451  1.00  0.00     0.072 A 
HETATM   11  N2  UNL     1      18.038   0.777  50.308  1.00  0.00    -0.241 NA
HETATM   12  C16 UNL     1      19.279   1.109  49.922  1.00  0.00     0.235 A 
HETATM   13  N3  UNL     1      20.237   0.775  50.778  1.00  0.00    -0.224 NA
BRANCH  10  14
HETATM   14  C12 UNL     1      16.352  -0.199  51.857  1.00  0.00    -0.000 A 
HETATM   15  C13 UNL     1      16.110  -1.510  52.002  1.00  0.00     0.021 A 
HETATM   16  C14 UNL     1      14.736  -1.824  52.409  1.00  0.00     0.050 A 
HETATM   17  S1  UNL     1      13.908  -0.124  52.545  1.00  0.00    -0.113 SA
HETATM   18  C15 UNL     1      15.379   0.785  52.076  1.00  0.00     0.063 A 
ENDBRANCH  10  14
ENDBRANCH   3   8
BRANCH   1  19
HETATM   19  O1  UNL     1      24.692   0.865  53.296  1.00  0.00    -0.344 OA
BRANCH  19  20
HETATM   20  C6  UNL     1      25.603   0.541  52.262  1.00  0.00     0.214 C 
BRANCH  20  21
HETATM   21  C5  UNL     1      26.941   0.201  52.810  1.00  0.00    -0.031 A 
HETATM   22  C4  UNL     1      27.536  -1.041  52.795  1.00  0.00     0.009 A 
HETATM   23  C3  UNL     1      28.787  -1.205  53.345  1.00  0.00     0.004 A 
HETATM   24  C2  UNL     1      29.476  -0.151  53.919  1.00  0.00     0.042 A 
HETATM   25  C1  UNL     1      28.908   1.104  53.952  1.00  0.00     0.117 A 
HETATM   26  F1  UNL     1      29.535   2.179  54.503  1.00  0.00    -0.206 F 
HETATM   27  C20 UNL     1      27.655   1.251  53.397  1.00  0.00     0.051 A 
ENDBRANCH  20  21
ENDBRANCH  19  20
ENDBRANCH   1  19
TORSDOF 5
ENDMDL
