MODEL 1
REMARK VINA RESULT:      -7.9      0.000      0.000
REMARK  5 active torsions:
REMARK  status: ('A' for Active; 'I' for Inactive)
REMARK    1  A    between atoms: N1_2  and  C1_3 
REMARK    2  A    between atoms: N2_11  and  C8_12 
REMARK    3  A    between atoms: C8_12  and  C9_13 
REMARK    4  A    between atoms: C9_13  and  O2_14 
REMARK    5  A    between atoms: C10_16  and  C11_17 
ROOT
HETATM    1  C1  UNL     1      29.027   1.427  53.797  1.00  0.00     0.175 A 
HETATM    2  C2  UNL     1      29.665   0.126  53.401  1.00  0.00     0.062 A 
HETATM    3  C3  UNL     1      28.498  -0.697  53.019  1.00  0.00    -0.016 A 
HETATM    4  C4  UNL     1      27.327  -0.154  53.078  1.00  0.00    -0.045 A 
HETATM    5  C5  UNL     1      26.098  -0.847  52.733  1.00  0.00     0.108 C 
HETATM    6  S1  UNL     1      24.722   0.095  53.459  1.00  0.00    -0.165 SA
HETATM    7  C6  UNL     1      23.258  -0.555  53.237  1.00  0.00     0.027 C 
HETATM    8  C7  UNL     1      22.307   0.270  52.896  1.00  0.00     0.131 C 
HETATM    9  N2  UNL     1      22.253   1.651  52.563  1.00  0.00    -0.277 N 
HETATM   10  N3  UNL     1      23.356   2.227  52.005  1.00  0.00    -0.175 NA
HETATM   11  C10 UNL     1      24.582   2.414  52.223  1.00  0.00     0.082 C 
HETATM   12  C16 UNL     1      25.167   1.905  53.461  1.00  0.00     0.120 C 
HETATM   13  C17 UNL     1      26.593   2.044  53.684  1.00  0.00     0.004 C 
HETATM   14  C18 UNL     1      27.589   1.174  53.535  1.00  0.00    -0.026 A 
ENDROOT
BRANCH  11  15
HETATM   15  C11 UNL     1      25.164   3.157  51.112  1.00  0.00    -0.006 A 
HETATM   16  C12 UNL     1      26.258   2.818  50.385  1.00  0.00     0.032 A 
HETATM   17  C13 UNL     1      26.817   3.504  49.339  1.00  0.00     0.117 A 
HETATM   18  N4  UNL     1      26.229   4.651  48.974  1.00  0.00    -0.273 NA
HETATM   19  C14 UNL     1      25.139   5.089  49.619  1.00  0.00     0.117 A 
HETATM   20  C15 UNL     1      24.646   4.345  50.651  1.00  0.00     0.032 A 
ENDBRANCH  11  15
BRANCH   9  21
HETATM   21  C8  UNL     1      20.914   2.172  52.912  1.00  0.00     0.176 C 
BRANCH  21  22
HETATM   22  C9  UNL     1      20.757   3.406  52.019  1.00  0.00     0.185 C 
BRANCH  22  23
HETATM   23  O2  UNL     1      21.589   4.419  52.432  1.00  0.00    -0.399 OA
HETATM   24  H12 UNL     1      22.360   4.063  52.920  1.00  0.00     0.209 HD
ENDBRANCH  22  23
ENDBRANCH  21  22
ENDBRANCH   9  21
BRANCH   1  25
HETATM   25  N1  UNL     1      29.190   1.621  55.209  1.00  0.00    -0.131 NA
HETATM   26  O1  UNL     1      29.901   2.435  55.708  1.00  0.00    -0.066 OA
ENDBRANCH   1  25
TORSDOF 5
ENDMDL
MODEL 2
REMARK VINA RESULT:      -7.4      2.774      5.672
REMARK  5 active torsions:
REMARK  status: ('A' for Active; 'I' for Inactive)
REMARK    1  A    between atoms: N1_2  and  C1_3 
REMARK    2  A    between atoms: N2_11  and  C8_12 
REMARK    3  A    between atoms: C8_12  and  C9_13 
REMARK    4  A    between atoms: C9_13  and  O2_14 
REMARK    5  A    between atoms: C10_16  and  C11_17 
ROOT
HETATM    1  C1  UNL     1      24.081   5.884  50.196  1.00  0.00     0.175 A 
HETATM    2  C2  UNL     1      25.015   6.048  49.030  1.00  0.00     0.062 A 
HETATM    3  C3  UNL     1      25.883   4.858  49.149  1.00  0.00    -0.016 A 
HETATM    4  C4  UNL     1      25.644   4.025  50.107  1.00  0.00    -0.045 A 
HETATM    5  C5  UNL     1      26.418   2.818  50.339  1.00  0.00     0.108 C 
HETATM    6  S1  UNL     1      26.075   2.273  52.041  1.00  0.00    -0.165 SA
HETATM    7  C6  UNL     1      26.900   0.966  52.517  1.00  0.00     0.027 C 
HETATM    8  C7  UNL     1      26.221   0.066  53.173  1.00  0.00     0.131 C 
HETATM    9  N2  UNL     1      24.851  -0.106  53.509  1.00  0.00    -0.277 N 
HETATM   10  N3  UNL     1      23.909   0.424  52.678  1.00  0.00    -0.175 NA
HETATM   11  C10 UNL     1      23.558   1.518  52.163  1.00  0.00     0.082 C 
HETATM   12  C16 UNL     1      24.320   2.724  52.475  1.00  0.00     0.120 C 
HETATM   13  C17 UNL     1      23.975   3.972  51.824  1.00  0.00     0.004 C 
HETATM   14  C18 UNL     1      24.521   4.595  50.782  1.00  0.00    -0.026 A 
ENDROOT
BRANCH  11  15
HETATM   15  C11 UNL     1      22.383   1.306  51.326  1.00  0.00    -0.006 A 
HETATM   16  C12 UNL     1      21.153   0.901  51.730  1.00  0.00     0.032 A 
HETATM   17  C13 UNL     1      20.040   0.697  50.959  1.00  0.00     0.117 A 
HETATM   18  N4  UNL     1      20.157   0.920  49.643  1.00  0.00    -0.273 NA
HETATM   19  C14 UNL     1      21.326   1.325  49.125  1.00  0.00     0.117 A 
HETATM   20  C15 UNL     1      22.387   1.503  49.965  1.00  0.00     0.032 A 
ENDBRANCH  11  15
BRANCH   9  21
HETATM   21  C8  UNL     1      24.763  -0.887  54.762  1.00  0.00     0.176 C 
BRANCH  21  22
HETATM   22  C9  UNL     1      23.267  -1.182  54.905  1.00  0.00     0.185 C 
BRANCH  22  23
HETATM   23  O2  UNL     1      23.026  -1.974  56.002  1.00  0.00    -0.399 OA
HETATM   24  H12 UNL     1      23.071  -2.923  55.766  1.00  0.00     0.209 HD
ENDBRANCH  22  23
ENDBRANCH  21  22
ENDBRANCH   9  21
BRANCH   1  25
HETATM   25  N1  UNL     1      24.342   6.917  51.157  1.00  0.00    -0.131 NA
HETATM   26  O1  UNL     1      23.885   8.015  51.117  1.00  0.00    -0.066 OA
ENDBRANCH   1  25
TORSDOF 5
ENDMDL
MODEL 3
REMARK VINA RESULT:      -7.1      3.053      5.079
REMARK  5 active torsions:
REMARK  status: ('A' for Active; 'I' for Inactive)
REMARK    1  A    between atoms: N1_2  and  C1_3 
REMARK    2  A    between atoms: N2_11  and  C8_12 
REMARK    3  A    between atoms: C8_12  and  C9_13 
REMARK    4  A    between atoms: C9_13  and  O2_14 
REMARK    5  A    between atoms: C10_16  and  C11_17 
ROOT
HETATM    1  C1  UNL     1      25.453   6.241  49.405  1.00  0.00     0.175 A 
HETATM    2  C2  UNL     1      26.698   6.049  48.587  1.00  0.00     0.062 A 
HETATM    3  C3  UNL     1      27.105   4.674  48.947  1.00  0.00    -0.016 A 
HETATM    4  C4  UNL     1      26.358   4.015  49.770  1.00  0.00    -0.045 A 
HETATM    5  C5  UNL     1      26.641   2.660  50.208  1.00  0.00     0.108 C 
HETATM    6  S1  UNL     1      25.661   2.360  51.711  1.00  0.00    -0.165 SA
HETATM    7  C6  UNL     1      25.887   0.912  52.395  1.00  0.00     0.027 C 
HETATM    8  C7  UNL     1      24.812   0.291  52.794  1.00  0.00     0.131 C 
HETATM    9  N2  UNL     1      23.417   0.537  52.688  1.00  0.00    -0.277 N 
HETATM   10  N3  UNL     1      22.964   1.249  51.616  1.00  0.00    -0.175 NA
HETATM   11  C10 UNL     1      23.118   2.356  51.039  1.00  0.00     0.082 C 
HETATM   12  C16 UNL     1      24.067   3.319  51.592  1.00  0.00     0.120 C 
HETATM   13  C17 UNL     1      24.312   4.562  50.888  1.00  0.00     0.004 C 
HETATM   14  C18 UNL     1      25.302   4.926  50.076  1.00  0.00    -0.026 A 
ENDROOT
BRANCH  11  15
HETATM   15  C11 UNL     1      22.240   2.423  49.876  1.00  0.00    -0.006 A 
HETATM   16  C12 UNL     1      22.611   2.489  48.573  1.00  0.00     0.032 A 
HETATM   17  C13 UNL     1      21.800   2.552  47.471  1.00  0.00     0.117 A 
HETATM   18  N4  UNL     1      20.477   2.549  47.682  1.00  0.00    -0.273 NA
HETATM   19  C14 UNL     1      19.990   2.485  48.930  1.00  0.00     0.117 A 
HETATM   20  C15 UNL     1      20.868   2.426  49.973  1.00  0.00     0.032 A 
ENDBRANCH  11  15
BRANCH   9  21
HETATM   21  C8  UNL     1      22.734  -0.092  53.840  1.00  0.00     0.176 C 
BRANCH  21  22
HETATM   22  C9  UNL     1      21.331   0.520  53.812  1.00  0.00     0.185 C 
BRANCH  22  23
HETATM   23  O2  UNL     1      20.591   0.099  54.891  1.00  0.00    -0.399 OA
HETATM   24  H12 UNL     1      19.670  -0.104  54.628  1.00  0.00     0.209 HD
ENDBRANCH  22  23
ENDBRANCH  21  22
ENDBRANCH   9  21
BRANCH   1  25
HETATM   25  N1  UNL     1      25.702   7.227  50.418  1.00  0.00    -0.131 NA
HETATM   26  O1  UNL     1      26.354   8.210  50.266  1.00  0.00    -0.066 OA
ENDBRANCH   1  25
TORSDOF 5
ENDMDL
MODEL 4
REMARK VINA RESULT:      -7.0      2.485      6.847
REMARK  5 active torsions:
REMARK  status: ('A' for Active; 'I' for Inactive)
REMARK    1  A    between atoms: N1_2  and  C1_3 
REMARK    2  A    between atoms: N2_11  and  C8_12 
REMARK    3  A    between atoms: C8_12  and  C9_13 
REMARK    4  A    between atoms: C9_13  and  O2_14 
REMARK    5  A    between atoms: C10_16  and  C11_17 
ROOT
HETATM    1  C1  UNL     1      21.434   5.545  50.525  1.00  0.00     0.175 A 
HETATM    2  C2  UNL     1      21.561   5.645  49.032  1.00  0.00     0.062 A 
HETATM    3  C3  UNL     1      22.710   4.759  48.751  1.00  0.00    -0.016 A 
HETATM    4  C4  UNL     1      23.260   4.144  49.746  1.00  0.00    -0.045 A 
HETATM    5  C5  UNL     1      24.393   3.246  49.612  1.00  0.00     0.108 C 
HETATM    6  S1  UNL     1      25.131   3.055  51.264  1.00  0.00    -0.165 SA
HETATM    7  C6  UNL     1      26.458   2.131  51.316  1.00  0.00     0.027 C 
HETATM    8  C7  UNL     1      26.527   1.278  52.299  1.00  0.00     0.131 C 
HETATM    9  N2  UNL     1      25.642   0.870  53.333  1.00  0.00    -0.277 N 
HETATM   10  N3  UNL     1      24.299   0.948  53.106  1.00  0.00    -0.175 NA
HETATM   11  C10 UNL     1      23.406   1.773  52.782  1.00  0.00     0.082 C 
HETATM   12  C16 UNL     1      23.779   3.165  52.543  1.00  0.00     0.120 C 
HETATM   13  C17 UNL     1      22.773   4.105  52.090  1.00  0.00     0.004 C 
HETATM   14  C18 UNL     1      22.499   4.574  50.875  1.00  0.00    -0.026 A 
ENDROOT
BRANCH  11  15
HETATM   15  C11 UNL     1      22.116   1.096  52.731  1.00  0.00    -0.006 A 
HETATM   16  C12 UNL     1      21.329   0.916  51.640  1.00  0.00     0.032 A 
HETATM   17  C13 UNL     1      20.116   0.282  51.574  1.00  0.00     0.117 A 
HETATM   18  N4  UNL     1      19.629  -0.228  52.714  1.00  0.00    -0.273 NA
HETATM   19  C14 UNL     1      20.318  -0.112  53.858  1.00  0.00     0.117 A 
HETATM   20  C15 UNL     1      21.519   0.535  53.836  1.00  0.00     0.032 A 
ENDBRANCH  11  15
BRANCH   9  21
HETATM   21  C8  UNL     1      26.442   0.411  54.490  1.00  0.00     0.176 C 
BRANCH  21  22
HETATM   22  C9  UNL     1      27.691  -0.200  53.851  1.00  0.00     0.185 C 
BRANCH  22  23
HETATM   23  O2  UNL     1      28.655  -0.450  54.799  1.00  0.00    -0.399 OA
HETATM   24  H12 UNL     1      28.390  -0.095  55.671  1.00  0.00     0.209 HD
ENDBRANCH  22  23
ENDBRANCH  21  22
ENDBRANCH   9  21
BRANCH   1  25
HETATM   25  N1  UNL     1      21.778   6.808  51.113  1.00  0.00    -0.131 NA
HETATM   26  O1  UNL     1      22.656   7.518  50.737  1.00  0.00    -0.066 OA
ENDBRANCH   1  25
TORSDOF 5
ENDMDL
MODEL 5
REMARK VINA RESULT:      -6.7      2.243      3.130
REMARK  5 active torsions:
REMARK  status: ('A' for Active; 'I' for Inactive)
REMARK    1  A    between atoms: N1_2  and  C1_3 
REMARK    2  A    between atoms: N2_11  and  C8_12 
REMARK    3  A    between atoms: C8_12  and  C9_13 
REMARK    4  A    between atoms: C9_13  and  O2_14 
REMARK    5  A    between atoms: C10_16  and  C11_17 
ROOT
HETATM    1  C1  UNL     1      26.736   1.199  53.458  1.00  0.00     0.175 A 
HETATM    2  C2  UNL     1      26.582  -0.246  53.078  1.00  0.00     0.062 A 
HETATM    3  C3  UNL     1      25.284  -0.252  52.371  1.00  0.00    -0.016 A 
HETATM    4  C4  UNL     1      24.664   0.873  52.232  1.00  0.00    -0.045 A 
HETATM    5  C5  UNL     1      23.383   1.010  51.560  1.00  0.00     0.108 C 
HETATM    6  S1  UNL     1      22.675   2.607  52.065  1.00  0.00    -0.165 SA
HETATM    7  C6  UNL     1      21.205   2.921  51.467  1.00  0.00     0.027 C 
HETATM    8  C7  UNL     1      21.014   4.130  51.015  1.00  0.00     0.131 C 
HETATM    9  N2  UNL     1      21.843   5.268  50.820  1.00  0.00    -0.277 N 
HETATM   10  N3  UNL     1      23.170   5.069  50.575  1.00  0.00    -0.175 NA
HETATM   11  C10 UNL     1      24.187   4.518  51.071  1.00  0.00     0.082 C 
HETATM   12  C16 UNL     1      24.063   3.818  52.347  1.00  0.00     0.120 C 
HETATM   13  C17 UNL     1      25.208   3.111  52.885  1.00  0.00     0.004 C 
HETATM   14  C18 UNL     1      25.525   1.819  52.867  1.00  0.00    -0.026 A 
ENDROOT
BRANCH  11  15
HETATM   15  C11 UNL     1      25.331   4.734  50.194  1.00  0.00    -0.006 A 
HETATM   16  C12 UNL     1      26.234   3.808  49.783  1.00  0.00     0.032 A 
HETATM   17  C13 UNL     1      27.313   3.994  48.960  1.00  0.00     0.117 A 
HETATM   18  N4  UNL     1      27.521   5.232  48.492  1.00  0.00    -0.273 NA
HETATM   19  C14 UNL     1      26.694   6.232  48.829  1.00  0.00     0.117 A 
HETATM   20  C15 UNL     1      25.642   5.961  49.655  1.00  0.00     0.032 A 
ENDBRANCH  11  15
BRANCH   9  21
HETATM   21  C8  UNL     1      21.010   6.486  50.923  1.00  0.00     0.176 C 
BRANCH  21  22
HETATM   22  C9  UNL     1      21.905   7.590  50.356  1.00  0.00     0.185 C 
BRANCH  22  23
HETATM   23  O2  UNL     1      22.985   7.816  51.177  1.00  0.00    -0.399 OA
HETATM   24  H12 UNL     1      22.697   8.147  52.052  1.00  0.00     0.209 HD
ENDBRANCH  22  23
ENDBRANCH  21  22
ENDBRANCH   9  21
BRANCH   1  25
HETATM   25  N1  UNL     1      26.644   1.324  54.884  1.00  0.00    -0.131 NA
HETATM   26  O1  UNL     1      26.440   0.423  55.635  1.00  0.00    -0.066 OA
ENDBRANCH   1  25
TORSDOF 5
ENDMDL
MODEL 6
REMARK VINA RESULT:      -6.6      2.866      5.630
REMARK  5 active torsions:
REMARK  status: ('A' for Active; 'I' for Inactive)
REMARK    1  A    between atoms: N1_2  and  C1_3 
REMARK    2  A    between atoms: N2_11  and  C8_12 
REMARK    3  A    between atoms: C8_12  and  C9_13 
REMARK    4  A    between atoms: C9_13  and  O2_14 
REMARK    5  A    between atoms: C10_16  and  C11_17 
ROOT
HETATM    1  C1  UNL     1      25.386   5.569  49.823  1.00  0.00     0.175 A 
HETATM    2  C2  UNL     1      25.208   6.898  50.499  1.00  0.00     0.062 A 
HETATM    3  C3  UNL     1      24.165   6.605  51.505  1.00  0.00    -0.016 A 
HETATM    4  C4  UNL     1      23.719   5.394  51.581  1.00  0.00    -0.045 A 
HETATM    5  C5  UNL     1      22.696   4.970  52.521  1.00  0.00     0.108 C 
HETATM    6  S1  UNL     1      22.031   3.387  51.919  1.00  0.00    -0.165 SA
HETATM    7  C6  UNL     1      20.824   2.774  52.805  1.00  0.00     0.027 C 
HETATM    8  C7  UNL     1      20.883   1.494  53.050  1.00  0.00     0.131 C 
HETATM    9  N2  UNL     1      21.838   0.471  52.801  1.00  0.00    -0.277 N 
HETATM   10  N3  UNL     1      23.155   0.817  52.729  1.00  0.00    -0.175 NA
HETATM   11  C10 UNL     1      23.935   1.581  52.103  1.00  0.00     0.082 C 
HETATM   12  C16 UNL     1      23.394   2.449  51.061  1.00  0.00     0.120 C 
HETATM   13  C17 UNL     1      24.269   3.390  50.392  1.00  0.00     0.004 C 
HETATM   14  C18 UNL     1      24.453   4.695  50.575  1.00  0.00    -0.026 A 
ENDROOT
BRANCH  11  15
HETATM   15  C11 UNL     1      25.295   1.395  52.597  1.00  0.00    -0.006 A 
HETATM   16  C12 UNL     1      26.013   2.256  53.361  1.00  0.00     0.032 A 
HETATM   17  C13 UNL     1      27.289   2.098  53.832  1.00  0.00     0.117 A 
HETATM   18  N4  UNL     1      27.923   0.961  53.513  1.00  0.00    -0.273 NA
HETATM   19  C14 UNL     1      27.314   0.033  52.762  1.00  0.00     0.117 A 
HETATM   20  C15 UNL     1      26.041   0.271  52.332  1.00  0.00     0.032 A 
ENDBRANCH  11  15
BRANCH   9  21
HETATM   21  C8  UNL     1      21.129  -0.822  52.685  1.00  0.00     0.176 C 
BRANCH  21  22
HETATM   22  C9  UNL     1      21.668  -1.641  53.861  1.00  0.00     0.185 C 
BRANCH  22  23
HETATM   23  O2  UNL     1      20.847  -1.524  54.957  1.00  0.00    -0.399 OA
HETATM   24  H12 UNL     1      21.358  -1.599  55.789  1.00  0.00     0.209 HD
ENDBRANCH  22  23
ENDBRANCH  21  22
ENDBRANCH   9  21
BRANCH   1  25
HETATM   25  N1  UNL     1      24.911   5.660  48.471  1.00  0.00    -0.131 NA
HETATM   26  O1  UNL     1      24.919   6.651  47.812  1.00  0.00    -0.066 OA
ENDBRANCH   1  25
TORSDOF 5
ENDMDL
MODEL 7
REMARK VINA RESULT:      -6.4      2.873      6.675
REMARK  5 active torsions:
REMARK  status: ('A' for Active; 'I' for Inactive)
REMARK    1  A    between atoms: N1_2  and  C1_3 
REMARK    2  A    between atoms: N2_11  and  C8_12 
REMARK    3  A    between atoms: C8_12  and  C9_13 
REMARK    4  A    between atoms: C9_13  and  O2_14 
REMARK    5  A    between atoms: C10_16  and  C11_17 
ROOT
HETATM    1  C1  UNL     1      21.306   5.098  48.163  1.00  0.00     0.175 A 
HETATM    2  C2  UNL     1      20.407   5.978  48.984  1.00  0.00     0.062 A 
HETATM    3  C3  UNL     1      20.792   5.623  50.366  1.00  0.00    -0.016 A 
HETATM    4  C4  UNL     1      21.734   4.754  50.530  1.00  0.00    -0.045 A 
HETATM    5  C5  UNL     1      22.210   4.315  51.830  1.00  0.00     0.108 C 
HETATM    6  S1  UNL     1      23.117   2.759  51.578  1.00  0.00    -0.165 SA
HETATM    7  C6  UNL     1      23.678   2.069  52.929  1.00  0.00     0.027 C 
HETATM    8  C7  UNL     1      24.897   1.607  52.877  1.00  0.00     0.131 C 
HETATM    9  N2  UNL     1      25.939   1.643  51.911  1.00  0.00    -0.277 N 
HETATM   10  N3  UNL     1      25.988   2.699  51.049  1.00  0.00    -0.175 NA
HETATM   11  C10 UNL     1      25.288   3.298  50.192  1.00  0.00     0.082 C 
HETATM   12  C16 UNL     1      23.941   2.807  49.907  1.00  0.00     0.120 C 
HETATM   13  C17 UNL     1      23.098   3.537  48.982  1.00  0.00     0.004 C 
HETATM   14  C18 UNL     1      22.111   4.404  49.198  1.00  0.00    -0.026 A 
ENDROOT
BRANCH  11  15
HETATM   15  C11 UNL     1      26.047   4.413  49.639  1.00  0.00    -0.006 A 
HETATM   16  C12 UNL     1      27.230   4.349  48.979  1.00  0.00     0.032 A 
HETATM   17  C13 UNL     1      27.956   5.386  48.453  1.00  0.00     0.117 A 
HETATM   18  N4  UNL     1      27.454   6.620  48.596  1.00  0.00    -0.273 NA
HETATM   19  C14 UNL     1      26.288   6.808  49.231  1.00  0.00     0.117 A 
HETATM   20  C15 UNL     1      25.629   5.720  49.725  1.00  0.00     0.032 A 
ENDBRANCH  11  15
BRANCH   9  21
HETATM   21  C8  UNL     1      26.795   0.450  52.091  1.00  0.00     0.176 C 
BRANCH  21  22
HETATM   22  C9  UNL     1      26.997   0.370  53.606  1.00  0.00     0.185 C 
BRANCH  22  23
HETATM   23  O2  UNL     1      27.429  -0.881  53.978  1.00  0.00    -0.399 OA
HETATM   24  H12 UNL     1      26.685  -1.517  54.000  1.00  0.00     0.209 HD
ENDBRANCH  22  23
ENDBRANCH  21  22
ENDBRANCH   9  21
BRANCH   1  25
HETATM   25  N1  UNL     1      20.511   4.112  47.488  1.00  0.00    -0.131 NA
HETATM   26  O1  UNL     1      20.837   3.535  46.500  1.00  0.00    -0.066 OA
ENDBRANCH   1  25
TORSDOF 5
ENDMDL
MODEL 8
REMARK VINA RESULT:      -6.4      3.658      7.731
REMARK  5 active torsions:
REMARK  status: ('A' for Active; 'I' for Inactive)
REMARK    1  A    between atoms: N1_2  and  C1_3 
REMARK    2  A    between atoms: N2_11  and  C8_12 
REMARK    3  A    between atoms: C8_12  and  C9_13 
REMARK    4  A    between atoms: C9_13  and  O2_14 
REMARK    5  A    between atoms: C10_16  and  C11_17 
ROOT
HETATM    1  C1  UNL     1      22.500   7.895  46.931  1.00  0.00     0.175 A 
HETATM    2  C2  UNL     1      21.999   9.153  47.580  1.00  0.00     0.062 A 
HETATM    3  C3  UNL     1      22.101   8.830  49.019  1.00  0.00    -0.016 A 
HETATM    4  C4  UNL     1      22.577   7.675  49.349  1.00  0.00    -0.045 A 
HETATM    5  C5  UNL     1      22.732   7.229  50.723  1.00  0.00     0.108 C 
HETATM    6  S1  UNL     1      22.917   5.420  50.688  1.00  0.00    -0.165 SA
HETATM    7  C6  UNL     1      23.041   4.719  52.140  1.00  0.00     0.027 C 
HETATM    8  C7  UNL     1      23.952   3.794  52.257  1.00  0.00     0.131 C 
HETATM    9  N2  UNL     1      24.978   3.289  51.413  1.00  0.00    -0.277 N 
HETATM   10  N3  UNL     1      25.526   4.126  50.486  1.00  0.00    -0.175 NA
HETATM   11  C10 UNL     1      25.204   4.858  49.515  1.00  0.00     0.082 C 
HETATM   12  C16 UNL     1      23.800   4.936  49.119  1.00  0.00     0.120 C 
HETATM   13  C17 UNL     1      23.408   5.839  48.056  1.00  0.00     0.004 C 
HETATM   14  C18 UNL     1      22.864   7.053  48.096  1.00  0.00    -0.026 A 
ENDROOT
BRANCH  11  15
HETATM   15  C11 UNL     1      26.398   5.492  48.968  1.00  0.00    -0.006 A 
HETATM   16  C12 UNL     1      26.549   6.797  48.629  1.00  0.00     0.032 A 
HETATM   17  C13 UNL     1      27.662   7.408  48.116  1.00  0.00     0.117 A 
HETATM   18  N4  UNL     1      28.745   6.643  47.918  1.00  0.00    -0.273 NA
HETATM   19  C14 UNL     1      28.716   5.337  48.217  1.00  0.00     0.117 A 
HETATM   20  C15 UNL     1      27.565   4.807  48.724  1.00  0.00     0.032 A 
ENDBRANCH  11  15
BRANCH   9  21
HETATM   21  C8  UNL     1      25.239   1.878  51.774  1.00  0.00     0.176 C 
BRANCH  21  22
HETATM   22  C9  UNL     1      26.735   1.701  51.502  1.00  0.00     0.185 C 
BRANCH  22  23
HETATM   23  O2  UNL     1      27.453   2.762  52.001  1.00  0.00    -0.399 OA
HETATM   24  H12 UNL     1      27.055   3.614  51.729  1.00  0.00     0.209 HD
ENDBRANCH  22  23
ENDBRANCH  21  22
ENDBRANCH   9  21
BRANCH   1  25
HETATM   25  N1  UNL     1      21.414   7.253  46.246  1.00  0.00    -0.131 NA
HETATM   26  O1  UNL     1      20.398   7.787  45.929  1.00  0.00    -0.066 OA
ENDBRANCH   1  25
TORSDOF 5
ENDMDL
MODEL 9
REMARK VINA RESULT:      -6.4      2.812      5.989
REMARK  5 active torsions:
REMARK  status: ('A' for Active; 'I' for Inactive)
REMARK    1  A    between atoms: N1_2  and  C1_3 
REMARK    2  A    between atoms: N2_11  and  C8_12 
REMARK    3  A    between atoms: C8_12  and  C9_13 
REMARK    4  A    between atoms: C9_13  and  O2_14 
REMARK    5  A    between atoms: C10_16  and  C11_17 
ROOT
HETATM    1  C1  UNL     1      23.643   4.153  48.928  1.00  0.00     0.175 A 
HETATM    2  C2  UNL     1      23.292   5.579  49.242  1.00  0.00     0.062 A 
HETATM    3  C3  UNL     1      22.486   5.444  50.473  1.00  0.00    -0.016 A 
HETATM    4  C4  UNL     1      22.315   4.258  50.960  1.00  0.00    -0.045 A 
HETATM    5  C5  UNL     1      21.547   3.983  52.161  1.00  0.00     0.108 C 
HETATM    6  S1  UNL     1      21.145   2.209  52.152  1.00  0.00    -0.165 SA
HETATM    7  C6  UNL     1      20.229   1.710  53.389  1.00  0.00     0.027 C 
HETATM    8  C7  UNL     1      20.586   0.590  53.954  1.00  0.00     0.131 C 
HETATM    9  N2  UNL     1      21.686  -0.297  53.808  1.00  0.00    -0.277 N 
HETATM   10  N3  UNL     1      22.880   0.213  53.389  1.00  0.00    -0.175 NA
HETATM   11  C10 UNL     1      23.388   0.864  52.439  1.00  0.00     0.082 C 
HETATM   12  C16 UNL     1      22.536   1.281  51.328  1.00  0.00     0.120 C 
HETATM   13  C17 UNL     1      23.093   2.101  50.272  1.00  0.00     0.004 C 
HETATM   14  C18 UNL     1      23.028   3.413  50.056  1.00  0.00    -0.026 A 
ENDROOT
BRANCH  11  15
HETATM   15  C11 UNL     1      24.812   1.051  52.687  1.00  0.00    -0.006 A 
HETATM   16  C12 UNL     1      25.816   0.191  52.381  1.00  0.00     0.032 A 
HETATM   17  C13 UNL     1      27.158   0.351  52.606  1.00  0.00     0.117 A 
HETATM   18  N4  UNL     1      27.548   1.488  53.199  1.00  0.00    -0.273 NA
HETATM   19  C14 UNL     1      26.646   2.415  53.548  1.00  0.00     0.117 A 
HETATM   20  C15 UNL     1      25.328   2.176  53.288  1.00  0.00     0.032 A 
ENDBRANCH  11  15
BRANCH   9  21
HETATM   21  C8  UNL     1      21.252  -1.660  54.187  1.00  0.00     0.176 C 
BRANCH  21  22
HETATM   22  C9  UNL     1      22.513  -2.295  54.778  1.00  0.00     0.185 C 
BRANCH  22  23
HETATM   23  O2  UNL     1      22.990  -1.551  55.831  1.00  0.00    -0.399 OA
HETATM   24  H12 UNL     1      23.890  -1.839  56.085  1.00  0.00     0.209 HD
ENDBRANCH  22  23
ENDBRANCH  21  22
ENDBRANCH   9  21
BRANCH   1  25
HETATM   25  N1  UNL     1      22.972   3.757  47.723  1.00  0.00    -0.131 NA
HETATM   26  O1  UNL     1      21.806   3.883  47.519  1.00  0.00    -0.066 OA
ENDBRANCH   1  25
TORSDOF 5
ENDMDL
