MODEL 1
REMARK VINA RESULT:      -8.5      0.000      0.000
REMARK  6 active torsions:
REMARK  status: ('A' for Active; 'I' for Inactive)
REMARK    1  A    between atoms: C2_2  and  C3_3 
REMARK    2  A    between atoms: C9_10  and  C10_11 
REMARK    3  A    between atoms: C14_15  and  O1_16 
REMARK    4  A    between atoms: O1_16  and  C15_17 
REMARK    5  A    between atoms: C15_17  and  C16_18 
REMARK    6  A    between atoms: C16_18  and  O2_19 
ROOT
HETATM    1  C3  UNL     1      32.329   4.349  46.244  1.00  0.00     0.062 C 
HETATM    2  C4  UNL     1      33.104   4.855  45.155  1.00  0.00     0.089 C 
HETATM    3  C5  UNL     1      33.262   6.340  45.446  1.00  0.00     0.162 C 
HETATM    4  N1  UNL     1      32.212   6.633  44.834  1.00  0.00    -0.267 NA
HETATM    5  C6  UNL     1      31.448   7.728  44.511  1.00  0.00     0.152 C 
HETATM    6  C7  UNL     1      30.632   8.363  45.561  1.00  0.00     0.028 C 
HETATM    7  C8  UNL     1      29.572   7.689  46.296  1.00  0.00     0.063 C 
HETATM    8  C9  UNL     1      29.836   6.567  47.192  1.00  0.00     0.065 C 
HETATM    9  N2  UNL     1      30.666   5.655  47.629  1.00  0.00    -0.171 NA
HETATM   10  N3  UNL     1      31.903   5.310  47.342  1.00  0.00    -0.234 N 
HETATM   11  C18 UNL     1      32.948   5.983  48.074  1.00  0.00     0.063 C 
HETATM   12  C19 UNL     1      34.243   6.074  48.359  1.00  0.00    -0.025 C 
HETATM   13  C20 UNL     1      35.332   5.479  49.212  1.00  0.00     0.048 C 
HETATM   14  C21 UNL     1      34.631   7.219  47.488  1.00  0.00     0.165 C 
HETATM   15  C22 UNL     1      34.101   8.377  48.296  1.00  0.00     0.064 C 
HETATM   16  C23 UNL     1      33.048   7.949  49.309  1.00  0.00    -0.022 C 
HETATM   17  C24 UNL     1      32.185   7.134  48.671  1.00  0.00     0.028 C 
HETATM   18  O3  UNL     1      34.204   7.143  46.145  1.00  0.00    -0.324 OA
ENDROOT
BRANCH   8  19
HETATM   19  C10 UNL     1      28.565   6.234  47.907  1.00  0.00    -0.007 A 
HETATM   20  C11 UNL     1      27.509   7.124  48.167  1.00  0.00     0.013 A 
HETATM   21  C12 UNL     1      26.331   6.908  48.813  1.00  0.00     0.004 A 
HETATM   22  C13 UNL     1      26.137   5.632  49.281  1.00  0.00     0.037 A 
HETATM   23  C14 UNL     1      27.070   4.648  49.109  1.00  0.00     0.069 A 
HETATM   24  C17 UNL     1      28.203   4.998  48.448  1.00  0.00     0.050 A 
BRANCH  23  25
HETATM   25  O1  UNL     1      26.928   3.348  49.561  1.00  0.00    -0.349 OA
BRANCH  25  26
HETATM   26  C15 UNL     1      26.089   3.116  50.668  1.00  0.00     0.201 C 
BRANCH  26  27
HETATM   27  C16 UNL     1      26.826   2.136  51.592  1.00  0.00     0.190 C 
BRANCH  27  28
HETATM   28  O2  UNL     1      27.835   2.771  52.281  1.00  0.00    -0.399 OA
HETATM   29  H18 UNL     1      27.797   2.674  53.250  1.00  0.00     0.209 HD
ENDBRANCH  27  28
ENDBRANCH  26  27
ENDBRANCH  25  26
ENDBRANCH  23  25
ENDBRANCH   8  19
BRANCH   1  30
HETATM   30  C2  UNL     1      31.853   2.997  46.498  1.00  0.00     0.021 C 
HETATM   31  C1  UNL     1      32.438   1.872  46.876  1.00  0.00     0.013 C 
ENDBRANCH   1  30
TORSDOF 6
ENDMDL
MODEL 2
REMARK VINA RESULT:      -8.3      3.631      8.793
REMARK  6 active torsions:
REMARK  status: ('A' for Active; 'I' for Inactive)
REMARK    1  A    between atoms: C2_2  and  C3_3 
REMARK    2  A    between atoms: C9_10  and  C10_11 
REMARK    3  A    between atoms: C14_15  and  O1_16 
REMARK    4  A    between atoms: O1_16  and  C15_17 
REMARK    5  A    between atoms: C15_17  and  C16_18 
REMARK    6  A    between atoms: C16_18  and  O2_19 
ROOT
HETATM    1  C3  UNL     1      24.977   2.906  51.072  1.00  0.00     0.062 C 
HETATM    2  C4  UNL     1      24.049   3.062  52.148  1.00  0.00     0.089 C 
HETATM    3  C5  UNL     1      23.038   4.081  51.645  1.00  0.00     0.162 C 
HETATM    4  N1  UNL     1      23.704   5.046  52.079  1.00  0.00    -0.267 NA
HETATM    5  C6  UNL     1      23.661   6.418  52.135  1.00  0.00     0.152 C 
HETATM    6  C7  UNL     1      23.941   7.191  50.912  1.00  0.00     0.028 C 
HETATM    7  C8  UNL     1      25.196   7.138  50.177  1.00  0.00     0.063 C 
HETATM    8  C9  UNL     1      25.657   5.926  49.507  1.00  0.00     0.065 C 
HETATM    9  N2  UNL     1      25.537   4.637  49.317  1.00  0.00    -0.171 NA
HETATM   10  N3  UNL     1      24.750   3.697  49.794  1.00  0.00    -0.234 N 
HETATM   11  C18 UNL     1      23.512   3.471  49.089  1.00  0.00     0.063 C 
HETATM   12  C19 UNL     1      22.420   2.728  48.942  1.00  0.00    -0.025 C 
HETATM   13  C20 UNL     1      21.904   1.456  48.323  1.00  0.00     0.048 C 
HETATM   14  C21 UNL     1      21.422   3.572  49.658  1.00  0.00     0.165 C 
HETATM   15  C22 UNL     1      21.159   4.635  48.622  1.00  0.00     0.064 C 
HETATM   16  C23 UNL     1      22.262   4.717  47.576  1.00  0.00    -0.022 C 
HETATM   17  C24 UNL     1      23.439   4.707  48.233  1.00  0.00     0.028 C 
HETATM   18  O3  UNL     1      21.805   4.024  50.939  1.00  0.00    -0.324 OA
ENDROOT
BRANCH   8  19
HETATM   19  C10 UNL     1      26.878   6.269  48.713  1.00  0.00    -0.007 A 
HETATM   20  C11 UNL     1      27.010   7.358  47.835  1.00  0.00     0.013 A 
HETATM   21  C12 UNL     1      28.073   7.736  47.074  1.00  0.00     0.004 A 
HETATM   22  C13 UNL     1      29.187   6.939  47.176  1.00  0.00     0.037 A 
HETATM   23  C14 UNL     1      29.220   5.840  47.988  1.00  0.00     0.069 A 
HETATM   24  C17 UNL     1      28.090   5.575  48.692  1.00  0.00     0.050 A 
BRANCH  23  25
HETATM   25  O1  UNL     1      30.313   5.003  48.128  1.00  0.00    -0.349 OA
BRANCH  25  26
HETATM   26  C15 UNL     1      31.594   5.586  48.188  1.00  0.00     0.201 C 
BRANCH  26  27
HETATM   27  C16 UNL     1      31.742   6.198  49.588  1.00  0.00     0.190 C 
BRANCH  27  28
HETATM   28  O2  UNL     1      31.372   5.298  50.563  1.00  0.00    -0.399 OA
HETATM   29  H18 UNL     1      31.546   5.584  51.477  1.00  0.00     0.209 HD
ENDBRANCH  27  28
ENDBRANCH  26  27
ENDBRANCH  25  26
ENDBRANCH  23  25
ENDBRANCH   8  19
BRANCH   1  30
HETATM   30  C2  UNL     1      26.167   2.072  50.983  1.00  0.00     0.021 C 
HETATM   31  C1  UNL     1      26.724   1.177  51.782  1.00  0.00     0.013 C 
ENDBRANCH   1  30
TORSDOF 6
ENDMDL
MODEL 3
REMARK VINA RESULT:      -8.3      7.493     10.114
REMARK  6 active torsions:
REMARK  status: ('A' for Active; 'I' for Inactive)
REMARK    1  A    between atoms: C2_2  and  C3_3 
REMARK    2  A    between atoms: C9_10  and  C10_11 
REMARK    3  A    between atoms: C14_15  and  O1_16 
REMARK    4  A    between atoms: O1_16  and  C15_17 
REMARK    5  A    between atoms: C15_17  and  C16_18 
REMARK    6  A    between atoms: C16_18  and  O2_19 
ROOT
HETATM    1  C3  UNL     1      24.967   3.004  49.970  1.00  0.00     0.062 C 
HETATM    2  C4  UNL     1      24.533   3.230  48.627  1.00  0.00     0.089 C 
HETATM    3  C5  UNL     1      23.035   3.469  48.736  1.00  0.00     0.162 C 
HETATM    4  N1  UNL     1      22.771   2.253  48.616  1.00  0.00    -0.267 NA
HETATM    5  C6  UNL     1      21.691   1.404  48.587  1.00  0.00     0.152 C 
HETATM    6  C7  UNL     1      20.987   1.104  49.847  1.00  0.00     0.028 C 
HETATM    7  C8  UNL     1      21.607   0.472  51.003  1.00  0.00     0.063 C 
HETATM    8  C9  UNL     1      22.675   1.115  51.762  1.00  0.00     0.065 C 
HETATM    9  N2  UNL     1      23.566   2.068  51.855  1.00  0.00    -0.171 NA
HETATM   10  N3  UNL     1      23.938   3.070  51.087  1.00  0.00    -0.234 N 
HETATM   11  C18 UNL     1      23.230   4.315  51.261  1.00  0.00     0.063 C 
HETATM   12  C19 UNL     1      23.133   5.605  50.959  1.00  0.00    -0.025 C 
HETATM   13  C20 UNL     1      23.684   6.966  51.298  1.00  0.00     0.048 C 
HETATM   14  C21 UNL     1      22.045   5.563  49.942  1.00  0.00     0.165 C 
HETATM   15  C22 UNL     1      20.837   5.408  50.829  1.00  0.00     0.064 C 
HETATM   16  C23 UNL     1      21.194   4.897  52.219  1.00  0.00    -0.022 C 
HETATM   17  C24 UNL     1      22.040   3.859  52.060  1.00  0.00     0.028 C 
HETATM   18  O3  UNL     1      22.199   4.605  48.917  1.00  0.00    -0.324 OA
ENDROOT
BRANCH   8  19
HETATM   19  C10 UNL     1      22.955   0.277  52.971  1.00  0.00    -0.007 A 
HETATM   20  C11 UNL     1      21.990  -0.351  53.777  1.00  0.00     0.013 A 
HETATM   21  C12 UNL     1      22.156  -1.117  54.890  1.00  0.00     0.004 A 
HETATM   22  C13 UNL     1      23.455  -1.311  55.288  1.00  0.00     0.037 A 
HETATM   23  C14 UNL     1      24.509  -0.766  54.610  1.00  0.00     0.069 A 
HETATM   24  C17 UNL     1      24.205  -0.021  53.516  1.00  0.00     0.050 A 
BRANCH  23  25
HETATM   25  O1  UNL     1      25.836  -0.928  54.967  1.00  0.00    -0.349 OA
BRANCH  25  26
HETATM   26  C15 UNL     1      26.647   0.220  55.054  1.00  0.00     0.201 C 
BRANCH  26  27
HETATM   27  C16 UNL     1      27.931  -0.076  54.265  1.00  0.00     0.190 C 
BRANCH  27  28
HETATM   28  O2  UNL     1      27.939  -1.374  53.804  1.00  0.00    -0.399 OA
HETATM   29  H18 UNL     1      27.754  -1.476  52.854  1.00  0.00     0.209 HD
ENDBRANCH  27  28
ENDBRANCH  26  27
ENDBRANCH  25  26
ENDBRANCH  23  25
ENDBRANCH   8  19
BRANCH   1  30
HETATM   30  C2  UNL     1      26.297   2.707  50.481  1.00  0.00     0.021 C 
HETATM   31  C1  UNL     1      26.774   2.392  51.674  1.00  0.00     0.013 C 
ENDBRANCH   1  30
TORSDOF 6
ENDMDL
MODEL 4
REMARK VINA RESULT:      -8.2      5.068      9.968
REMARK  6 active torsions:
REMARK  status: ('A' for Active; 'I' for Inactive)
REMARK    1  A    between atoms: C2_2  and  C3_3 
REMARK    2  A    between atoms: C9_10  and  C10_11 
REMARK    3  A    between atoms: C14_15  and  O1_16 
REMARK    4  A    between atoms: O1_16  and  C15_17 
REMARK    5  A    between atoms: C15_17  and  C16_18 
REMARK    6  A    between atoms: C16_18  and  O2_19 
ROOT
HETATM    1  C3  UNL     1      22.952   3.913  52.141  1.00  0.00     0.062 C 
HETATM    2  C4  UNL     1      21.631   4.353  52.465  1.00  0.00     0.089 C 
HETATM    3  C5  UNL     1      20.930   4.504  51.123  1.00  0.00     0.162 C 
HETATM    4  N1  UNL     1      21.295   5.693  50.999  1.00  0.00    -0.267 NA
HETATM    5  C6  UNL     1      21.190   6.743  50.120  1.00  0.00     0.152 C 
HETATM    6  C7  UNL     1      21.974   6.710  48.872  1.00  0.00     0.028 C 
HETATM    7  C8  UNL     1      23.428   6.650  48.818  1.00  0.00     0.063 C 
HETATM    8  C9  UNL     1      24.180   5.501  49.312  1.00  0.00     0.065 C 
HETATM    9  N2  UNL     1      24.199   4.384  49.994  1.00  0.00    -0.171 NA
HETATM   10  N3  UNL     1      23.309   3.699  50.679  1.00  0.00    -0.234 N 
HETATM   11  C18 UNL     1      22.538   2.725  49.947  1.00  0.00     0.063 C 
HETATM   12  C19 UNL     1      21.656   1.732  49.980  1.00  0.00    -0.025 C 
HETATM   13  C20 UNL     1      21.518   0.253  50.231  1.00  0.00     0.048 C 
HETATM   14  C21 UNL     1      20.417   2.457  49.585  1.00  0.00     0.165 C 
HETATM   15  C22 UNL     1      20.624   2.576  48.096  1.00  0.00     0.064 C 
HETATM   16  C23 UNL     1      22.081   2.390  47.693  1.00  0.00    -0.022 C 
HETATM   17  C24 UNL     1      22.827   3.138  48.529  1.00  0.00     0.028 C 
HETATM   18  O3  UNL     1      20.158   3.658  50.280  1.00  0.00    -0.324 OA
ENDROOT
BRANCH   8  19
HETATM   19  C10 UNL     1      25.618   5.694  48.947  1.00  0.00    -0.007 A 
HETATM   20  C11 UNL     1      26.611   4.699  48.958  1.00  0.00     0.013 A 
HETATM   21  C12 UNL     1      27.933   4.790  48.651  1.00  0.00     0.004 A 
HETATM   22  C13 UNL     1      28.370   6.035  48.271  1.00  0.00     0.037 A 
HETATM   23  C14 UNL     1      27.527   7.109  48.209  1.00  0.00     0.069 A 
HETATM   24  C17 UNL     1      26.231   6.882  48.542  1.00  0.00     0.050 A 
BRANCH  23  25
HETATM   25  O1  UNL     1      27.913   8.385  47.834  1.00  0.00    -0.349 OA
BRANCH  25  26
HETATM   26  C15 UNL     1      27.475   9.470  48.617  1.00  0.00     0.201 C 
BRANCH  26  27
HETATM   27  C16 UNL     1      28.399   9.539  49.842  1.00  0.00     0.190 C 
BRANCH  27  28
HETATM   28  O2  UNL     1      27.672   9.694  51.001  1.00  0.00    -0.399 OA
HETATM   29  H18 UNL     1      27.521   8.875  51.506  1.00  0.00     0.209 HD
ENDBRANCH  27  28
ENDBRANCH  26  27
ENDBRANCH  25  26
ENDBRANCH  23  25
ENDBRANCH   8  19
BRANCH   1  30
HETATM   30  C2  UNL     1      24.075   3.618  53.019  1.00  0.00     0.021 C 
HETATM   31  C1  UNL     1      24.878   2.576  53.165  1.00  0.00     0.013 C 
ENDBRANCH   1  30
TORSDOF 6
ENDMDL
MODEL 5
REMARK VINA RESULT:      -7.8      7.425     10.369
REMARK  6 active torsions:
REMARK  status: ('A' for Active; 'I' for Inactive)
REMARK    1  A    between atoms: C2_2  and  C3_3 
REMARK    2  A    between atoms: C9_10  and  C10_11 
REMARK    3  A    between atoms: C14_15  and  O1_16 
REMARK    4  A    between atoms: O1_16  and  C15_17 
REMARK    5  A    between atoms: C15_17  and  C16_18 
REMARK    6  A    between atoms: C16_18  and  O2_19 
ROOT
HETATM    1  C3  UNL     1      21.155   4.393  51.243  1.00  0.00     0.062 C 
HETATM    2  C4  UNL     1      21.094   5.750  50.797  1.00  0.00     0.089 C 
HETATM    3  C5  UNL     1      21.916   5.778  49.518  1.00  0.00     0.162 C 
HETATM    4  N1  UNL     1      22.976   6.027  50.132  1.00  0.00    -0.267 NA
HETATM    5  C6  UNL     1      24.311   6.240  49.892  1.00  0.00     0.152 C 
HETATM    6  C7  UNL     1      25.165   5.091  49.539  1.00  0.00     0.028 C 
HETATM    7  C8  UNL     1      25.379   3.935  50.398  1.00  0.00     0.063 C 
HETATM    8  C9  UNL     1      24.301   3.016  50.751  1.00  0.00     0.065 C 
HETATM    9  N2  UNL     1      23.020   2.751  50.780  1.00  0.00    -0.171 NA
HETATM   10  N3  UNL     1      21.931   3.387  50.407  1.00  0.00    -0.234 N 
HETATM   11  C18 UNL     1      21.495   3.183  49.047  1.00  0.00     0.063 C 
HETATM   12  C19 UNL     1      20.562   3.382  48.122  1.00  0.00    -0.025 C 
HETATM   13  C20 UNL     1      19.236   2.874  47.621  1.00  0.00     0.048 C 
HETATM   14  C21 UNL     1      21.174   4.507  47.361  1.00  0.00     0.165 C 
HETATM   15  C22 UNL     1      22.201   3.767  46.543  1.00  0.00     0.064 C 
HETATM   16  C23 UNL     1      22.529   2.396  47.120  1.00  0.00    -0.022 C 
HETATM   17  C24 UNL     1      22.722   2.554  48.445  1.00  0.00     0.028 C 
HETATM   18  O3  UNL     1      21.647   5.589  48.134  1.00  0.00    -0.324 OA
ENDROOT
BRANCH   8  19
HETATM   19  C10 UNL     1      24.899   1.861  51.491  1.00  0.00    -0.007 A 
HETATM   20  C11 UNL     1      26.237   1.439  51.415  1.00  0.00     0.013 A 
HETATM   21  C12 UNL     1      26.857   0.403  52.042  1.00  0.00     0.004 A 
HETATM   22  C13 UNL     1      26.063  -0.346  52.876  1.00  0.00     0.037 A 
HETATM   23  C14 UNL     1      24.738  -0.065  53.059  1.00  0.00     0.069 A 
HETATM   24  C17 UNL     1      24.245   0.997  52.372  1.00  0.00     0.050 A 
BRANCH  23  25
HETATM   25  O1  UNL     1      23.893  -0.784  53.885  1.00  0.00    -0.349 OA
BRANCH  25  26
HETATM   26  C15 UNL     1      22.573  -1.013  53.450  1.00  0.00     0.201 C 
BRANCH  26  27
HETATM   27  C16 UNL     1      21.648  -0.676  54.629  1.00  0.00     0.190 C 
BRANCH  27  28
HETATM   28  O2  UNL     1      20.800  -1.725  54.907  1.00  0.00    -0.399 OA
HETATM   29  H18 UNL     1      20.846  -2.470  54.281  1.00  0.00     0.209 HD
ENDBRANCH  27  28
ENDBRANCH  26  27
ENDBRANCH  25  26
ENDBRANCH  23  25
ENDBRANCH   8  19
BRANCH   1  30
HETATM   30  C2  UNL     1      20.569   3.773  52.422  1.00  0.00     0.021 C 
HETATM   31  C1  UNL     1      20.360   2.521  52.795  1.00  0.00     0.013 C 
ENDBRANCH   1  30
TORSDOF 6
ENDMDL
MODEL 6
REMARK VINA RESULT:      -7.7      4.354      9.473
REMARK  6 active torsions:
REMARK  status: ('A' for Active; 'I' for Inactive)
REMARK    1  A    between atoms: C2_2  and  C3_3 
REMARK    2  A    between atoms: C9_10  and  C10_11 
REMARK    3  A    between atoms: C14_15  and  O1_16 
REMARK    4  A    between atoms: O1_16  and  C15_17 
REMARK    5  A    between atoms: C15_17  and  C16_18 
REMARK    6  A    between atoms: C16_18  and  O2_19 
ROOT
HETATM    1  C3  UNL     1      23.552   3.797  51.405  1.00  0.00     0.062 C 
HETATM    2  C4  UNL     1      22.356   4.102  52.127  1.00  0.00     0.089 C 
HETATM    3  C5  UNL     1      21.424   4.717  51.093  1.00  0.00     0.162 C 
HETATM    4  N1  UNL     1      21.849   5.873  51.309  1.00  0.00    -0.267 NA
HETATM    5  C6  UNL     1      21.659   7.164  50.883  1.00  0.00     0.152 C 
HETATM    6  C7  UNL     1      22.183   7.565  49.565  1.00  0.00     0.028 C 
HETATM    7  C8  UNL     1      23.589   7.520  49.193  1.00  0.00     0.063 C 
HETATM    8  C9  UNL     1      24.331   6.267  49.098  1.00  0.00     0.065 C 
HETATM    9  N2  UNL     1      24.395   4.982  49.338  1.00  0.00    -0.171 NA
HETATM   10  N3  UNL     1      23.603   4.105  49.918  1.00  0.00    -0.234 N 
HETATM   11  C18 UNL     1      22.632   3.453  49.074  1.00  0.00     0.063 C 
HETATM   12  C19 UNL     1      21.699   2.515  48.949  1.00  0.00    -0.025 C 
HETATM   13  C20 UNL     1      21.497   1.043  48.703  1.00  0.00     0.048 C 
HETATM   14  C21 UNL     1      20.466   3.340  49.092  1.00  0.00     0.165 C 
HETATM   15  C22 UNL     1      20.391   3.971  47.724  1.00  0.00     0.064 C 
HETATM   16  C23 UNL     1      21.724   3.930  46.988  1.00  0.00    -0.022 C 
HETATM   17  C24 UNL     1      22.674   4.334  47.855  1.00  0.00     0.028 C 
HETATM   18  O3  UNL     1      20.441   4.224  50.192  1.00  0.00    -0.324 OA
ENDROOT
BRANCH   8  19
HETATM   19  C10 UNL     1      25.682   6.568  48.530  1.00  0.00    -0.007 A 
HETATM   20  C11 UNL     1      25.998   7.644  47.683  1.00  0.00     0.013 A 
HETATM   21  C12 UNL     1      27.189   7.984  47.119  1.00  0.00     0.004 A 
HETATM   22  C13 UNL     1      28.244   7.159  47.419  1.00  0.00     0.037 A 
HETATM   23  C14 UNL     1      28.102   6.068  48.230  1.00  0.00     0.069 A 
HETATM   24  C17 UNL     1      26.858   5.841  48.726  1.00  0.00     0.050 A 
BRANCH  23  25
HETATM   25  O1  UNL     1      29.129   5.203  48.565  1.00  0.00    -0.349 OA
BRANCH  25  26
HETATM   26  C15 UNL     1      30.396   5.420  47.989  1.00  0.00     0.201 C 
BRANCH  26  27
HETATM   27  C16 UNL     1      31.286   6.029  49.082  1.00  0.00     0.190 C 
BRANCH  27  28
HETATM   28  O2  UNL     1      31.973   5.049  49.763  1.00  0.00    -0.399 OA
HETATM   29  H18 UNL     1      32.693   5.370  50.336  1.00  0.00     0.209 HD
ENDBRANCH  27  28
ENDBRANCH  26  27
ENDBRANCH  25  26
ENDBRANCH  23  25
ENDBRANCH   8  19
BRANCH   1  30
HETATM   30  C2  UNL     1      24.797   3.207  51.875  1.00  0.00     0.021 C 
HETATM   31  C1  UNL     1      25.499   2.141  51.527  1.00  0.00     0.013 C 
ENDBRANCH   1  30
TORSDOF 6
ENDMDL
MODEL 7
REMARK VINA RESULT:      -7.4      8.153     11.016
REMARK  6 active torsions:
REMARK  status: ('A' for Active; 'I' for Inactive)
REMARK    1  A    between atoms: C2_2  and  C3_3 
REMARK    2  A    between atoms: C9_10  and  C10_11 
REMARK    3  A    between atoms: C14_15  and  O1_16 
REMARK    4  A    between atoms: O1_16  and  C15_17 
REMARK    5  A    between atoms: C15_17  and  C16_18 
REMARK    6  A    between atoms: C16_18  and  O2_19 
ROOT
HETATM    1  C3  UNL     1      23.646   3.705  51.214  1.00  0.00     0.062 C 
HETATM    2  C4  UNL     1      24.343   4.005  50.002  1.00  0.00     0.089 C 
HETATM    3  C5  UNL     1      23.255   4.124  48.946  1.00  0.00     0.162 C 
HETATM    4  N1  UNL     1      23.303   2.905  48.672  1.00  0.00    -0.267 NA
HETATM    5  C6  UNL     1      22.710   1.984  47.843  1.00  0.00     0.152 C 
HETATM    6  C7  UNL     1      21.339   1.533  48.144  1.00  0.00     0.028 C 
HETATM    7  C8  UNL     1      20.948   0.859  49.374  1.00  0.00     0.063 C 
HETATM    8  C9  UNL     1      21.009   1.516  50.676  1.00  0.00     0.065 C 
HETATM    9  N2  UNL     1      21.420   2.522  51.404  1.00  0.00    -0.171 NA
HETATM   10  N3  UNL     1      22.129   3.607  51.175  1.00  0.00    -0.234 N 
HETATM   11  C18 UNL     1      21.402   4.779  50.753  1.00  0.00     0.063 C 
HETATM   12  C19 UNL     1      21.424   6.078  50.477  1.00  0.00    -0.025 C 
HETATM   13  C20 UNL     1      21.384   7.444  51.110  1.00  0.00     0.048 C 
HETATM   14  C21 UNL     1      21.478   6.037  48.989  1.00  0.00     0.165 C 
HETATM   15  C22 UNL     1      20.040   5.723  48.665  1.00  0.00     0.064 C 
HETATM   16  C23 UNL     1      19.290   5.132  49.850  1.00  0.00    -0.022 C 
HETATM   17  C24 UNL     1      20.074   4.175  50.385  1.00  0.00     0.028 C 
HETATM   18  O3  UNL     1      22.449   5.177  48.432  1.00  0.00    -0.324 OA
ENDROOT
BRANCH   8  19
HETATM   19  C10 UNL     1      20.378   0.609  51.685  1.00  0.00    -0.007 A 
HETATM   20  C11 UNL     1      19.032   0.205  51.700  1.00  0.00     0.013 A 
HETATM   21  C12 UNL     1      18.379  -0.605  52.578  1.00  0.00     0.004 A 
HETATM   22  C13 UNL     1      19.143  -1.106  53.602  1.00  0.00     0.037 A 
HETATM   23  C14 UNL     1      20.471  -0.808  53.728  1.00  0.00     0.069 A 
HETATM   24  C17 UNL     1      20.999   0.013  52.785  1.00  0.00     0.050 A 
BRANCH  23  25
HETATM   25  O1  UNL     1      21.287  -1.284  54.740  1.00  0.00    -0.349 OA
BRANCH  25  26
HETATM   26  C15 UNL     1      22.595  -0.772  54.836  1.00  0.00     0.201 C 
BRANCH  26  27
HETATM   27  C16 UNL     1      23.361  -1.679  55.810  1.00  0.00     0.190 C 
BRANCH  27  28
HETATM   28  O2  UNL     1      24.719  -1.475  55.710  1.00  0.00    -0.399 OA
HETATM   29  H18 UNL     1      25.101  -0.894  56.392  1.00  0.00     0.209 HD
ENDBRANCH  27  28
ENDBRANCH  26  27
ENDBRANCH  25  26
ENDBRANCH  23  25
ENDBRANCH   8  19
BRANCH   1  30
HETATM   30  C2  UNL     1      24.166   3.468  52.552  1.00  0.00     0.021 C 
HETATM   31  C1  UNL     1      24.638   2.403  53.180  1.00  0.00     0.013 C 
ENDBRANCH   1  30
TORSDOF 6
ENDMDL
MODEL 8
REMARK VINA RESULT:      -7.3      7.671     10.652
REMARK  6 active torsions:
REMARK  status: ('A' for Active; 'I' for Inactive)
REMARK    1  A    between atoms: C2_2  and  C3_3 
REMARK    2  A    between atoms: C9_10  and  C10_11 
REMARK    3  A    between atoms: C14_15  and  O1_16 
REMARK    4  A    between atoms: O1_16  and  C15_17 
REMARK    5  A    between atoms: C15_17  and  C16_18 
REMARK    6  A    between atoms: C16_18  and  O2_19 
ROOT
HETATM    1  C3  UNL     1      20.591   1.957  51.193  1.00  0.00     0.062 C 
HETATM    2  C4  UNL     1      19.839   3.161  51.360  1.00  0.00     0.089 C 
HETATM    3  C5  UNL     1      20.812   4.279  51.017  1.00  0.00     0.162 C 
HETATM    4  N1  UNL     1      21.218   4.369  52.196  1.00  0.00    -0.267 NA
HETATM    5  C6  UNL     1      22.115   5.085  52.952  1.00  0.00     0.152 C 
HETATM    6  C7  UNL     1      23.553   4.793  52.818  1.00  0.00     0.028 C 
HETATM    7  C8  UNL     1      24.159   3.500  53.103  1.00  0.00     0.063 C 
HETATM    8  C9  UNL     1      23.852   2.307  52.321  1.00  0.00     0.065 C 
HETATM    9  N2  UNL     1      23.095   1.712  51.435  1.00  0.00    -0.171 NA
HETATM   10  N3  UNL     1      22.037   2.060  50.734  1.00  0.00    -0.234 N 
HETATM   11  C18 UNL     1      22.282   2.685  49.458  1.00  0.00     0.063 C 
HETATM   12  C19 UNL     1      21.783   3.146  48.316  1.00  0.00    -0.025 C 
HETATM   13  C20 UNL     1      21.312   2.722  46.950  1.00  0.00     0.048 C 
HETATM   14  C21 UNL     1      21.756   4.608  48.605  1.00  0.00     0.165 C 
HETATM   15  C22 UNL     1      23.210   4.958  48.417  1.00  0.00     0.064 C 
HETATM   16  C23 UNL     1      24.119   3.739  48.501  1.00  0.00    -0.022 C 
HETATM   17  C24 UNL     1      23.741   3.031  49.584  1.00  0.00     0.028 C 
HETATM   18  O3  UNL     1      21.174   4.982  49.835  1.00  0.00    -0.324 OA
ENDROOT
BRANCH   8  19
HETATM   19  C10 UNL     1      24.768   1.211  52.767  1.00  0.00    -0.007 A 
HETATM   20  C11 UNL     1      24.379   0.030  53.421  1.00  0.00     0.013 A 
HETATM   21  C12 UNL     1      25.141  -1.007  53.866  1.00  0.00     0.004 A 
HETATM   22  C13 UNL     1      26.491  -0.889  53.643  1.00  0.00     0.037 A 
HETATM   23  C14 UNL     1      27.029   0.201  53.018  1.00  0.00     0.069 A 
HETATM   24  C17 UNL     1      26.157   1.165  52.625  1.00  0.00     0.050 A 
BRANCH  23  25
HETATM   25  O1  UNL     1      28.379   0.373  52.769  1.00  0.00    -0.349 OA
BRANCH  25  26
HETATM   26  C15 UNL     1      29.229   0.638  53.860  1.00  0.00     0.201 C 
BRANCH  26  27
HETATM   27  C16 UNL     1      29.074   2.128  54.196  1.00  0.00     0.190 C 
BRANCH  27  28
HETATM   28  O2  UNL     1      29.264   2.910  53.079  1.00  0.00    -0.399 OA
HETATM   29  H18 UNL     1      29.917   3.625  53.181  1.00  0.00     0.209 HD
ENDBRANCH  27  28
ENDBRANCH  26  27
ENDBRANCH  25  26
ENDBRANCH  23  25
ENDBRANCH   8  19
BRANCH   1  30
HETATM   30  C2  UNL     1      20.188   0.573  51.394  1.00  0.00     0.021 C 
HETATM   31  C1  UNL     1      19.095  -0.008  51.862  1.00  0.00     0.013 C 
ENDBRANCH   1  30
TORSDOF 6
ENDMDL
MODEL 9
REMARK VINA RESULT:      -7.2      3.096      6.868
REMARK  6 active torsions:
REMARK  status: ('A' for Active; 'I' for Inactive)
REMARK    1  A    between atoms: C2_2  and  C3_3 
REMARK    2  A    between atoms: C9_10  and  C10_11 
REMARK    3  A    between atoms: C14_15  and  O1_16 
REMARK    4  A    between atoms: O1_16  and  C15_17 
REMARK    5  A    between atoms: C15_17  and  C16_18 
REMARK    6  A    between atoms: C16_18  and  O2_19 
ROOT
HETATM    1  C3  UNL     1      32.698   5.018  47.899  1.00  0.00     0.062 C 
HETATM    2  C4  UNL     1      33.023   5.661  49.134  1.00  0.00     0.089 C 
HETATM    3  C5  UNL     1      32.659   7.122  48.921  1.00  0.00     0.162 C 
HETATM    4  N1  UNL     1      33.793   7.403  48.476  1.00  0.00    -0.267 NA
HETATM    5  C6  UNL     1      34.500   8.474  47.987  1.00  0.00     0.152 C 
HETATM    6  C7  UNL     1      34.199   8.968  46.631  1.00  0.00     0.028 C 
HETATM    7  C8  UNL     1      34.332   8.171  45.420  1.00  0.00     0.063 C 
HETATM    8  C9  UNL     1      33.506   6.995  45.166  1.00  0.00     0.065 C 
HETATM    9  N2  UNL     1      32.665   6.099  45.615  1.00  0.00    -0.171 NA
HETATM   10  N3  UNL     1      32.102   5.855  46.779  1.00  0.00    -0.234 N 
HETATM   11  C18 UNL     1      30.852   6.524  47.047  1.00  0.00     0.063 C 
HETATM   12  C19 UNL     1      29.802   6.667  47.848  1.00  0.00    -0.025 C 
HETATM   13  C20 UNL     1      28.466   6.068  48.199  1.00  0.00     0.048 C 
HETATM   14  C21 UNL     1      30.190   7.904  48.583  1.00  0.00     0.165 C 
HETATM   15  C22 UNL     1      29.878   8.954  47.548  1.00  0.00     0.064 C 
HETATM   16  C23 UNL     1      29.786   8.379  46.141  1.00  0.00    -0.022 C 
HETATM   17  C24 UNL     1      30.851   7.571  45.967  1.00  0.00     0.028 C 
HETATM   18  O3  UNL     1      31.496   7.917  49.117  1.00  0.00    -0.324 OA
ENDROOT
BRANCH   8  19
HETATM   19  C10 UNL     1      33.781   6.526  43.772  1.00  0.00    -0.007 A 
HETATM   20  C11 UNL     1      34.638   7.149  42.848  1.00  0.00     0.013 A 
HETATM   21  C12 UNL     1      34.936   6.797  41.567  1.00  0.00     0.004 A 
HETATM   22  C13 UNL     1      34.312   5.666  41.103  1.00  0.00     0.037 A 
HETATM   23  C14 UNL     1      33.448   4.945  41.879  1.00  0.00     0.069 A 
HETATM   24  C17 UNL     1      33.238   5.406  43.138  1.00  0.00     0.050 A 
BRANCH  23  25
HETATM   25  O1  UNL     1      32.792   3.800  41.462  1.00  0.00    -0.349 OA
BRANCH  25  26
HETATM   26  C15 UNL     1      33.097   3.285  40.188  1.00  0.00     0.201 C 
BRANCH  26  27
HETATM   27  C16 UNL     1      31.850   2.534  39.697  1.00  0.00     0.190 C 
BRANCH  27  28
HETATM   28  O2  UNL     1      31.670   1.364  40.400  1.00  0.00    -0.399 OA
HETATM   29  H18 UNL     1      31.256   1.468  41.276  1.00  0.00     0.209 HD
ENDBRANCH  27  28
ENDBRANCH  26  27
ENDBRANCH  25  26
ENDBRANCH  23  25
ENDBRANCH   8  19
BRANCH   1  30
HETATM   30  C2  UNL     1      32.845   3.623  47.509  1.00  0.00     0.021 C 
HETATM   31  C1  UNL     1      32.172   2.818  46.704  1.00  0.00     0.013 C 
ENDBRANCH   1  30
TORSDOF 6
ENDMDL
