MODEL 1
REMARK VINA RESULT:      -7.9      0.000      0.000
REMARK  0 active torsions:
REMARK  status: ('A' for Active; 'I' for Inactive)
ROOT
HETATM    1  C1  UNL     1      26.042   4.118  50.087  1.00  0.00     0.038 C 
HETATM    2  C2  UNL     1      24.825   3.558  49.468  1.00  0.00    -0.005 C 
HETATM    3  C3  UNL     1      23.873   2.768  49.917  1.00  0.00     0.022 C 
HETATM    4  C4  UNL     1      22.717   2.327  49.088  1.00  0.00     0.195 A 
HETATM    5  C5  UNL     1      21.803   1.504  49.683  1.00  0.00     0.062 A 
HETATM    6 CL1  UNL     1      21.175   1.732  48.006  1.00  0.00    -0.200 Cl
HETATM    7  C6  UNL     1      20.984   0.629  50.587  1.00  0.00     0.196 C 
HETATM    8  F1  UNL     1      19.741   1.276  50.822  1.00  0.00    -0.247 F 
HETATM    9  C7  UNL     1      21.543  -0.050  51.683  1.00  0.00     0.062 C 
HETATM   10  C8  UNL     1      22.642   0.505  52.596  1.00  0.00     0.072 A 
HETATM   11  C9  UNL     1      23.889   0.511  53.047  1.00  0.00     0.047 A 
HETATM   12  C10 UNL     1      22.943  -0.425  53.925  1.00  0.00     0.059 A 
HETATM   13  C11 UNL     1      23.118  -1.278  55.037  1.00  0.00     0.107 A 
HETATM   14  N1  UNL     1      21.729  -1.566  54.957  1.00  0.00    -0.269 NA
HETATM   15  C12 UNL     1      21.458  -0.818  53.951  1.00  0.00     0.052 A 
HETATM   16  C13 UNL     1      20.505  -0.132  52.929  1.00  0.00     0.165 C 
HETATM   17  N2  UNL     1      20.368   1.290  53.313  1.00  0.00    -0.272 NA
HETATM   18  C14 UNL     1      21.195   2.293  52.875  1.00  0.00     0.224 C 
HETATM   19  N3  UNL     1      22.443   2.669  52.127  1.00  0.00    -0.250 NA
HETATM   20  C15 UNL     1      23.488   1.763  52.236  1.00  0.00     0.143 A 
HETATM   21  N4  UNL     1      24.227   2.492  51.316  1.00  0.00    -0.363 N 
HETATM   22  H12 UNL     1      24.922   2.669  52.024  1.00  0.00     0.162 HD
ENDROOT
TORSDOF 0
ENDMDL
MODEL 2
REMARK VINA RESULT:      -7.9      3.286      5.509
REMARK  0 active torsions:
REMARK  status: ('A' for Active; 'I' for Inactive)
ROOT
HETATM    1  C1  UNL     1      21.154  -1.733  54.330  1.00  0.00     0.038 C 
HETATM    2  C2  UNL     1      21.324  -0.367  53.802  1.00  0.00    -0.005 C 
HETATM    3  C3  UNL     1      22.383   0.370  53.546  1.00  0.00     0.022 C 
HETATM    4  C4  UNL     1      22.305   1.756  53.004  1.00  0.00     0.195 A 
HETATM    5  C5  UNL     1      23.487   2.407  52.788  1.00  0.00     0.062 A 
HETATM    6 CL1  UNL     1      22.224   3.593  52.284  1.00  0.00    -0.200 Cl
HETATM    7  C6  UNL     1      24.914   2.856  52.655  1.00  0.00     0.196 C 
HETATM    8  F1  UNL     1      25.198   3.022  51.272  1.00  0.00    -0.247 F 
HETATM    9  C7  UNL     1      25.948   2.314  53.437  1.00  0.00     0.062 C 
HETATM   10  C8  UNL     1      26.057   0.844  53.856  1.00  0.00     0.072 A 
HETATM   11  C9  UNL     1      26.010  -0.113  54.773  1.00  0.00     0.047 A 
HETATM   12  C10 UNL     1      27.486   0.458  54.584  1.00  0.00     0.059 A 
HETATM   13  C11 UNL     1      28.744   0.223  55.182  1.00  0.00     0.107 A 
HETATM   14  N1  UNL     1      29.276   1.210  54.309  1.00  0.00    -0.269 NA
HETATM   15  C12 UNL     1      28.186   1.500  53.697  1.00  0.00     0.052 A 
HETATM   16  C13 UNL     1      27.338   2.213  52.604  1.00  0.00     0.165 C 
HETATM   17  N2  UNL     1      27.004   1.218  51.561  1.00  0.00    -0.272 NA
HETATM   18  C14 UNL     1      25.890   0.417  51.584  1.00  0.00     0.224 C 
HETATM   19  N3  UNL     1      24.692  -0.063  52.354  1.00  0.00    -0.250 NA
HETATM   20  C15 UNL     1      24.877  -0.165  53.724  1.00  0.00     0.143 A 
HETATM   21  N4  UNL     1      23.535  -0.474  53.891  1.00  0.00    -0.363 N 
HETATM   22  H12 UNL     1      23.794  -1.376  54.257  1.00  0.00     0.162 HD
ENDROOT
TORSDOF 0
ENDMDL
MODEL 3
REMARK VINA RESULT:      -7.8      2.955      4.409
REMARK  0 active torsions:
REMARK  status: ('A' for Active; 'I' for Inactive)
ROOT
HETATM    1  C1  UNL     1      26.896  -0.842  52.897  1.00  0.00     0.038 C 
HETATM    2  C2  UNL     1      26.979   0.313  51.985  1.00  0.00    -0.005 C 
HETATM    3  C3  UNL     1      26.134   1.273  51.673  1.00  0.00     0.022 C 
HETATM    4  C4  UNL     1      26.449   2.357  50.701  1.00  0.00     0.195 A 
HETATM    5  C5  UNL     1      25.474   3.287  50.471  1.00  0.00     0.062 A 
HETATM    6 CL1  UNL     1      26.847   3.806  49.419  1.00  0.00    -0.200 Cl
HETATM    7  C6  UNL     1      24.242   4.143  50.425  1.00  0.00     0.196 C 
HETATM    8  F1  UNL     1      24.566   5.416  50.968  1.00  0.00    -0.247 F 
HETATM    9  C7  UNL     1      22.968   3.642  50.746  1.00  0.00     0.062 C 
HETATM   10  C8  UNL     1      22.675   2.623  51.853  1.00  0.00     0.072 A 
HETATM   11  C9  UNL     1      22.321   1.410  52.256  1.00  0.00     0.047 A 
HETATM   12  C10 UNL     1      21.068   2.388  52.141  1.00  0.00     0.059 A 
HETATM   13  C11 UNL     1      19.673   2.267  52.323  1.00  0.00     0.107 A 
HETATM   14  N1  UNL     1      19.569   3.639  51.970  1.00  0.00    -0.269 NA
HETATM   15  C12 UNL     1      20.818   3.861  51.780  1.00  0.00     0.052 A 
HETATM   16  C13 UNL     1      22.055   4.760  51.490  1.00  0.00     0.165 C 
HETATM   17  N2  UNL     1      22.784   4.961  52.761  1.00  0.00    -0.272 NA
HETATM   18  C14 UNL     1      23.776   4.133  53.225  1.00  0.00     0.224 C 
HETATM   19  N3  UNL     1      24.535   2.847  53.052  1.00  0.00    -0.250 NA
HETATM   20  C15 UNL     1      23.790   1.789  52.554  1.00  0.00     0.143 A 
HETATM   21  N4  UNL     1      24.934   1.008  52.478  1.00  0.00    -0.363 N 
HETATM   22  H12 UNL     1      24.534   0.368  53.146  1.00  0.00     0.162 HD
ENDROOT
TORSDOF 0
ENDMDL
MODEL 4
REMARK VINA RESULT:      -7.6      2.539      4.655
REMARK  0 active torsions:
REMARK  status: ('A' for Active; 'I' for Inactive)
ROOT
HETATM    1  C1  UNL     1      26.642  -0.093  54.153  1.00  0.00     0.038 C 
HETATM    2  C2  UNL     1      25.242  -0.544  54.254  1.00  0.00    -0.005 C 
HETATM    3  C3  UNL     1      24.108  -0.056  53.800  1.00  0.00     0.022 C 
HETATM    4  C4  UNL     1      22.785  -0.702  54.034  1.00  0.00     0.195 A 
HETATM    5  C5  UNL     1      21.688  -0.083  53.505  1.00  0.00     0.062 A 
HETATM    6 CL1  UNL     1      21.024  -1.544  54.331  1.00  0.00    -0.200 Cl
HETATM    7  C6  UNL     1      20.691   0.804  52.818  1.00  0.00     0.196 C 
HETATM    8  F1  UNL     1      20.129   0.081  51.732  1.00  0.00    -0.247 F 
HETATM    9  C7  UNL     1      20.933   2.170  52.590  1.00  0.00     0.062 C 
HETATM   10  C8  UNL     1      22.291   2.774  52.214  1.00  0.00     0.072 A 
HETATM   11  C9  UNL     1      23.362   3.501  52.501  1.00  0.00     0.047 A 
HETATM   12  C10 UNL     1      22.224   4.368  51.797  1.00  0.00     0.059 A 
HETATM   13  C11 UNL     1      22.063   5.726  51.443  1.00  0.00     0.107 A 
HETATM   14  N1  UNL     1      20.782   5.379  50.937  1.00  0.00    -0.269 NA
HETATM   15  C12 UNL     1      20.824   4.127  51.211  1.00  0.00     0.052 A 
HETATM   16  C13 UNL     1      20.288   2.665  51.185  1.00  0.00     0.165 C 
HETATM   17  N2  UNL     1      21.080   1.905  50.194  1.00  0.00    -0.272 NA
HETATM   18  C14 UNL     1      22.243   1.235  50.482  1.00  0.00     0.224 C 
HETATM   19  N3  UNL     1      23.315   0.937  51.492  1.00  0.00    -0.250 NA
HETATM   20  C15 UNL     1      23.631   1.988  52.339  1.00  0.00     0.143 A 
HETATM   21  N4  UNL     1      24.477   1.161  53.064  1.00  0.00    -0.363 N 
HETATM   22  H12 UNL     1      25.257   1.744  52.807  1.00  0.00     0.162 HD
ENDROOT
TORSDOF 0
ENDMDL
MODEL 5
REMARK VINA RESULT:      -7.6      2.546      5.727
REMARK  0 active torsions:
REMARK  status: ('A' for Active; 'I' for Inactive)
ROOT
HETATM    1  C1  UNL     1      16.976  -1.315  52.818  1.00  0.00     0.038 C 
HETATM    2  C2  UNL     1      18.318  -1.315  53.431  1.00  0.00    -0.005 C 
HETATM    3  C3  UNL     1      19.447  -0.716  53.116  1.00  0.00     0.022 C 
HETATM    4  C4  UNL     1      20.702  -0.871  53.904  1.00  0.00     0.195 A 
HETATM    5  C5  UNL     1      21.802  -0.192  53.460  1.00  0.00     0.062 A 
HETATM    6 CL1  UNL     1      22.376  -1.060  54.934  1.00  0.00    -0.200 Cl
HETATM    7  C6  UNL     1      22.817   0.656  52.749  1.00  0.00     0.196 C 
HETATM    8  F1  UNL     1      23.174   1.732  53.607  1.00  0.00    -0.247 F 
HETATM    9  C7  UNL     1      22.712   0.965  51.383  1.00  0.00     0.062 C 
HETATM   10  C8  UNL     1      21.401   1.253  50.642  1.00  0.00     0.072 A 
HETATM   11  C9  UNL     1      20.458   0.922  49.771  1.00  0.00     0.047 A 
HETATM   12  C10 UNL     1      21.607   1.797  49.099  1.00  0.00     0.059 A 
HETATM   13  C11 UNL     1      21.886   2.270  47.798  1.00  0.00     0.107 A 
HETATM   14  N1  UNL     1      23.058   2.869  48.332  1.00  0.00    -0.269 NA
HETATM   15  C12 UNL     1      22.901   2.496  49.549  1.00  0.00     0.052 A 
HETATM   16  C13 UNL     1      23.258   2.460  51.064  1.00  0.00     0.165 C 
HETATM   17  N2  UNL     1      22.283   3.307  51.784  1.00  0.00    -0.272 NA
HETATM   18  C14 UNL     1      21.088   2.857  52.286  1.00  0.00     0.224 C 
HETATM   19  N3  UNL     1      20.101   1.728  52.383  1.00  0.00    -0.250 NA
HETATM   20  C15 UNL     1      20.000   0.938  51.247  1.00  0.00     0.143 A 
HETATM   21  N4  UNL     1      19.145   0.073  51.915  1.00  0.00    -0.363 N 
HETATM   22  H12 UNL     1      18.415   0.297  51.258  1.00  0.00     0.162 HD
ENDROOT
TORSDOF 0
ENDMDL
MODEL 6
REMARK VINA RESULT:      -7.4      2.702      5.694
REMARK  0 active torsions:
REMARK  status: ('A' for Active; 'I' for Inactive)
ROOT
HETATM    1  C1  UNL     1      20.834  -1.652  54.224  1.00  0.00     0.038 C 
HETATM    2  C2  UNL     1      22.281  -1.374  54.169  1.00  0.00    -0.005 C 
HETATM    3  C3  UNL     1      23.003  -0.510  53.488  1.00  0.00     0.022 C 
HETATM    4  C4  UNL     1      24.486  -0.413  53.601  1.00  0.00     0.195 A 
HETATM    5  C5  UNL     1      25.107   0.530  52.832  1.00  0.00     0.062 A 
HETATM    6 CL1  UNL     1      26.450  -0.266  53.738  1.00  0.00    -0.200 Cl
HETATM    7  C6  UNL     1      25.501   1.632  51.892  1.00  0.00     0.196 C 
HETATM    8  F1  UNL     1      26.017   2.709  52.663  1.00  0.00    -0.247 F 
HETATM    9  C7  UNL     1      24.715   1.988  50.783  1.00  0.00     0.062 C 
HETATM   10  C8  UNL     1      23.183   2.005  50.757  1.00  0.00     0.072 A 
HETATM   11  C9  UNL     1      22.019   1.515  50.353  1.00  0.00     0.047 A 
HETATM   12  C10 UNL     1      22.542   2.673  49.392  1.00  0.00     0.059 A 
HETATM   13  C11 UNL     1      22.089   3.275  48.197  1.00  0.00     0.107 A 
HETATM   14  N1  UNL     1      23.245   4.099  48.245  1.00  0.00    -0.269 NA
HETATM   15  C12 UNL     1      23.745   3.627  49.328  1.00  0.00     0.052 A 
HETATM   16  C13 UNL     1      24.769   3.586  50.500  1.00  0.00     0.165 C 
HETATM   17  N2  UNL     1      24.110   4.137  51.704  1.00  0.00    -0.272 NA
HETATM   18  C14 UNL     1      23.391   3.390  52.603  1.00  0.00     0.224 C 
HETATM   19  N3  UNL     1      22.786   2.058  52.944  1.00  0.00    -0.250 NA
HETATM   20  C15 UNL     1      22.309   1.336  51.860  1.00  0.00     0.143 A 
HETATM   21  N4  UNL     1      22.038   0.256  52.689  1.00  0.00    -0.363 N 
HETATM   22  H12 UNL     1      21.058   0.342  52.469  1.00  0.00     0.162 HD
ENDROOT
TORSDOF 0
ENDMDL
MODEL 7
REMARK VINA RESULT:      -7.1      2.502      3.985
REMARK  0 active torsions:
REMARK  status: ('A' for Active; 'I' for Inactive)
ROOT
HETATM    1  C1  UNL     1      26.444   3.420  49.757  1.00  0.00     0.038 C 
HETATM    2  C2  UNL     1      26.080   2.482  50.835  1.00  0.00    -0.005 C 
HETATM    3  C3  UNL     1      24.926   2.101  51.341  1.00  0.00     0.022 C 
HETATM    4  C4  UNL     1      24.805   1.117  52.453  1.00  0.00     0.195 A 
HETATM    5  C5  UNL     1      23.542   0.815  52.881  1.00  0.00     0.062 A 
HETATM    6 CL1  UNL     1      24.621  -0.186  53.925  1.00  0.00    -0.200 Cl
HETATM    7  C6  UNL     1      22.068   0.683  53.128  1.00  0.00     0.196 C 
HETATM    8  F1  UNL     1      21.676  -0.637  52.778  1.00  0.00    -0.247 F 
HETATM    9  C7  UNL     1      21.158   1.704  52.802  1.00  0.00     0.062 C 
HETATM   10  C8  UNL     1      21.250   2.605  51.565  1.00  0.00     0.072 A 
HETATM   11  C9  UNL     1      21.469   3.782  50.995  1.00  0.00     0.047 A 
HETATM   12  C10 UNL     1      19.927   3.561  51.332  1.00  0.00     0.059 A 
HETATM   13  C11 UNL     1      18.747   4.328  51.208  1.00  0.00     0.107 A 
HETATM   14  N1  UNL     1      18.047   3.232  51.780  1.00  0.00    -0.269 NA
HETATM   15  C12 UNL     1      19.053   2.450  51.934  1.00  0.00     0.052 A 
HETATM   16  C13 UNL     1      19.738   1.100  52.296  1.00  0.00     0.165 C 
HETATM   17  N2  UNL     1      20.118   0.427  51.035  1.00  0.00    -0.272 NA
HETATM   18  C14 UNL     1      21.318   0.607  50.393  1.00  0.00     0.224 C 
HETATM   19  N3  UNL     1      22.613   1.367  50.318  1.00  0.00    -0.250 NA
HETATM   20  C15 UNL     1      22.530   2.703  50.682  1.00  0.00     0.143 A 
HETATM   21  N4  UNL     1      23.907   2.826  50.570  1.00  0.00    -0.363 N 
HETATM   22  H12 UNL     1      23.781   3.501  49.832  1.00  0.00     0.162 HD
ENDROOT
TORSDOF 0
ENDMDL
MODEL 8
REMARK VINA RESULT:      -7.0      8.940     11.288
REMARK  0 active torsions:
REMARK  status: ('A' for Active; 'I' for Inactive)
ROOT
HETATM    1  C1  UNL     1      33.091   2.311  47.431  1.00  0.00     0.038 C 
HETATM    2  C2  UNL     1      33.221   3.583  46.697  1.00  0.00    -0.005 C 
HETATM    3  C3  UNL     1      32.525   4.700  46.709  1.00  0.00     0.022 C 
HETATM    4  C4  UNL     1      32.854   5.879  45.859  1.00  0.00     0.195 A 
HETATM    5  C5  UNL     1      32.044   6.973  45.972  1.00  0.00     0.062 A 
HETATM    6 CL1  UNL     1      33.275   7.453  44.743  1.00  0.00    -0.200 Cl
HETATM    7  C6  UNL     1      31.003   8.002  46.309  1.00  0.00     0.196 C 
HETATM    8  F1  UNL     1      31.650   9.094  46.948  1.00  0.00    -0.247 F 
HETATM    9  C7  UNL     1      29.738   7.653  46.813  1.00  0.00     0.062 C 
HETATM   10  C8  UNL     1      29.467   6.511  47.799  1.00  0.00     0.072 A 
HETATM   11  C9  UNL     1      28.973   5.314  48.089  1.00  0.00     0.047 A 
HETATM   12  C10 UNL     1      27.923   6.478  48.379  1.00  0.00     0.059 A 
HETATM   13  C11 UNL     1      26.586   6.541  48.829  1.00  0.00     0.107 A 
HETATM   14  N1  UNL     1      26.675   7.954  48.706  1.00  0.00    -0.269 NA
HETATM   15  C12 UNL     1      27.889   8.012  48.294  1.00  0.00     0.052 A 
HETATM   16  C13 UNL     1      29.198   8.748  47.883  1.00  0.00     0.165 C 
HETATM   17  N2  UNL     1      30.169   8.606  48.990  1.00  0.00    -0.272 NA
HETATM   18  C14 UNL     1      31.057   7.567  49.112  1.00  0.00     0.224 C 
HETATM   19  N3  UNL     1      31.521   6.232  48.602  1.00  0.00    -0.250 NA
HETATM   20  C15 UNL     1      30.515   5.405  48.124  1.00  0.00     0.143 A 
HETATM   21  N4  UNL     1      31.463   4.484  47.700  1.00  0.00    -0.363 N 
HETATM   22  H12 UNL     1      31.079   3.805  48.338  1.00  0.00     0.162 HD
ENDROOT
TORSDOF 0
ENDMDL
MODEL 9
REMARK VINA RESULT:      -6.8     10.994     12.689
REMARK  0 active torsions:
REMARK  status: ('A' for Active; 'I' for Inactive)
ROOT
HETATM    1  C1  UNL     1      33.115   1.415  48.534  1.00  0.00     0.038 C 
HETATM    2  C2  UNL     1      33.548   2.245  47.395  1.00  0.00    -0.005 C 
HETATM    3  C3  UNL     1      33.299   3.488  47.045  1.00  0.00     0.022 C 
HETATM    4  C4  UNL     1      33.863   4.124  45.821  1.00  0.00     0.195 A 
HETATM    5  C5  UNL     1      33.516   5.423  45.579  1.00  0.00     0.062 A 
HETATM    6 CL1  UNL     1      34.602   4.985  44.205  1.00  0.00    -0.200 Cl
HETATM    7  C6  UNL     1      32.975   6.824  45.579  1.00  0.00     0.196 C 
HETATM    8  F1  UNL     1      34.063   7.719  45.764  1.00  0.00    -0.247 F 
HETATM    9  C7  UNL     1      31.777   7.165  46.230  1.00  0.00     0.062 C 
HETATM   10  C8  UNL     1      31.303   6.581  47.565  1.00  0.00     0.072 A 
HETATM   11  C9  UNL     1      30.483   5.821  48.280  1.00  0.00     0.047 A 
HETATM   12  C10 UNL     1      29.971   7.328  48.190  1.00  0.00     0.059 A 
HETATM   13  C11 UNL     1      28.841   8.040  48.649  1.00  0.00     0.107 A 
HETATM   14  N1  UNL     1      29.393   9.195  48.033  1.00  0.00    -0.269 NA
HETATM   15  C12 UNL     1      30.458   8.649  47.572  1.00  0.00     0.052 A 
HETATM   16  C13 UNL     1      31.848   8.655  46.870  1.00  0.00     0.165 C 
HETATM   17  N2  UNL     1      32.887   8.497  47.911  1.00  0.00    -0.272 NA
HETATM   18  C14 UNL     1      33.365   7.288  48.351  1.00  0.00     0.224 C 
HETATM   19  N3  UNL     1      33.239   5.791  48.322  1.00  0.00    -0.250 NA
HETATM   20  C15 UNL     1      31.941   5.314  48.211  1.00  0.00     0.143 A 
HETATM   21  N4  UNL     1      32.419   4.017  48.096  1.00  0.00    -0.363 N 
HETATM   22  H12 UNL     1      31.941   3.772  48.948  1.00  0.00     0.162 HD
ENDROOT
TORSDOF 0
ENDMDL
