MODEL 1
REMARK VINA RESULT:      -8.5      0.000      0.000
REMARK  2 active torsions:
REMARK  status: ('A' for Active; 'I' for Inactive)
REMARK    1  A    between atoms: C5_5  and  C6_6 
REMARK    2  A    between atoms: C15_18  and  O1_19 
ROOT
HETATM    1  C6  UNL     1      25.510   1.907  52.533  1.00  0.00     0.086 C 
HETATM    2  N1  UNL     1      24.916   2.786  53.384  1.00  0.00    -0.152 NA
HETATM    3  N2  UNL     1      23.881   3.536  52.939  1.00  0.00    -0.156 NA
HETATM    4  C7  UNL     1      23.507   4.714  52.891  1.00  0.00     0.185 C 
HETATM    5  S1  UNL     1      21.944   4.338  52.025  1.00  0.00    -0.120 SA
HETATM    6  C8  UNL     1      22.421   3.826  50.281  1.00  0.00     0.096 C 
HETATM    7  C9  UNL     1      23.400   2.696  50.518  1.00  0.00     0.013 A 
HETATM    8  C10 UNL     1      24.589   3.315  50.308  1.00  0.00     0.042 A 
HETATM    9  C11 UNL     1      25.770   2.897  50.849  1.00  0.00    -0.026 A 
HETATM   10  C12 UNL     1      24.768   2.079  51.238  1.00  0.00     0.041 A 
HETATM   11  C13 UNL     1      23.741   1.287  51.604  1.00  0.00    -0.010 A 
HETATM   12  C14 UNL     1      22.583   1.741  51.037  1.00  0.00    -0.017 A 
ENDROOT
BRANCH   1  13
HETATM   13  C5  UNL     1      26.618   1.035  52.849  1.00  0.00     0.025 A 
HETATM   14  C4  UNL     1      26.648  -0.290  52.464  1.00  0.00     0.017 A 
HETATM   15  C3  UNL     1      27.768  -1.005  52.829  1.00  0.00     0.008 A 
HETATM   16  C2  UNL     1      28.803  -0.432  53.541  1.00  0.00    -0.059 A 
HETATM   17  C1  UNL     1      29.941  -1.338  53.858  1.00  0.00     0.048 C 
HETATM   18  C16 UNL     1      28.730   0.901  53.907  1.00  0.00     0.044 A 
HETATM   19  C15 UNL     1      27.608   1.658  53.552  1.00  0.00     0.078 A 
BRANCH  19  20
HETATM   20  O1  UNL     1      27.637   2.972  53.964  1.00  0.00    -0.360 OA
HETATM   21  H13 UNL     1      27.742   3.679  53.225  1.00  0.00     0.217 HD
ENDBRANCH  19  20
ENDBRANCH   1  13
TORSDOF 2
ENDMDL
MODEL 2
REMARK VINA RESULT:      -8.1      2.700      5.735
REMARK  2 active torsions:
REMARK  status: ('A' for Active; 'I' for Inactive)
REMARK    1  A    between atoms: C5_5  and  C6_6 
REMARK    2  A    between atoms: C15_18  and  O1_19 
ROOT
HETATM    1  C6  UNL     1      25.844   2.395  51.502  1.00  0.00     0.086 C 
HETATM    2  N1  UNL     1      27.162   2.718  51.587  1.00  0.00    -0.152 NA
HETATM    3  N2  UNL     1      27.918   2.153  52.557  1.00  0.00    -0.156 NA
HETATM    4  C7  UNL     1      28.706   2.465  53.457  1.00  0.00     0.185 C 
HETATM    5  S1  UNL     1      28.986   0.748  54.012  1.00  0.00    -0.120 SA
HETATM    6  C8  UNL     1      27.387   0.193  54.828  1.00  0.00     0.096 C 
HETATM    7  C9  UNL     1      26.355   0.440  53.749  1.00  0.00     0.013 A 
HETATM    8  C10 UNL     1      25.785   1.595  54.174  1.00  0.00     0.042 A 
HETATM    9  C11 UNL     1      25.159   2.483  53.348  1.00  0.00    -0.026 A 
HETATM   10  C12 UNL     1      25.620   1.433  52.634  1.00  0.00     0.041 A 
HETATM   11  C13 UNL     1      26.096   0.369  51.958  1.00  0.00    -0.010 A 
HETATM   12  C14 UNL     1      26.710  -0.492  52.825  1.00  0.00    -0.017 A 
ENDROOT
BRANCH   1  13
HETATM   13  C5  UNL     1      24.904   2.905  50.529  1.00  0.00     0.025 A 
HETATM   14  C4  UNL     1      23.749   2.229  50.195  1.00  0.00     0.017 A 
HETATM   15  C3  UNL     1      22.941   2.832  49.254  1.00  0.00     0.008 A 
HETATM   16  C2  UNL     1      23.267   4.043  48.677  1.00  0.00    -0.059 A 
HETATM   17  C1  UNL     1      22.292   4.561  47.680  1.00  0.00     0.048 C 
HETATM   18  C16 UNL     1      24.438   4.686  49.044  1.00  0.00     0.044 A 
HETATM   19  C15 UNL     1      25.281   4.103  49.996  1.00  0.00     0.078 A 
BRANCH  19  20
HETATM   20  O1  UNL     1      26.418   4.825  50.289  1.00  0.00    -0.360 OA
HETATM   21  H13 UNL     1      26.740   5.480  49.565  1.00  0.00     0.217 HD
ENDBRANCH  19  20
ENDBRANCH   1  13
TORSDOF 2
ENDMDL
MODEL 3
REMARK VINA RESULT:      -7.8      1.284      1.914
REMARK  2 active torsions:
REMARK  status: ('A' for Active; 'I' for Inactive)
REMARK    1  A    between atoms: C5_5  and  C6_6 
REMARK    2  A    between atoms: C15_18  and  O1_19 
ROOT
HETATM    1  C6  UNL     1      25.703   1.943  51.930  1.00  0.00     0.086 C 
HETATM    2  N1  UNL     1      25.851   2.806  50.890  1.00  0.00    -0.152 NA
HETATM    3  N2  UNL     1      24.829   3.632  50.568  1.00  0.00    -0.156 NA
HETATM    4  C7  UNL     1      24.154   3.981  49.592  1.00  0.00     0.185 C 
HETATM    5  S1  UNL     1      23.112   5.143  50.541  1.00  0.00    -0.120 SA
HETATM    6  C8  UNL     1      22.013   4.086  51.638  1.00  0.00     0.096 C 
HETATM    7  C9  UNL     1      23.011   3.235  52.395  1.00  0.00     0.013 A 
HETATM    8  C10 UNL     1      22.923   2.055  51.731  1.00  0.00     0.042 A 
HETATM    9  C11 UNL     1      23.924   1.129  51.691  1.00  0.00    -0.026 A 
HETATM   10  C12 UNL     1      24.308   2.193  52.429  1.00  0.00     0.041 A 
HETATM   11  C13 UNL     1      24.653   3.273  53.157  1.00  0.00    -0.010 A 
HETATM   12  C14 UNL     1      23.620   4.170  53.172  1.00  0.00    -0.017 A 
ENDROOT
BRANCH   1  13
HETATM   13  C5  UNL     1      26.693   1.002  52.402  1.00  0.00     0.025 A 
HETATM   14  C4  UNL     1      26.466  -0.359  52.424  1.00  0.00     0.017 A 
HETATM   15  C3  UNL     1      27.499  -1.141  52.896  1.00  0.00     0.008 A 
HETATM   16  C2  UNL     1      28.693  -0.597  53.324  1.00  0.00    -0.059 A 
HETATM   17  C1  UNL     1      29.707  -1.575  53.805  1.00  0.00     0.048 C 
HETATM   18  C16 UNL     1      28.876   0.775  53.285  1.00  0.00     0.044 A 
HETATM   19  C15 UNL     1      27.850   1.599  52.811  1.00  0.00     0.078 A 
BRANCH  19  20
HETATM   20  O1  UNL     1      28.135   2.947  52.813  1.00  0.00    -0.360 OA
HETATM   21  H13 UNL     1      29.128   3.202  52.897  1.00  0.00     0.217 HD
ENDBRANCH  19  20
ENDBRANCH   1  13
TORSDOF 2
ENDMDL
MODEL 4
REMARK VINA RESULT:      -7.5      2.210      3.055
REMARK  2 active torsions:
REMARK  status: ('A' for Active; 'I' for Inactive)
REMARK    1  A    between atoms: C5_5  and  C6_6 
REMARK    2  A    between atoms: C15_18  and  O1_19 
ROOT
HETATM    1  C6  UNL     1      22.774   1.614  52.364  1.00  0.00     0.086 C 
HETATM    2  N1  UNL     1      21.990   2.656  52.750  1.00  0.00    -0.152 NA
HETATM    3  N2  UNL     1      20.842   2.901  52.076  1.00  0.00    -0.156 NA
HETATM    4  C7  UNL     1      20.243   3.826  51.514  1.00  0.00     0.185 C 
HETATM    5  S1  UNL     1      18.814   2.800  51.022  1.00  0.00    -0.120 SA
HETATM    6  C8  UNL     1      19.439   1.637  49.685  1.00  0.00     0.096 C 
HETATM    7  C9  UNL     1      20.615   0.957  50.354  1.00  0.00     0.013 A 
HETATM    8  C10 UNL     1      21.664   1.620  49.805  1.00  0.00     0.042 A 
HETATM    9  C11 UNL     1      22.886   1.735  50.400  1.00  0.00    -0.026 A 
HETATM   10  C12 UNL     1      22.054   1.019  51.187  1.00  0.00     0.041 A 
HETATM   11  C13 UNL     1      21.194   0.309  51.943  1.00  0.00    -0.010 A 
HETATM   12  C14 UNL     1      19.987   0.217  51.306  1.00  0.00    -0.017 A 
ENDROOT
BRANCH   1  13
HETATM   13  C5  UNL     1      24.022   1.217  52.975  1.00  0.00     0.025 A 
HETATM   14  C4  UNL     1      24.319  -0.100  53.259  1.00  0.00     0.017 A 
HETATM   15  C3  UNL     1      25.548  -0.335  53.839  1.00  0.00     0.008 A 
HETATM   16  C2  UNL     1      26.432   0.686  54.122  1.00  0.00    -0.059 A 
HETATM   17  C1  UNL     1      27.716   0.267  54.747  1.00  0.00     0.048 C 
HETATM   18  C16 UNL     1      26.091   1.994  53.820  1.00  0.00     0.044 A 
HETATM   19  C15 UNL     1      24.853   2.269  53.230  1.00  0.00     0.078 A 
BRANCH  19  20
HETATM   20  O1  UNL     1      24.614   3.601  52.971  1.00  0.00    -0.360 OA
HETATM   21  H13 UNL     1      25.110   4.277  53.565  1.00  0.00     0.217 HD
ENDBRANCH  19  20
ENDBRANCH   1  13
TORSDOF 2
ENDMDL
MODEL 5
REMARK VINA RESULT:      -7.4      3.864      4.937
REMARK  2 active torsions:
REMARK  status: ('A' for Active; 'I' for Inactive)
REMARK    1  A    between atoms: C5_5  and  C6_6 
REMARK    2  A    between atoms: C15_18  and  O1_19 
ROOT
HETATM    1  C6  UNL     1      23.563   3.550  50.283  1.00  0.00     0.086 C 
HETATM    2  N1  UNL     1      22.649   4.197  51.055  1.00  0.00    -0.152 NA
HETATM    3  N2  UNL     1      21.544   3.532  51.465  1.00  0.00    -0.156 NA
HETATM    4  C7  UNL     1      20.313   3.647  51.487  1.00  0.00     0.185 C 
HETATM    5  S1  UNL     1      20.029   2.045  52.315  1.00  0.00    -0.120 SA
HETATM    6  C8  UNL     1      20.449   0.719  51.051  1.00  0.00     0.096 C 
HETATM    7  C9  UNL     1      21.863   1.077  50.646  1.00  0.00     0.013 A 
HETATM    8  C10 UNL     1      21.660   1.687  49.451  1.00  0.00     0.042 A 
HETATM    9  C11 UNL     1      22.516   2.601  48.909  1.00  0.00    -0.026 A 
HETATM   10  C12 UNL     1      22.990   2.173  50.099  1.00  0.00     0.041 A 
HETATM   11  C13 UNL     1      23.429   1.721  51.290  1.00  0.00    -0.010 A 
HETATM   12  C14 UNL     1      22.543   0.807  51.792  1.00  0.00    -0.017 A 
ENDROOT
BRANCH   1  13
HETATM   13  C5  UNL     1      24.790   4.111  49.766  1.00  0.00     0.025 A 
HETATM   14  C4  UNL     1      25.978   3.410  49.761  1.00  0.00     0.017 A 
HETATM   15  C3  UNL     1      27.070   4.066  49.235  1.00  0.00     0.008 A 
HETATM   16  C2  UNL     1      26.984   5.353  48.740  1.00  0.00    -0.059 A 
HETATM   17  C1  UNL     1      28.252   5.920  48.207  1.00  0.00     0.048 C 
HETATM   18  C16 UNL     1      25.770   6.018  48.766  1.00  0.00     0.044 A 
HETATM   19  C15 UNL     1      24.640   5.382  49.292  1.00  0.00     0.078 A 
BRANCH  19  20
HETATM   20  O1  UNL     1      23.485   6.132  49.269  1.00  0.00    -0.360 OA
HETATM   21  H13 UNL     1      23.346   6.730  48.444  1.00  0.00     0.217 HD
ENDBRANCH  19  20
ENDBRANCH   1  13
TORSDOF 2
ENDMDL
MODEL 6
REMARK VINA RESULT:      -7.2      3.660      4.980
REMARK  2 active torsions:
REMARK  status: ('A' for Active; 'I' for Inactive)
REMARK    1  A    between atoms: C5_5  and  C6_6 
REMARK    2  A    between atoms: C15_18  and  O1_19 
ROOT
HETATM    1  C6  UNL     1      20.824   1.322  52.212  1.00  0.00     0.086 C 
HETATM    2  N1  UNL     1      20.135   2.434  52.584  1.00  0.00    -0.152 NA
HETATM    3  N2  UNL     1      18.900   2.646  52.073  1.00  0.00    -0.156 NA
HETATM    4  C7  UNL     1      18.240   3.522  51.501  1.00  0.00     0.185 C 
HETATM    5  S1  UNL     1      16.728   2.506  51.369  1.00  0.00    -0.120 SA
HETATM    6  C8  UNL     1      17.105   1.168  50.104  1.00  0.00     0.096 C 
HETATM    7  C9  UNL     1      18.357   0.523  50.660  1.00  0.00     0.013 A 
HETATM    8  C10 UNL     1      19.319   1.073  49.877  1.00  0.00     0.042 A 
HETATM    9  C11 UNL     1      20.623   1.206  50.255  1.00  0.00    -0.026 A 
HETATM   10  C12 UNL     1      19.911   0.623  51.244  1.00  0.00     0.041 A 
HETATM   11  C13 UNL     1      19.168   0.044  52.207  1.00  0.00    -0.010 A 
HETATM   12  C14 UNL     1      17.872  -0.072  51.782  1.00  0.00    -0.017 A 
ENDROOT
BRANCH   1  13
HETATM   13  C5  UNL     1      22.145   0.949  52.664  1.00  0.00     0.025 A 
HETATM   14  C4  UNL     1      22.449  -0.333  53.075  1.00  0.00     0.017 A 
HETATM   15  C3  UNL     1      23.749  -0.550  53.478  1.00  0.00     0.008 A 
HETATM   16  C2  UNL     1      24.696   0.455  53.474  1.00  0.00    -0.059 A 
HETATM   17  C1  UNL     1      26.053   0.059  53.937  1.00  0.00     0.048 C 
HETATM   18  C16 UNL     1      24.344   1.727  53.053  1.00  0.00     0.044 A 
HETATM   19  C15 UNL     1      23.034   1.983  52.636  1.00  0.00     0.078 A 
BRANCH  19  20
HETATM   20  O1  UNL     1      22.791   3.280  52.238  1.00  0.00    -0.360 OA
HETATM   21  H13 UNL     1      23.482   3.698  51.602  1.00  0.00     0.217 HD
ENDBRANCH  19  20
ENDBRANCH   1  13
TORSDOF 2
ENDMDL
MODEL 7
REMARK VINA RESULT:      -7.1      7.735      8.539
REMARK  2 active torsions:
REMARK  status: ('A' for Active; 'I' for Inactive)
REMARK    1  A    between atoms: C5_5  and  C6_6 
REMARK    2  A    between atoms: C15_18  and  O1_19 
ROOT
HETATM    1  C6  UNL     1      30.797   6.785  47.707  1.00  0.00     0.086 C 
HETATM    2  N1  UNL     1      30.854   7.638  48.764  1.00  0.00    -0.152 NA
HETATM    3  N2  UNL     1      29.750   8.346  49.099  1.00  0.00    -0.156 NA
HETATM    4  C7  UNL     1      29.394   9.507  49.331  1.00  0.00     0.185 C 
HETATM    5  S1  UNL     1      27.651   9.068  49.649  1.00  0.00    -0.120 SA
HETATM    6  C8  UNL     1      26.923   8.576  47.989  1.00  0.00     0.096 C 
HETATM    7  C9  UNL     1      27.864   7.486  47.518  1.00  0.00     0.013 A 
HETATM    8  C10 UNL     1      28.625   8.154  46.615  1.00  0.00     0.042 A 
HETATM    9  C11 UNL     1      29.892   7.785  46.269  1.00  0.00    -0.026 A 
HETATM   10  C12 UNL     1      29.395   6.926  47.186  1.00  0.00     0.041 A 
HETATM   11  C13 UNL     1      28.863   6.093  48.101  1.00  0.00    -0.010 A 
HETATM   12  C14 UNL     1      27.595   6.499  48.414  1.00  0.00    -0.017 A 
ENDROOT
BRANCH   1  13
HETATM   13  C5  UNL     1      31.879   5.959  47.222  1.00  0.00     0.025 A 
HETATM   14  C4  UNL     1      32.365   6.061  45.934  1.00  0.00     0.017 A 
HETATM   15  C3  UNL     1      33.402   5.213  45.606  1.00  0.00     0.008 A 
HETATM   16  C2  UNL     1      33.926   4.312  46.512  1.00  0.00    -0.059 A 
HETATM   17  C1  UNL     1      35.042   3.469  46.003  1.00  0.00     0.048 C 
HETATM   18  C16 UNL     1      33.406   4.245  47.794  1.00  0.00     0.044 A 
HETATM   19  C15 UNL     1      32.354   5.091  48.161  1.00  0.00     0.078 A 
BRANCH  19  20
HETATM   20  O1  UNL     1      31.912   4.943  49.458  1.00  0.00    -0.360 OA
HETATM   21  H13 UNL     1      32.536   4.432  50.096  1.00  0.00     0.217 HD
ENDBRANCH  19  20
ENDBRANCH   1  13
TORSDOF 2
ENDMDL
MODEL 8
REMARK VINA RESULT:      -7.0      3.335      4.325
REMARK  2 active torsions:
REMARK  status: ('A' for Active; 'I' for Inactive)
REMARK    1  A    between atoms: C5_5  and  C6_6 
REMARK    2  A    between atoms: C15_18  and  O1_19 
ROOT
HETATM    1  C6  UNL     1      23.368   2.840  51.825  1.00  0.00     0.086 C 
HETATM    2  N1  UNL     1      23.025   4.108  52.177  1.00  0.00    -0.152 NA
HETATM    3  N2  UNL     1      23.450   5.141  51.412  1.00  0.00    -0.156 NA
HETATM    4  C7  UNL     1      24.029   6.228  51.513  1.00  0.00     0.185 C 
HETATM    5  S1  UNL     1      23.965   6.597  49.726  1.00  0.00    -0.120 SA
HETATM    6  C8  UNL     1      25.153   5.399  48.900  1.00  0.00     0.096 C 
HETATM    7  C9  UNL     1      24.654   4.050  49.373  1.00  0.00     0.013 A 
HETATM    8  C10 UNL     1      25.550   3.753  50.348  1.00  0.00     0.042 A 
HETATM    9  C11 UNL     1      25.289   2.913  51.390  1.00  0.00    -0.026 A 
HETATM   10  C12 UNL     1      24.206   3.007  50.589  1.00  0.00     0.041 A 
HETATM   11  C13 UNL     1      23.146   3.127  49.765  1.00  0.00    -0.010 A 
HETATM   12  C14 UNL     1      23.456   3.973  48.736  1.00  0.00    -0.017 A 
ENDROOT
BRANCH   1  13
HETATM   13  C5  UNL     1      22.996   1.633  52.528  1.00  0.00     0.025 A 
HETATM   14  C4  UNL     1      23.922   0.675  52.889  1.00  0.00     0.017 A 
HETATM   15  C3  UNL     1      23.429  -0.425  53.559  1.00  0.00     0.008 A 
HETATM   16  C2  UNL     1      22.087  -0.564  53.852  1.00  0.00    -0.059 A 
HETATM   17  C1  UNL     1      21.716  -1.809  54.579  1.00  0.00     0.048 C 
HETATM   18  C16 UNL     1      21.195   0.423  53.470  1.00  0.00     0.044 A 
HETATM   19  C15 UNL     1      21.660   1.553  52.789  1.00  0.00     0.078 A 
BRANCH  19  20
HETATM   20  O1  UNL     1      20.690   2.473  52.456  1.00  0.00    -0.360 OA
HETATM   21  H13 UNL     1      19.736   2.268  52.781  1.00  0.00     0.217 HD
ENDBRANCH  19  20
ENDBRANCH   1  13
TORSDOF 2
ENDMDL
MODEL 9
REMARK VINA RESULT:      -6.9      1.811      2.462
REMARK  2 active torsions:
REMARK  status: ('A' for Active; 'I' for Inactive)
REMARK    1  A    between atoms: C5_5  and  C6_6 
REMARK    2  A    between atoms: C15_18  and  O1_19 
ROOT
HETATM    1  C6  UNL     1      24.567   1.750  51.973  1.00  0.00     0.086 C 
HETATM    2  N1  UNL     1      23.388   1.129  51.699  1.00  0.00    -0.152 NA
HETATM    3  N2  UNL     1      22.331   1.872  51.294  1.00  0.00    -0.156 NA
HETATM    4  C7  UNL     1      21.139   2.060  51.561  1.00  0.00     0.185 C 
HETATM    5  S1  UNL     1      20.894   3.321  50.263  1.00  0.00    -0.120 SA
HETATM    6  C8  UNL     1      21.844   4.842  50.824  1.00  0.00     0.096 C 
HETATM    7  C9  UNL     1      23.241   4.303  51.046  1.00  0.00     0.013 A 
HETATM    8  C10 UNL     1      23.278   4.187  52.398  1.00  0.00     0.042 A 
HETATM    9  C11 UNL     1      24.095   3.321  53.064  1.00  0.00    -0.026 A 
HETATM   10  C12 UNL     1      24.288   3.207  51.733  1.00  0.00     0.041 A 
HETATM   11  C13 UNL     1      24.452   3.121  50.398  1.00  0.00    -0.010 A 
HETATM   12  C14 UNL     1      23.617   4.007  49.773  1.00  0.00    -0.017 A 
ENDROOT
BRANCH   1  13
HETATM   13  C5  UNL     1      25.785   1.106  52.411  1.00  0.00     0.025 A 
HETATM   14  C4  UNL     1      27.027   1.681  52.236  1.00  0.00     0.017 A 
HETATM   15  C3  UNL     1      28.103   0.958  52.705  1.00  0.00     0.008 A 
HETATM   16  C2  UNL     1      27.951  -0.271  53.314  1.00  0.00    -0.059 A 
HETATM   17  C1  UNL     1      29.211  -0.924  53.764  1.00  0.00     0.048 C 
HETATM   18  C16 UNL     1      26.684  -0.810  53.467  1.00  0.00     0.044 A 
HETATM   19  C15 UNL     1      25.569  -0.103  53.004  1.00  0.00     0.078 A 
BRANCH  19  20
HETATM   20  O1  UNL     1      24.358  -0.728  53.207  1.00  0.00    -0.360 OA
HETATM   21  H13 UNL     1      24.124  -1.490  52.558  1.00  0.00     0.217 HD
ENDBRANCH  19  20
ENDBRANCH   1  13
TORSDOF 2
ENDMDL
