MODEL 1
REMARK VINA RESULT:      -8.1      0.000      0.000
REMARK  6 active torsions:
REMARK  status: ('A' for Active; 'I' for Inactive)
REMARK    1  A    between atoms: C3_3  and  C4_4 
REMARK    2  A    between atoms: C5_5  and  C6_6 
REMARK    3  A    between atoms: C6_6  and  C7_7 
REMARK    4  A    between atoms: C7_7  and  N1_8 
REMARK    5  A    between atoms: C11_12  and  N2_13 
REMARK    6  A    between atoms: N2_13  and  C12_14 
ROOT
HETATM    1  N1  UNL     1      22.753  -0.259  53.455  1.00  0.00    -0.341 N 
HETATM    2  C8  UNL     1      22.492  -0.930  54.585  1.00  0.00     0.094 A 
HETATM    3  C9  UNL     1      21.131  -1.141  54.543  1.00  0.00     0.036 A 
HETATM    4  C10 UNL     1      20.552  -0.610  53.403  1.00  0.00     0.057 A 
HETATM    5  C11 UNL     1      19.235  -0.591  52.958  1.00  0.00     0.143 A 
HETATM    6  N3  UNL     1      19.043   0.027  51.784  1.00  0.00    -0.223 NA
HETATM    7  C18 UNL     1      20.062   0.572  51.116  1.00  0.00     0.237 A 
HETATM    8  N4  UNL     1      21.354   0.552  51.557  1.00  0.00    -0.223 NA
HETATM    9  C19 UNL     1      21.627  -0.061  52.746  1.00  0.00     0.145 A 
ENDROOT
BRANCH   5  10
HETATM   10  N2  UNL     1      18.236  -1.196  53.741  1.00  0.00    -0.340 N 
HETATM   11  H14 UNL     1      18.117  -0.834  54.724  1.00  0.00     0.167 HD
BRANCH  10  12
HETATM   12  C12 UNL     1      17.370  -2.232  53.380  1.00  0.00     0.035 A 
HETATM   13  C13 UNL     1      17.482  -3.566  53.703  1.00  0.00     0.029 A 
HETATM   14  C14 UNL     1      16.624  -4.559  53.338  1.00  0.00     0.004 A 
HETATM   15  C15 UNL     1      15.530  -4.242  52.576  1.00  0.00     0.019 A 
HETATM   16  C16 UNL     1      15.345  -2.941  52.212  1.00  0.00     0.013 A 
HETATM   17 BR1  UNL     1      13.830  -2.491  51.153  1.00  0.00    -0.051 Br
HETATM   18  C17 UNL     1      16.242  -1.977  52.607  1.00  0.00     0.048 A 
ENDBRANCH  10  12
ENDBRANCH   5  10
BRANCH   1  19
HETATM   19  C7  UNL     1      24.032   0.225  52.977  1.00  0.00     0.134 C 
BRANCH  19  20
HETATM   20  C6  UNL     1      25.165  -0.267  53.852  1.00  0.00     0.047 C 
BRANCH  20  21
HETATM   21  C5  UNL     1      26.138  -0.978  53.000  1.00  0.00    -0.025 C 
HETATM   22  C4  UNL     1      27.420  -0.730  52.803  1.00  0.00    -0.004 C 
BRANCH  22  23
HETATM   23  C3  UNL     1      28.109   0.374  53.454  1.00  0.00    -0.005 C 
HETATM   24  C2  UNL     1      29.366   0.184  53.887  1.00  0.00    -0.031 C 
HETATM   25  C1  UNL     1      29.950  -1.180  53.650  1.00  0.00     0.036 C 
ENDBRANCH  22  23
ENDBRANCH  20  21
ENDBRANCH  19  20
ENDBRANCH   1  19
TORSDOF 6
ENDMDL
MODEL 2
REMARK VINA RESULT:      -7.7      5.888      9.003
REMARK  6 active torsions:
REMARK  status: ('A' for Active; 'I' for Inactive)
REMARK    1  A    between atoms: C3_3  and  C4_4 
REMARK    2  A    between atoms: C5_5  and  C6_6 
REMARK    3  A    between atoms: C6_6  and  C7_7 
REMARK    4  A    between atoms: C7_7  and  N1_8 
REMARK    5  A    between atoms: C11_12  and  N2_13 
REMARK    6  A    between atoms: N2_13  and  C12_14 
ROOT
HETATM    1  N1  UNL     1      23.329   2.093  52.679  1.00  0.00    -0.341 N 
HETATM    2  C8  UNL     1      24.018   3.137  53.159  1.00  0.00     0.094 A 
HETATM    3  C9  UNL     1      24.199   3.950  52.061  1.00  0.00     0.036 A 
HETATM    4  C10 UNL     1      23.632   3.421  50.915  1.00  0.00     0.057 A 
HETATM    5  C11 UNL     1      23.575   3.893  49.608  1.00  0.00     0.143 A 
HETATM    6  N3  UNL     1      22.930   3.095  48.746  1.00  0.00    -0.223 NA
HETATM    7  C18 UNL     1      22.391   1.940  49.144  1.00  0.00     0.237 A 
HETATM    8  N4  UNL     1      22.449   1.479  50.428  1.00  0.00    -0.223 NA
HETATM    9  C19 UNL     1      23.091   2.240  51.363  1.00  0.00     0.145 A 
ENDROOT
BRANCH   5  10
HETATM   10  N2  UNL     1      24.176   5.124  49.296  1.00  0.00    -0.340 N 
HETATM   11  H14 UNL     1      23.554   5.975  49.311  1.00  0.00     0.167 HD
BRANCH  10  12
HETATM   12  C12 UNL     1      25.511   5.370  48.960  1.00  0.00     0.035 A 
HETATM   13  C13 UNL     1      26.571   4.498  49.062  1.00  0.00     0.029 A 
HETATM   14  C14 UNL     1      27.866   4.761  48.729  1.00  0.00     0.004 A 
HETATM   15  C15 UNL     1      28.186   6.001  48.242  1.00  0.00     0.019 A 
HETATM   16  C16 UNL     1      27.192   6.924  48.110  1.00  0.00     0.013 A 
HETATM   17 BR1  UNL     1      27.626   8.650  47.435  1.00  0.00    -0.051 Br
HETATM   18  C17 UNL     1      25.901   6.607  48.461  1.00  0.00     0.048 A 
ENDBRANCH  10  12
ENDBRANCH   5  10
BRANCH   1  19
HETATM   19  C7  UNL     1      22.860   0.925  53.397  1.00  0.00     0.134 C 
BRANCH  19  20
HETATM   20  C6  UNL     1      23.582  -0.325  52.940  1.00  0.00     0.047 C 
BRANCH  20  21
HETATM   21  C5  UNL     1      24.854  -0.427  53.682  1.00  0.00    -0.025 C 
HETATM   22  C4  UNL     1      26.082  -0.149  53.284  1.00  0.00    -0.004 C 
BRANCH  22  23
HETATM   23  C3  UNL     1      26.376   0.339  51.946  1.00  0.00    -0.005 C 
HETATM   24  C2  UNL     1      27.091   1.469  51.813  1.00  0.00    -0.031 C 
HETATM   25  C1  UNL     1      27.524   2.132  53.089  1.00  0.00     0.036 C 
ENDBRANCH  22  23
ENDBRANCH  20  21
ENDBRANCH  19  20
ENDBRANCH   1  19
TORSDOF 6
ENDMDL
MODEL 3
REMARK VINA RESULT:      -7.7      5.500     10.154
REMARK  6 active torsions:
REMARK  status: ('A' for Active; 'I' for Inactive)
REMARK    1  A    between atoms: C3_3  and  C4_4 
REMARK    2  A    between atoms: C5_5  and  C6_6 
REMARK    3  A    between atoms: C6_6  and  C7_7 
REMARK    4  A    between atoms: C7_7  and  N1_8 
REMARK    5  A    between atoms: C11_12  and  N2_13 
REMARK    6  A    between atoms: N2_13  and  C12_14 
ROOT
HETATM    1  N1  UNL     1      23.289   1.556  52.209  1.00  0.00    -0.341 N 
HETATM    2  C8  UNL     1      22.738   1.953  51.054  1.00  0.00     0.094 A 
HETATM    3  C9  UNL     1      23.801   2.448  50.329  1.00  0.00     0.036 A 
HETATM    4  C10 UNL     1      24.996   2.362  51.022  1.00  0.00     0.057 A 
HETATM    5  C11 UNL     1      26.292   2.734  50.682  1.00  0.00     0.143 A 
HETATM    6  N3  UNL     1      27.215   2.495  51.623  1.00  0.00    -0.223 NA
HETATM    7  C18 UNL     1      26.883   1.938  52.790  1.00  0.00     0.237 A 
HETATM    8  N4  UNL     1      25.610   1.573  53.121  1.00  0.00    -0.223 NA
HETATM    9  C19 UNL     1      24.615   1.787  52.211  1.00  0.00     0.145 A 
ENDROOT
BRANCH   5  10
HETATM   10  N2  UNL     1      26.532   3.314  49.424  1.00  0.00    -0.340 N 
HETATM   11  H14 UNL     1      26.479   2.675  48.587  1.00  0.00     0.167 HD
BRANCH  10  12
HETATM   12  C12 UNL     1      26.838   4.647  49.136  1.00  0.00     0.035 A 
HETATM   13  C13 UNL     1      27.950   5.126  48.481  1.00  0.00     0.029 A 
HETATM   14  C14 UNL     1      28.228   6.433  48.212  1.00  0.00     0.004 A 
HETATM   15  C15 UNL     1      27.339   7.395  48.615  1.00  0.00     0.019 A 
HETATM   16  C16 UNL     1      26.211   7.004  49.272  1.00  0.00     0.013 A 
HETATM   17 BR1  UNL     1      24.970   8.332  49.837  1.00  0.00    -0.051 Br
HETATM   18  C17 UNL     1      25.979   5.671  49.518  1.00  0.00     0.048 A 
ENDBRANCH  10  12
ENDBRANCH   5  10
BRANCH   1  19
HETATM   19  C7  UNL     1      22.635   0.952  53.351  1.00  0.00     0.134 C 
BRANCH  19  20
HETATM   20  C6  UNL     1      22.213  -0.471  53.050  1.00  0.00     0.047 C 
BRANCH  20  21
HETATM   21  C5  UNL     1      20.986  -0.766  53.816  1.00  0.00    -0.025 C 
HETATM   22  C4  UNL     1      19.722  -0.611  53.468  1.00  0.00    -0.004 C 
BRANCH  22  23
HETATM   23  C3  UNL     1      19.330  -0.082  52.171  1.00  0.00    -0.005 C 
HETATM   24  C2  UNL     1      18.094  -0.341  51.715  1.00  0.00    -0.031 C 
HETATM   25  C1  UNL     1      17.218  -1.169  52.610  1.00  0.00     0.036 C 
ENDBRANCH  22  23
ENDBRANCH  20  21
ENDBRANCH  19  20
ENDBRANCH   1  19
TORSDOF 6
ENDMDL
MODEL 4
REMARK VINA RESULT:      -7.7      2.303      2.977
REMARK  6 active torsions:
REMARK  status: ('A' for Active; 'I' for Inactive)
REMARK    1  A    between atoms: C3_3  and  C4_4 
REMARK    2  A    between atoms: C5_5  and  C6_6 
REMARK    3  A    between atoms: C6_6  and  C7_7 
REMARK    4  A    between atoms: C7_7  and  N1_8 
REMARK    5  A    between atoms: C11_12  and  N2_13 
REMARK    6  A    between atoms: N2_13  and  C12_14 
ROOT
HETATM    1  N1  UNL     1      23.888  -0.373  53.612  1.00  0.00    -0.341 N 
HETATM    2  C8  UNL     1      23.539  -1.047  54.715  1.00  0.00     0.094 A 
HETATM    3  C9  UNL     1      22.163  -1.095  54.656  1.00  0.00     0.036 A 
HETATM    4  C10 UNL     1      21.662  -0.460  53.532  1.00  0.00     0.057 A 
HETATM    5  C11 UNL     1      20.361  -0.272  53.079  1.00  0.00     0.143 A 
HETATM    6  N3  UNL     1      20.256   0.404  51.927  1.00  0.00    -0.223 NA
HETATM    7  C18 UNL     1      21.339   0.849  51.286  1.00  0.00     0.237 A 
HETATM    8  N4  UNL     1      22.615   0.662  51.733  1.00  0.00    -0.223 NA
HETATM    9  C19 UNL     1      22.801  -0.019  52.902  1.00  0.00     0.145 A 
ENDROOT
BRANCH   5  10
HETATM   10  N2  UNL     1      19.290  -0.782  53.834  1.00  0.00    -0.340 N 
HETATM   11  H14 UNL     1      19.371  -0.712  54.883  1.00  0.00     0.167 HD
BRANCH  10  12
HETATM   12  C12 UNL     1      18.116  -1.379  53.366  1.00  0.00     0.035 A 
HETATM   13  C13 UNL     1      17.146  -0.808  52.574  1.00  0.00     0.029 A 
HETATM   14  C14 UNL     1      16.008  -1.411  52.131  1.00  0.00     0.004 A 
HETATM   15  C15 UNL     1      15.767  -2.713  52.485  1.00  0.00     0.019 A 
HETATM   16  C16 UNL     1      16.680  -3.353  53.269  1.00  0.00     0.013 A 
HETATM   17 BR1  UNL     1      16.356  -5.161  53.767  1.00  0.00    -0.051 Br
HETATM   18  C17 UNL     1      17.813  -2.697  53.690  1.00  0.00     0.048 A 
ENDBRANCH  10  12
ENDBRANCH   5  10
BRANCH   1  19
HETATM   19  C7  UNL     1      25.220  -0.026  53.159  1.00  0.00     0.134 C 
BRANCH  19  20
HETATM   20  C6  UNL     1      25.533   1.428  53.443  1.00  0.00     0.047 C 
BRANCH  20  21
HETATM   21  C5  UNL     1      26.667   1.836  52.591  1.00  0.00    -0.025 C 
HETATM   22  C4  UNL     1      26.660   2.438  51.416  1.00  0.00    -0.004 C 
BRANCH  22  23
HETATM   23  C3  UNL     1      25.428   2.815  50.741  1.00  0.00    -0.005 C 
HETATM   24  C2  UNL     1      25.501   3.618  49.665  1.00  0.00    -0.031 C 
HETATM   25  C1  UNL     1      26.878   4.056  49.258  1.00  0.00     0.036 C 
ENDBRANCH  22  23
ENDBRANCH  20  21
ENDBRANCH  19  20
ENDBRANCH   1  19
TORSDOF 6
ENDMDL
MODEL 5
REMARK VINA RESULT:      -7.6      5.955      8.308
REMARK  6 active torsions:
REMARK  status: ('A' for Active; 'I' for Inactive)
REMARK    1  A    between atoms: C3_3  and  C4_4 
REMARK    2  A    between atoms: C5_5  and  C6_6 
REMARK    3  A    between atoms: C6_6  and  C7_7 
REMARK    4  A    between atoms: C7_7  and  N1_8 
REMARK    5  A    between atoms: C11_12  and  N2_13 
REMARK    6  A    between atoms: N2_13  and  C12_14 
ROOT
HETATM    1  N1  UNL     1      23.011   5.516  50.300  1.00  0.00    -0.341 N 
HETATM    2  C8  UNL     1      23.525   5.780  51.509  1.00  0.00     0.094 A 
HETATM    3  C9  UNL     1      23.598   4.546  52.118  1.00  0.00     0.036 A 
HETATM    4  C10 UNL     1      23.136   3.529  51.301  1.00  0.00     0.057 A 
HETATM    5  C11 UNL     1      23.029   2.157  51.504  1.00  0.00     0.143 A 
HETATM    6  N3  UNL     1      22.525   1.470  50.469  1.00  0.00    -0.223 NA
HETATM    7  C18 UNL     1      22.164   2.087  49.341  1.00  0.00     0.237 A 
HETATM    8  N4  UNL     1      22.271   3.434  49.146  1.00  0.00    -0.223 NA
HETATM    9  C19 UNL     1      22.776   4.199  50.157  1.00  0.00     0.145 A 
ENDROOT
BRANCH   5  10
HETATM   10  N2  UNL     1      23.438   1.610  52.732  1.00  0.00    -0.340 N 
HETATM   11  H14 UNL     1      22.754   1.669  53.532  1.00  0.00     0.167 HD
BRANCH  10  12
HETATM   12  C12 UNL     1      24.654   0.989  53.035  1.00  0.00     0.035 A 
HETATM   13  C13 UNL     1      24.881  -0.355  53.226  1.00  0.00     0.029 A 
HETATM   14  C14 UNL     1      26.077  -0.937  53.522  1.00  0.00     0.004 A 
HETATM   15  C15 UNL     1      27.187  -0.142  53.650  1.00  0.00     0.019 A 
HETATM   16  C16 UNL     1      27.047   1.202  53.475  1.00  0.00     0.013 A 
HETATM   17 BR1  UNL     1      28.581   2.315  53.652  1.00  0.00    -0.051 Br
HETATM   18  C17 UNL     1      25.816   1.739  53.178  1.00  0.00     0.048 A 
ENDBRANCH  10  12
ENDBRANCH   5  10
BRANCH   1  19
HETATM   19  C7  UNL     1      22.718   6.448  49.230  1.00  0.00     0.134 C 
BRANCH  19  20
HETATM   20  C6  UNL     1      23.723   6.323  48.105  1.00  0.00     0.047 C 
BRANCH  20  21
HETATM   21  C5  UNL     1      24.946   7.056  48.488  1.00  0.00    -0.025 C 
HETATM   22  C4  UNL     1      26.110   6.589  48.897  1.00  0.00    -0.004 C 
BRANCH  22  23
HETATM   23  C3  UNL     1      26.372   5.165  49.041  1.00  0.00    -0.005 C 
HETATM   24  C2  UNL     1      27.589   4.697  48.716  1.00  0.00    -0.031 C 
HETATM   25  C1  UNL     1      28.581   5.712  48.226  1.00  0.00     0.036 C 
ENDBRANCH  22  23
ENDBRANCH  20  21
ENDBRANCH  19  20
ENDBRANCH   1  19
TORSDOF 6
ENDMDL
MODEL 6
REMARK VINA RESULT:      -7.4      4.772      8.346
REMARK  6 active torsions:
REMARK  status: ('A' for Active; 'I' for Inactive)
REMARK    1  A    between atoms: C3_3  and  C4_4 
REMARK    2  A    between atoms: C5_5  and  C6_6 
REMARK    3  A    between atoms: C6_6  and  C7_7 
REMARK    4  A    between atoms: C7_7  and  N1_8 
REMARK    5  A    between atoms: C11_12  and  N2_13 
REMARK    6  A    between atoms: N2_13  and  C12_14 
ROOT
HETATM    1  N1  UNL     1      21.796   3.770  48.684  1.00  0.00    -0.341 N 
HETATM    2  C8  UNL     1      22.719   2.935  48.190  1.00  0.00     0.094 A 
HETATM    3  C9  UNL     1      23.682   2.880  49.175  1.00  0.00     0.036 A 
HETATM    4  C10 UNL     1      23.363   3.669  50.266  1.00  0.00     0.057 A 
HETATM    5  C11 UNL     1      24.032   3.908  51.462  1.00  0.00     0.143 A 
HETATM    6  N3  UNL     1      23.409   4.747  52.301  1.00  0.00    -0.223 NA
HETATM    7  C18 UNL     1      22.234   5.294  51.984  1.00  0.00     0.237 A 
HETATM    8  N4  UNL     1      21.580   5.058  50.809  1.00  0.00    -0.223 NA
HETATM    9  C19 UNL     1      22.154   4.212  49.904  1.00  0.00     0.145 A 
ENDROOT
BRANCH   5  10
HETATM   10  N2  UNL     1      25.267   3.278  51.696  1.00  0.00    -0.340 N 
HETATM   11  H14 UNL     1      26.134   3.858  51.540  1.00  0.00     0.167 HD
BRANCH  10  12
HETATM   12  C12 UNL     1      25.498   1.964  52.111  1.00  0.00     0.035 A 
HETATM   13  C13 UNL     1      26.625   1.204  51.892  1.00  0.00     0.029 A 
HETATM   14  C14 UNL     1      26.827  -0.078  52.307  1.00  0.00     0.004 A 
HETATM   15  C15 UNL     1      25.837  -0.709  53.014  1.00  0.00     0.019 A 
HETATM   16  C16 UNL     1      24.687  -0.025  53.274  1.00  0.00     0.013 A 
HETATM   17 BR1  UNL     1      23.305  -0.892  54.254  1.00  0.00    -0.051 Br
HETATM   18  C17 UNL     1      24.534   1.268  52.831  1.00  0.00     0.048 A 
ENDBRANCH  10  12
ENDBRANCH   5  10
BRANCH   1  19
HETATM   19  C7  UNL     1      20.555   4.196  48.071  1.00  0.00     0.134 C 
BRANCH  19  20
HETATM   20  C6  UNL     1      19.604   3.030  47.894  1.00  0.00     0.047 C 
BRANCH  20  21
HETATM   21  C5  UNL     1      18.931   2.778  49.184  1.00  0.00    -0.025 C 
HETATM   22  C4  UNL     1      19.178   1.852  50.092  1.00  0.00    -0.004 C 
BRANCH  22  23
HETATM   23  C3  UNL     1      20.238   0.869  49.934  1.00  0.00    -0.005 C 
HETATM   24  C2  UNL     1      21.106   0.688  50.943  1.00  0.00    -0.031 C 
HETATM   25  C1  UNL     1      20.892   1.539  52.162  1.00  0.00     0.036 C 
ENDBRANCH  22  23
ENDBRANCH  20  21
ENDBRANCH  19  20
ENDBRANCH   1  19
TORSDOF 6
ENDMDL
MODEL 7
REMARK VINA RESULT:      -7.3      7.343     11.150
REMARK  6 active torsions:
REMARK  status: ('A' for Active; 'I' for Inactive)
REMARK    1  A    between atoms: C3_3  and  C4_4 
REMARK    2  A    between atoms: C5_5  and  C6_6 
REMARK    3  A    between atoms: C6_6  and  C7_7 
REMARK    4  A    between atoms: C7_7  and  N1_8 
REMARK    5  A    between atoms: C11_12  and  N2_13 
REMARK    6  A    between atoms: N2_13  and  C12_14 
ROOT
HETATM    1  N1  UNL     1      24.842   3.460  51.121  1.00  0.00    -0.341 N 
HETATM    2  C8  UNL     1      25.771   2.880  50.349  1.00  0.00     0.094 A 
HETATM    3  C9  UNL     1      26.233   3.905  49.552  1.00  0.00     0.036 A 
HETATM    4  C10 UNL     1      25.601   5.107  49.823  1.00  0.00     0.057 A 
HETATM    5  C11 UNL     1      25.750   6.374  49.272  1.00  0.00     0.143 A 
HETATM    6  N3  UNL     1      24.952   7.316  49.795  1.00  0.00    -0.223 NA
HETATM    7  C18 UNL     1      24.090   7.026  50.772  1.00  0.00     0.237 A 
HETATM    8  N4  UNL     1      23.947   5.779  51.311  1.00  0.00    -0.223 NA
HETATM    9  C19 UNL     1      24.727   4.769  50.828  1.00  0.00     0.145 A 
ENDROOT
BRANCH   5  10
HETATM   10  N2  UNL     1      26.689   6.571  48.245  1.00  0.00    -0.340 N 
HETATM   11  H14 UNL     1      26.320   6.580  47.257  1.00  0.00     0.167 HD
BRANCH  10  12
HETATM   12  C12 UNL     1      28.070   6.757  48.364  1.00  0.00     0.035 A 
HETATM   13  C13 UNL     1      29.057   5.810  48.210  1.00  0.00     0.029 A 
HETATM   14  C14 UNL     1      30.398   6.016  48.333  1.00  0.00     0.004 A 
HETATM   15  C15 UNL     1      30.850   7.273  48.639  1.00  0.00     0.019 A 
HETATM   16  C16 UNL     1      29.935   8.269  48.809  1.00  0.00     0.013 A 
HETATM   17 BR1  UNL     1      30.552  10.018  49.235  1.00  0.00    -0.051 Br
HETATM   18  C17 UNL     1      28.592   8.008  48.674  1.00  0.00     0.048 A 
ENDBRANCH  10  12
ENDBRANCH   5  10
BRANCH   1  19
HETATM   19  C7  UNL     1      24.028   2.851  52.151  1.00  0.00     0.134 C 
BRANCH  19  20
HETATM   20  C6  UNL     1      23.888   1.359  51.928  1.00  0.00     0.047 C 
BRANCH  20  21
HETATM   21  C5  UNL     1      24.234   0.665  53.183  1.00  0.00    -0.025 C 
HETATM   22  C4  UNL     1      25.281  -0.087  53.465  1.00  0.00    -0.004 C 
BRANCH  22  23
HETATM   23  C3  UNL     1      26.330  -0.358  52.494  1.00  0.00    -0.005 C 
HETATM   24  C2  UNL     1      27.612  -0.247  52.880  1.00  0.00    -0.031 C 
HETATM   25  C1  UNL     1      27.841   0.155  54.309  1.00  0.00     0.036 C 
ENDBRANCH  22  23
ENDBRANCH  20  21
ENDBRANCH  19  20
ENDBRANCH   1  19
TORSDOF 6
ENDMDL
MODEL 8
REMARK VINA RESULT:      -7.3      6.178      8.510
REMARK  6 active torsions:
REMARK  status: ('A' for Active; 'I' for Inactive)
REMARK    1  A    between atoms: C3_3  and  C4_4 
REMARK    2  A    between atoms: C5_5  and  C6_6 
REMARK    3  A    between atoms: C6_6  and  C7_7 
REMARK    4  A    between atoms: C7_7  and  N1_8 
REMARK    5  A    between atoms: C11_12  and  N2_13 
REMARK    6  A    between atoms: N2_13  and  C12_14 
ROOT
HETATM    1  N1  UNL     1      26.493   5.776  49.316  1.00  0.00    -0.341 N 
HETATM    2  C8  UNL     1      27.037   4.623  48.904  1.00  0.00     0.094 A 
HETATM    3  C9  UNL     1      26.204   3.656  49.422  1.00  0.00     0.036 A 
HETATM    4  C10 UNL     1      25.156   4.198  50.147  1.00  0.00     0.057 A 
HETATM    5  C11 UNL     1      24.100   3.606  50.829  1.00  0.00     0.143 A 
HETATM    6  N3  UNL     1      23.261   4.463  51.427  1.00  0.00    -0.223 NA
HETATM    7  C18 UNL     1      23.452   5.782  51.353  1.00  0.00     0.237 A 
HETATM    8  N4  UNL     1      24.491   6.360  50.682  1.00  0.00    -0.223 NA
HETATM    9  C19 UNL     1      25.387   5.549  50.047  1.00  0.00     0.145 A 
ENDROOT
BRANCH   5  10
HETATM   10  N2  UNL     1      23.991   2.204  50.845  1.00  0.00    -0.340 N 
HETATM   11  H14 UNL     1      23.528   1.753  50.012  1.00  0.00     0.167 HD
BRANCH  10  12
HETATM   12  C12 UNL     1      24.422   1.319  51.837  1.00  0.00     0.035 A 
HETATM   13  C13 UNL     1      25.720   0.978  52.147  1.00  0.00     0.029 A 
HETATM   14  C14 UNL     1      26.116   0.110  53.120  1.00  0.00     0.004 A 
HETATM   15  C15 UNL     1      25.161  -0.504  53.888  1.00  0.00     0.019 A 
HETATM   16  C16 UNL     1      23.851  -0.220  53.645  1.00  0.00     0.013 A 
HETATM   17 BR1  UNL     1      22.517  -1.069  54.705  1.00  0.00    -0.051 Br
HETATM   18  C17 UNL     1      23.505   0.663  52.650  1.00  0.00     0.048 A 
ENDBRANCH  10  12
ENDBRANCH   5  10
BRANCH   1  19
HETATM   19  C7  UNL     1      26.956   7.125  49.060  1.00  0.00     0.134 C 
BRANCH  19  20
HETATM   20  C6  UNL     1      27.797   7.186  47.802  1.00  0.00     0.047 C 
BRANCH  20  21
HETATM   21  C5  UNL     1      29.133   7.702  48.159  1.00  0.00    -0.025 C 
HETATM   22  C4  UNL     1      30.298   7.081  48.165  1.00  0.00    -0.004 C 
BRANCH  22  23
HETATM   23  C3  UNL     1      30.439   5.683  47.790  1.00  0.00    -0.005 C 
HETATM   24  C2  UNL     1      31.581   5.044  48.094  1.00  0.00    -0.031 C 
HETATM   25  C1  UNL     1      32.623   5.856  48.809  1.00  0.00     0.036 C 
ENDBRANCH  22  23
ENDBRANCH  20  21
ENDBRANCH  19  20
ENDBRANCH   1  19
TORSDOF 6
ENDMDL
MODEL 9
REMARK VINA RESULT:      -7.3      4.636      8.920
REMARK  6 active torsions:
REMARK  status: ('A' for Active; 'I' for Inactive)
REMARK    1  A    between atoms: C3_3  and  C4_4 
REMARK    2  A    between atoms: C5_5  and  C6_6 
REMARK    3  A    between atoms: C6_6  and  C7_7 
REMARK    4  A    between atoms: C7_7  and  N1_8 
REMARK    5  A    between atoms: C11_12  and  N2_13 
REMARK    6  A    between atoms: N2_13  and  C12_14 
ROOT
HETATM    1  N1  UNL     1      22.164   0.936  51.048  1.00  0.00    -0.341 N 
HETATM    2  C8  UNL     1      22.324   0.416  52.272  1.00  0.00     0.094 A 
HETATM    3  C9  UNL     1      23.497   0.980  52.725  1.00  0.00     0.036 A 
HETATM    4  C10 UNL     1      24.059   1.839  51.796  1.00  0.00     0.057 A 
HETATM    5  C11 UNL     1      25.217   2.608  51.831  1.00  0.00     0.143 A 
HETATM    6  N3  UNL     1      25.449   3.332  50.726  1.00  0.00    -0.223 NA
HETATM    7  C18 UNL     1      24.610   3.295  49.689  1.00  0.00     0.237 A 
HETATM    8  N4  UNL     1      23.474   2.539  49.658  1.00  0.00    -0.223 NA
HETATM    9  C19 UNL     1      23.172   1.775  50.749  1.00  0.00     0.145 A 
ENDROOT
BRANCH   5  10
HETATM   10  N2  UNL     1      26.032   2.572  52.976  1.00  0.00    -0.340 N 
HETATM   11  H14 UNL     1      25.798   3.251  53.748  1.00  0.00     0.167 HD
BRANCH  10  12
HETATM   12  C12 UNL     1      27.130   1.743  53.225  1.00  0.00     0.035 A 
HETATM   13  C13 UNL     1      28.363   2.113  53.713  1.00  0.00     0.029 A 
HETATM   14  C14 UNL     1      29.419   1.285  53.946  1.00  0.00     0.004 A 
HETATM   15  C15 UNL     1      29.283  -0.053  53.685  1.00  0.00     0.019 A 
HETATM   16  C16 UNL     1      28.091  -0.502  53.199  1.00  0.00     0.013 A 
HETATM   17 BR1  UNL     1      27.891  -2.358  52.831  1.00  0.00    -0.051 Br
HETATM   18  C17 UNL     1      27.056   0.376  52.980  1.00  0.00     0.048 A 
ENDBRANCH  10  12
ENDBRANCH   5  10
BRANCH   1  19
HETATM   19  C7  UNL     1      21.090   0.692  50.106  1.00  0.00     0.134 C 
BRANCH  19  20
HETATM   20  C6  UNL     1      19.757   1.136  50.670  1.00  0.00     0.047 C 
BRANCH  20  21
HETATM   21  C5  UNL     1      19.508   2.527  50.242  1.00  0.00    -0.025 C 
HETATM   22  C4  UNL     1      19.798   3.658  50.857  1.00  0.00    -0.004 C 
BRANCH  22  23
HETATM   23  C3  UNL     1      20.459   3.694  52.153  1.00  0.00    -0.005 C 
HETATM   24  C2  UNL     1      21.498   4.529  52.325  1.00  0.00    -0.031 C 
HETATM   25  C1  UNL     1      21.883   5.361  51.135  1.00  0.00     0.036 C 
ENDBRANCH  22  23
ENDBRANCH  20  21
ENDBRANCH  19  20
ENDBRANCH   1  19
TORSDOF 6
ENDMDL
