MODEL 1
REMARK VINA RESULT:      -7.0      0.000      0.000
REMARK  9 active torsions:
REMARK  status: ('A' for Active; 'I' for Inactive)
REMARK    1  A    between atoms: O1_2  and  C2_3 
REMARK    2  A    between atoms: C5_6  and  C6_7 
REMARK    3  A    between atoms: C6_7  and  C7_8 
REMARK    4  A    between atoms: C7_8  and  P1_9 
REMARK    5  A    between atoms: C7_8  and  O2_10 
REMARK    6  A    between atoms: O2_10  and  N1_11 
REMARK    7  A    between atoms: N1_11  and  S1_12 
REMARK    8  A    between atoms: S1_12  and  C8_15 
REMARK    9  A    between atoms: C13_20  and  P2_21 
ROOT
HETATM    1  N1  UNL     1      26.120   1.700  51.415  1.00  0.00    -0.084 NA
HETATM    2  H9  UNL     1      27.088   1.691  51.085  1.00  0.00     0.173 HD
ENDROOT
BRANCH   1   3
HETATM    3  O2  UNL     1      25.665   2.959  51.704  1.00  0.00    -0.253 OA
BRANCH   3   4
HETATM    4  C7  UNL     1      24.696   3.659  51.055  1.00  0.00     0.080 C 
BRANCH   4   5
HETATM    5  C6  UNL     1      24.596   3.829  49.580  1.00  0.00     0.106 C 
BRANCH   5   6
HETATM    6  C5  UNL     1      25.778   4.605  49.143  1.00  0.00    -0.052 A 
HETATM    7  C4  UNL     1      25.438   5.930  48.842  1.00  0.00     0.010 A 
HETATM    8  C3  UNL     1      26.364   6.858  48.408  1.00  0.00     0.037 A 
HETATM    9  C2  UNL     1      27.680   6.467  48.264  1.00  0.00     0.068 A 
HETATM   10  C15 UNL     1      28.027   5.164  48.559  1.00  0.00     0.037 A 
HETATM   11  C14 UNL     1      27.098   4.239  48.991  1.00  0.00     0.010 A 
BRANCH   9  12
HETATM   12  O1  UNL     1      28.674   7.336  47.833  1.00  0.00    -0.356 OA
HETATM   13  C1  UNL     1      30.014   6.925  47.660  1.00  0.00     0.210 C 
ENDBRANCH   9  12
ENDBRANCH   5   6
ENDBRANCH   4   5
BRANCH   4  14
HETATM   14  P1  UNL     1      23.482   4.420  51.924  1.00  0.00    -0.039 P 
HETATM   15  H8  UNL     1      23.840   5.230  53.069  1.00  0.00     0.069 HD
ENDBRANCH   4  14
ENDBRANCH   3   4
ENDBRANCH   1   3
BRANCH   1  16
HETATM   16  S1  UNL     1      25.925   0.734  52.857  1.00  0.00     0.264 S 
HETATM   17  O3  UNL     1      25.871   1.625  54.061  1.00  0.00    -0.204 OA
HETATM   18  O4  UNL     1      24.548   0.109  52.726  1.00  0.00    -0.204 OA
BRANCH  16  19
HETATM   19  C8  UNL     1      27.166  -0.489  52.979  1.00  0.00     0.087 A 
HETATM   20  C9  UNL     1      27.112  -1.846  52.746  1.00  0.00     0.026 A 
HETATM   21  C10 UNL     1      28.239  -2.620  52.907  1.00  0.00     0.002 A 
HETATM   22  C11 UNL     1      29.445  -2.079  53.301  1.00  0.00     0.001 A 
HETATM   23  C12 UNL     1      29.515  -0.725  53.537  1.00  0.00     0.013 A 
HETATM   24  C13 UNL     1      28.382   0.081  53.379  1.00  0.00    -0.014 A 
BRANCH  24  25
HETATM   25  P2  UNL     1      28.688   1.849  53.742  1.00  0.00    -0.105 P 
HETATM   26  H14 UNL     1      29.814   2.291  52.911  1.00  0.00     0.059 HD
HETATM   27  H15 UNL     1      27.530   2.595  53.268  1.00  0.00     0.059 HD
ENDBRANCH  24  25
ENDBRANCH  16  19
ENDBRANCH   1  16
TORSDOF 9
ENDMDL
MODEL 2
REMARK VINA RESULT:      -6.9      2.708      7.081
REMARK  9 active torsions:
REMARK  status: ('A' for Active; 'I' for Inactive)
REMARK    1  A    between atoms: O1_2  and  C2_3 
REMARK    2  A    between atoms: C5_6  and  C6_7 
REMARK    3  A    between atoms: C6_7  and  C7_8 
REMARK    4  A    between atoms: C7_8  and  P1_9 
REMARK    5  A    between atoms: C7_8  and  O2_10 
REMARK    6  A    between atoms: O2_10  and  N1_11 
REMARK    7  A    between atoms: N1_11  and  S1_12 
REMARK    8  A    between atoms: S1_12  and  C8_15 
REMARK    9  A    between atoms: C13_20  and  P2_21 
ROOT
HETATM    1  N1  UNL     1      24.461   2.068  51.078  1.00  0.00    -0.084 NA
HETATM    2  H9  UNL     1      23.992   1.475  50.390  1.00  0.00     0.173 HD
ENDROOT
BRANCH   1   3
HETATM    3  O2  UNL     1      24.064   1.811  52.364  1.00  0.00    -0.253 OA
BRANCH   3   4
HETATM    4  C7  UNL     1      23.223   0.832  52.791  1.00  0.00     0.080 C 
BRANCH   4   5
HETATM    5  C6  UNL     1      23.644  -0.476  53.363  1.00  0.00     0.106 C 
BRANCH   5   6
HETATM    6  C5  UNL     1      25.120  -0.461  53.465  1.00  0.00    -0.052 A 
HETATM    7  C4  UNL     1      25.543   0.020  54.711  1.00  0.00     0.010 A 
HETATM    8  C3  UNL     1      26.875   0.135  55.053  1.00  0.00     0.037 A 
HETATM    9  C2  UNL     1      27.834  -0.237  54.132  1.00  0.00     0.068 A 
HETATM   10  C15 UNL     1      27.429  -0.712  52.901  1.00  0.00     0.037 A 
HETATM   11  C14 UNL     1      26.096  -0.825  52.562  1.00  0.00     0.010 A 
BRANCH   9  12
HETATM   12  O1  UNL     1      29.195  -0.152  54.395  1.00  0.00    -0.356 OA
HETATM   13  C1  UNL     1      30.165  -0.739  53.553  1.00  0.00     0.210 C 
ENDBRANCH   9  12
ENDBRANCH   5   6
ENDBRANCH   4   5
BRANCH   4  14
HETATM   14  P1  UNL     1      21.565   1.045  52.697  1.00  0.00    -0.039 P 
HETATM   15  H8  UNL     1      20.696  -0.085  52.951  1.00  0.00     0.069 HD
ENDBRANCH   4  14
ENDBRANCH   3   4
ENDBRANCH   1   3
BRANCH   1  16
HETATM   16  S1  UNL     1      24.166   3.762  50.773  1.00  0.00     0.264 S 
HETATM   17  O3  UNL     1      22.848   3.931  50.079  1.00  0.00    -0.204 OA
HETATM   18  O4  UNL     1      24.008   4.385  52.148  1.00  0.00    -0.204 OA
BRANCH  16  19
HETATM   19  C8  UNL     1      25.488   4.492  49.896  1.00  0.00     0.087 A 
HETATM   20  C9  UNL     1      26.623   3.928  49.355  1.00  0.00     0.026 A 
HETATM   21  C10 UNL     1      27.539   4.716  48.694  1.00  0.00     0.002 A 
HETATM   22  C11 UNL     1      27.361   6.076  48.550  1.00  0.00     0.001 A 
HETATM   23  C12 UNL     1      26.232   6.654  49.085  1.00  0.00     0.013 A 
HETATM   24  C13 UNL     1      25.288   5.872  49.760  1.00  0.00    -0.014 A 
BRANCH  24  25
HETATM   25  P2  UNL     1      23.864   6.833  50.394  1.00  0.00    -0.105 P 
HETATM   26  H14 UNL     1      24.264   7.449  51.664  1.00  0.00     0.059 HD
HETATM   27  H15 UNL     1      23.643   7.938  49.470  1.00  0.00     0.059 HD
ENDBRANCH  24  25
ENDBRANCH  16  19
ENDBRANCH   1  16
TORSDOF 9
ENDMDL
MODEL 3
REMARK VINA RESULT:      -6.8      2.720      5.158
REMARK  9 active torsions:
REMARK  status: ('A' for Active; 'I' for Inactive)
REMARK    1  A    between atoms: O1_2  and  C2_3 
REMARK    2  A    between atoms: C5_6  and  C6_7 
REMARK    3  A    between atoms: C6_7  and  C7_8 
REMARK    4  A    between atoms: C7_8  and  P1_9 
REMARK    5  A    between atoms: C7_8  and  O2_10 
REMARK    6  A    between atoms: O2_10  and  N1_11 
REMARK    7  A    between atoms: N1_11  and  S1_12 
REMARK    8  A    between atoms: S1_12  and  C8_15 
REMARK    9  A    between atoms: C13_20  and  P2_21 
ROOT
HETATM    1  N1  UNL     1      26.646   2.505  51.839  1.00  0.00    -0.084 NA
HETATM    2  H9  UNL     1      26.665   3.473  52.168  1.00  0.00     0.173 HD
ENDROOT
BRANCH   1   3
HETATM    3  O2  UNL     1      25.783   2.313  50.792  1.00  0.00    -0.253 OA
BRANCH   3   4
HETATM    4  C7  UNL     1      25.309   3.248  49.927  1.00  0.00     0.080 C 
BRANCH   4   5
HETATM    5  C6  UNL     1      23.974   3.216  49.270  1.00  0.00     0.106 C 
BRANCH   5   6
HETATM    6  C5  UNL     1      22.980   2.853  50.305  1.00  0.00    -0.052 A 
HETATM    7  C4  UNL     1      22.422   1.591  50.059  1.00  0.00     0.010 A 
HETATM    8  C3  UNL     1      21.467   1.025  50.879  1.00  0.00     0.037 A 
HETATM    9  C2  UNL     1      21.041   1.729  51.988  1.00  0.00     0.068 A 
HETATM   10  C15 UNL     1      21.584   2.973  52.240  1.00  0.00     0.037 A 
HETATM   11  C14 UNL     1      22.538   3.535  51.418  1.00  0.00     0.010 A 
BRANCH   9  12
HETATM   12  O1  UNL     1      20.084   1.233  52.865  1.00  0.00    -0.356 OA
HETATM   13  C1  UNL     1      20.120  -0.091  53.354  1.00  0.00     0.210 C 
ENDBRANCH   9  12
ENDBRANCH   5   6
ENDBRANCH   4   5
BRANCH   4  14
HETATM   14  P1  UNL     1      26.249   4.573  49.520  1.00  0.00    -0.039 P 
HETATM   15  H8  UNL     1      25.713   5.903  49.719  1.00  0.00     0.069 HD
ENDBRANCH   4  14
ENDBRANCH   3   4
ENDBRANCH   1   3
BRANCH   1  16
HETATM   16  S1  UNL     1      26.172   1.405  53.110  1.00  0.00     0.264 S 
HETATM   17  O3  UNL     1      26.293   2.084  54.441  1.00  0.00    -0.204 OA
HETATM   18  O4  UNL     1      24.690   1.165  52.886  1.00  0.00    -0.204 OA
BRANCH  16  19
HETATM   19  C8  UNL     1      27.074  -0.088  53.030  1.00  0.00     0.087 A 
HETATM   20  C9  UNL     1      26.688  -1.347  52.624  1.00  0.00     0.026 A 
HETATM   21  C10 UNL     1      27.589  -2.388  52.647  1.00  0.00     0.002 A 
HETATM   22  C11 UNL     1      28.891  -2.215  53.068  1.00  0.00     0.001 A 
HETATM   23  C12 UNL     1      29.292  -0.963  53.477  1.00  0.00     0.013 A 
HETATM   24  C13 UNL     1      28.392   0.108  53.462  1.00  0.00    -0.014 A 
BRANCH  24  25
HETATM   25  P2  UNL     1      29.124   1.683  54.043  1.00  0.00    -0.105 P 
HETATM   26  H14 UNL     1      29.573   1.489  55.426  1.00  0.00     0.059 HD
HETATM   27  H15 UNL     1      30.333   1.912  53.263  1.00  0.00     0.059 HD
ENDBRANCH  24  25
ENDBRANCH  16  19
ENDBRANCH   1  16
TORSDOF 9
ENDMDL
MODEL 4
REMARK VINA RESULT:      -6.8      2.700      7.481
REMARK  9 active torsions:
REMARK  status: ('A' for Active; 'I' for Inactive)
REMARK    1  A    between atoms: O1_2  and  C2_3 
REMARK    2  A    between atoms: C5_6  and  C6_7 
REMARK    3  A    between atoms: C6_7  and  C7_8 
REMARK    4  A    between atoms: C7_8  and  P1_9 
REMARK    5  A    between atoms: C7_8  and  O2_10 
REMARK    6  A    between atoms: O2_10  and  N1_11 
REMARK    7  A    between atoms: N1_11  and  S1_12 
REMARK    8  A    between atoms: S1_12  and  C8_15 
REMARK    9  A    between atoms: C13_20  and  P2_21 
ROOT
HETATM    1  N1  UNL     1      26.071   3.973  50.733  1.00  0.00    -0.084 NA
HETATM    2  H9  UNL     1      27.045   3.709  50.569  1.00  0.00     0.173 HD
ENDROOT
BRANCH   1   3
HETATM    3  O2  UNL     1      25.199   2.930  50.565  1.00  0.00    -0.253 OA
BRANCH   3   4
HETATM    4  C7  UNL     1      24.207   2.536  51.408  1.00  0.00     0.080 C 
BRANCH   4   5
HETATM    5  C6  UNL     1      24.340   2.378  52.882  1.00  0.00     0.106 C 
BRANCH   5   6
HETATM    6  C5  UNL     1      25.533   1.538  53.131  1.00  0.00    -0.052 A 
HETATM    7  C4  UNL     1      25.288   0.194  52.818  1.00  0.00     0.010 A 
HETATM    8  C3  UNL     1      26.242  -0.792  52.966  1.00  0.00     0.037 A 
HETATM    9  C2  UNL     1      27.490  -0.444  53.442  1.00  0.00     0.068 A 
HETATM   10  C15 UNL     1      27.743   0.877  53.753  1.00  0.00     0.037 A 
HETATM   11  C14 UNL     1      26.786   1.860  53.605  1.00  0.00     0.010 A 
BRANCH   9  12
HETATM   12  O1  UNL     1      28.507  -1.374  53.622  1.00  0.00    -0.356 OA
HETATM   13  C1  UNL     1      29.867  -1.001  53.703  1.00  0.00     0.210 C 
ENDBRANCH   9  12
ENDBRANCH   5   6
ENDBRANCH   4   5
BRANCH   4  14
HETATM   14  P1  UNL     1      22.684   2.181  50.809  1.00  0.00    -0.039 P 
HETATM   15  H8  UNL     1      21.568   2.106  51.728  1.00  0.00     0.069 HD
ENDBRANCH   4  14
ENDBRANCH   3   4
ENDBRANCH   1   3
BRANCH   1  16
HETATM   16  S1  UNL     1      25.563   5.252  49.657  1.00  0.00     0.264 S 
HETATM   17  O3  UNL     1      24.448   4.766  48.782  1.00  0.00    -0.204 OA
HETATM   18  O4  UNL     1      24.964   6.311  50.565  1.00  0.00    -0.204 OA
BRANCH  16  19
HETATM   19  C8  UNL     1      26.909   5.889  48.744  1.00  0.00     0.087 A 
HETATM   20  C9  UNL     1      28.194   5.415  48.595  1.00  0.00     0.026 A 
HETATM   21  C10 UNL     1      29.096   6.097  47.809  1.00  0.00     0.002 A 
HETATM   22  C11 UNL     1      28.755   7.260  47.151  1.00  0.00     0.001 A 
HETATM   23  C12 UNL     1      27.474   7.746  47.290  1.00  0.00     0.013 A 
HETATM   24  C13 UNL     1      26.542   7.069  48.084  1.00  0.00    -0.014 A 
BRANCH  24  25
HETATM   25  P2  UNL     1      24.902   7.880  48.135  1.00  0.00    -0.105 P 
HETATM   26  H14 UNL     1      25.023   9.184  47.472  1.00  0.00     0.059 HD
HETATM   27  H15 UNL     1      24.004   7.094  47.300  1.00  0.00     0.059 HD
ENDBRANCH  24  25
ENDBRANCH  16  19
ENDBRANCH   1  16
TORSDOF 9
ENDMDL
MODEL 5
REMARK VINA RESULT:      -6.7      4.123      6.788
REMARK  9 active torsions:
REMARK  status: ('A' for Active; 'I' for Inactive)
REMARK    1  A    between atoms: O1_2  and  C2_3 
REMARK    2  A    between atoms: C5_6  and  C6_7 
REMARK    3  A    between atoms: C6_7  and  C7_8 
REMARK    4  A    between atoms: C7_8  and  P1_9 
REMARK    5  A    between atoms: C7_8  and  O2_10 
REMARK    6  A    between atoms: O2_10  and  N1_11 
REMARK    7  A    between atoms: N1_11  and  S1_12 
REMARK    8  A    between atoms: S1_12  and  C8_15 
REMARK    9  A    between atoms: C13_20  and  P2_21 
ROOT
HETATM    1  N1  UNL     1      22.728   1.720  50.115  1.00  0.00    -0.084 NA
HETATM    2  H9  UNL     1      23.366   0.934  50.258  1.00  0.00     0.173 HD
ENDROOT
BRANCH   1   3
HETATM    3  O2  UNL     1      23.211   2.900  50.617  1.00  0.00    -0.253 OA
BRANCH   3   4
HETATM    4  C7  UNL     1      24.417   3.117  51.208  1.00  0.00     0.080 C 
BRANCH   4   5
HETATM    5  C6  UNL     1      24.719   2.908  52.650  1.00  0.00     0.106 C 
BRANCH   5   6
HETATM    6  C5  UNL     1      25.611   1.731  52.748  1.00  0.00    -0.052 A 
HETATM    7  C4  UNL     1      26.417   1.792  53.893  1.00  0.00     0.010 A 
HETATM    8  C3  UNL     1      27.337   0.814  54.211  1.00  0.00     0.037 A 
HETATM    9  C2  UNL     1      27.473  -0.271  53.369  1.00  0.00     0.068 A 
HETATM   10  C15 UNL     1      26.684  -0.343  52.238  1.00  0.00     0.037 A 
HETATM   11  C14 UNL     1      25.765   0.637  51.923  1.00  0.00     0.010 A 
BRANCH   9  12
HETATM   12  O1  UNL     1      28.374  -1.299  53.614  1.00  0.00    -0.356 OA
HETATM   13  C1  UNL     1      29.767  -1.078  53.702  1.00  0.00     0.210 C 
ENDBRANCH   9  12
ENDBRANCH   5   6
ENDBRANCH   4   5
BRANCH   4  14
HETATM   14  P1  UNL     1      25.713   3.665  50.300  1.00  0.00    -0.039 P 
HETATM   15  H8  UNL     1      27.058   3.397  50.764  1.00  0.00     0.069 HD
ENDBRANCH   4  14
ENDBRANCH   3   4
ENDBRANCH   1   3
BRANCH   1  16
HETATM   16  S1  UNL     1      21.179   1.432  50.869  1.00  0.00     0.264 S 
HETATM   17  O3  UNL     1      20.542   2.739  51.235  1.00  0.00    -0.204 OA
HETATM   18  O4  UNL     1      20.318   0.829  49.774  1.00  0.00    -0.204 OA
BRANCH  16  19
HETATM   19  C8  UNL     1      21.324   0.348  52.231  1.00  0.00     0.087 A 
HETATM   20  C9  UNL     1      22.435  -0.057  52.938  1.00  0.00     0.026 A 
HETATM   21  C10 UNL     1      22.301  -0.931  53.994  1.00  0.00     0.002 A 
HETATM   22  C11 UNL     1      21.073  -1.427  54.378  1.00  0.00     0.001 A 
HETATM   23  C12 UNL     1      19.954  -1.032  53.680  1.00  0.00     0.013 A 
HETATM   24  C13 UNL     1      20.067  -0.144  52.605  1.00  0.00    -0.014 A 
BRANCH  24  25
HETATM   25  P2  UNL     1      18.463   0.253  51.816  1.00  0.00    -0.105 P 
HETATM   26  H14 UNL     1      17.535  -0.847  52.103  1.00  0.00     0.059 HD
HETATM   27  H15 UNL     1      17.920   1.418  52.501  1.00  0.00     0.059 HD
ENDBRANCH  24  25
ENDBRANCH  16  19
ENDBRANCH   1  16
TORSDOF 9
ENDMDL
MODEL 6
REMARK VINA RESULT:      -6.6      4.843      7.605
REMARK  9 active torsions:
REMARK  status: ('A' for Active; 'I' for Inactive)
REMARK    1  A    between atoms: O1_2  and  C2_3 
REMARK    2  A    between atoms: C5_6  and  C6_7 
REMARK    3  A    between atoms: C6_7  and  C7_8 
REMARK    4  A    between atoms: C7_8  and  P1_9 
REMARK    5  A    between atoms: C7_8  and  O2_10 
REMARK    6  A    between atoms: O2_10  and  N1_11 
REMARK    7  A    between atoms: N1_11  and  S1_12 
REMARK    8  A    between atoms: S1_12  and  C8_15 
REMARK    9  A    between atoms: C13_20  and  P2_21 
ROOT
HETATM    1  N1  UNL     1      22.143   0.889  51.286  1.00  0.00    -0.084 NA
HETATM    2  H9  UNL     1      22.462   0.461  52.158  1.00  0.00     0.173 HD
ENDROOT
BRANCH   1   3
HETATM    3  O2  UNL     1      23.036   1.796  50.778  1.00  0.00    -0.253 OA
BRANCH   3   4
HETATM    4  C7  UNL     1      24.044   2.426  51.438  1.00  0.00     0.080 C 
BRANCH   4   5
HETATM    5  C6  UNL     1      24.316   2.320  52.898  1.00  0.00     0.106 C 
BRANCH   5   6
HETATM    6  C5  UNL     1      25.340   1.267  53.081  1.00  0.00    -0.052 A 
HETATM    7  C4  UNL     1      26.459   1.754  53.769  1.00  0.00     0.010 A 
HETATM    8  C3  UNL     1      27.555   0.968  54.064  1.00  0.00     0.037 A 
HETATM    9  C2  UNL     1      27.552  -0.354  53.666  1.00  0.00     0.068 A 
HETATM   10  C15 UNL     1      26.454  -0.845  52.987  1.00  0.00     0.037 A 
HETATM   11  C14 UNL     1      25.361  -0.056  52.694  1.00  0.00     0.010 A 
BRANCH   9  12
HETATM   12  O1  UNL     1      28.613  -1.213  53.921  1.00  0.00    -0.356 OA
HETATM   13  C1  UNL     1      29.953  -0.861  53.649  1.00  0.00     0.210 C 
ENDBRANCH   9  12
ENDBRANCH   5   6
ENDBRANCH   4   5
BRANCH   4  14
HETATM   14  P1  UNL     1      25.106   3.418  50.606  1.00  0.00    -0.039 P 
HETATM   15  H8  UNL     1      26.426   2.919  50.284  1.00  0.00     0.069 HD
ENDBRANCH   4  14
ENDBRANCH   3   4
ENDBRANCH   1   3
BRANCH   1  16
HETATM   16  S1  UNL     1      20.623   1.723  51.499  1.00  0.00     0.264 S 
HETATM   17  O3  UNL     1      20.758   2.758  52.574  1.00  0.00    -0.204 OA
HETATM   18  O4  UNL     1      20.407   2.479  50.202  1.00  0.00    -0.204 OA
BRANCH  16  19
HETATM   19  C8  UNL     1      19.319   0.601  51.803  1.00  0.00     0.087 A 
HETATM   20  C9  UNL     1      18.157   0.367  51.100  1.00  0.00     0.026 A 
HETATM   21  C10 UNL     1      17.264  -0.585  51.537  1.00  0.00     0.002 A 
HETATM   22  C11 UNL     1      17.492  -1.329  52.676  1.00  0.00     0.001 A 
HETATM   23  C12 UNL     1      18.647  -1.106  53.390  1.00  0.00     0.013 A 
HETATM   24  C13 UNL     1      19.569  -0.144  52.962  1.00  0.00    -0.014 A 
BRANCH  24  25
HETATM   25  P2  UNL     1      21.036  -0.006  54.050  1.00  0.00    -0.105 P 
HETATM   26  H14 UNL     1      21.703   1.265  53.748  1.00  0.00     0.059 HD
HETATM   27  H15 UNL     1      20.550   0.118  55.418  1.00  0.00     0.059 HD
ENDBRANCH  24  25
ENDBRANCH  16  19
ENDBRANCH   1  16
TORSDOF 9
ENDMDL
MODEL 7
REMARK VINA RESULT:      -6.6      4.162      7.142
REMARK  9 active torsions:
REMARK  status: ('A' for Active; 'I' for Inactive)
REMARK    1  A    between atoms: O1_2  and  C2_3 
REMARK    2  A    between atoms: C5_6  and  C6_7 
REMARK    3  A    between atoms: C6_7  and  C7_8 
REMARK    4  A    between atoms: C7_8  and  P1_9 
REMARK    5  A    between atoms: C7_8  and  O2_10 
REMARK    6  A    between atoms: O2_10  and  N1_11 
REMARK    7  A    between atoms: N1_11  and  S1_12 
REMARK    8  A    between atoms: S1_12  and  C8_15 
REMARK    9  A    between atoms: C13_20  and  P2_21 
ROOT
HETATM    1  N1  UNL     1      20.579   0.850  51.502  1.00  0.00    -0.084 NA
HETATM    2  H9  UNL     1      19.821   0.496  52.090  1.00  0.00     0.173 HD
ENDROOT
BRANCH   1   3
HETATM    3  O2  UNL     1      21.822   0.577  52.009  1.00  0.00    -0.253 OA
BRANCH   3   4
HETATM    4  C7  UNL     1      22.120  -0.061  53.172  1.00  0.00     0.080 C 
BRANCH   4   5
HETATM    5  C6  UNL     1      23.364  -0.834  53.437  1.00  0.00     0.106 C 
BRANCH   5   6
HETATM    6  C5  UNL     1      24.477   0.138  53.534  1.00  0.00    -0.052 A 
HETATM    7  C4  UNL     1      25.556  -0.388  54.256  1.00  0.00     0.010 A 
HETATM    8  C3  UNL     1      26.715   0.324  54.490  1.00  0.00     0.037 A 
HETATM    9  C2  UNL     1      26.819   1.607  53.994  1.00  0.00     0.068 A 
HETATM   10  C15 UNL     1      25.762   2.137  53.281  1.00  0.00     0.037 A 
HETATM   11  C14 UNL     1      24.604   1.422  53.050  1.00  0.00     0.010 A 
BRANCH   9  12
HETATM   12  O1  UNL     1      27.949   2.392  54.184  1.00  0.00    -0.356 OA
HETATM   13  C1  UNL     1      29.252   1.847  54.217  1.00  0.00     0.210 C 
ENDBRANCH   9  12
ENDBRANCH   5   6
ENDBRANCH   4   5
BRANCH   4  14
HETATM   14  P1  UNL     1      21.046  -0.018  54.457  1.00  0.00    -0.039 P 
HETATM   15  H8  UNL     1      20.835  -1.219  55.236  1.00  0.00     0.069 HD
ENDBRANCH   4  14
ENDBRANCH   3   4
ENDBRANCH   1   3
BRANCH   1  16
HETATM   16  S1  UNL     1      20.473   2.582  51.295  1.00  0.00     0.264 S 
HETATM   17  O3  UNL     1      19.399   2.910  50.302  1.00  0.00    -0.204 OA
HETATM   18  O4  UNL     1      19.991   3.106  52.635  1.00  0.00    -0.204 OA
BRANCH  16  19
HETATM   19  C8  UNL     1      22.020   3.269  50.866  1.00  0.00     0.087 A 
HETATM   20  C9  UNL     1      22.827   4.153  51.548  1.00  0.00     0.026 A 
HETATM   21  C10 UNL     1      24.025   4.557  51.003  1.00  0.00     0.002 A 
HETATM   22  C11 UNL     1      24.457   4.102  49.775  1.00  0.00     0.001 A 
HETATM   23  C12 UNL     1      23.662   3.218  49.081  1.00  0.00     0.013 A 
HETATM   24  C13 UNL     1      22.441   2.794  49.617  1.00  0.00    -0.014 A 
BRANCH  24  25
HETATM   25  P2  UNL     1      21.540   1.621  48.538  1.00  0.00    -0.105 P 
HETATM   26  H14 UNL     1      20.383   2.325  47.974  1.00  0.00     0.059 HD
HETATM   27  H15 UNL     1      22.408   1.318  47.409  1.00  0.00     0.059 HD
ENDBRANCH  24  25
ENDBRANCH  16  19
ENDBRANCH   1  16
TORSDOF 9
ENDMDL
MODEL 8
REMARK VINA RESULT:      -6.5      4.807      7.692
REMARK  9 active torsions:
REMARK  status: ('A' for Active; 'I' for Inactive)
REMARK    1  A    between atoms: O1_2  and  C2_3 
REMARK    2  A    between atoms: C5_6  and  C6_7 
REMARK    3  A    between atoms: C6_7  and  C7_8 
REMARK    4  A    between atoms: C7_8  and  P1_9 
REMARK    5  A    between atoms: C7_8  and  O2_10 
REMARK    6  A    between atoms: O2_10  and  N1_11 
REMARK    7  A    between atoms: N1_11  and  S1_12 
REMARK    8  A    between atoms: S1_12  and  C8_15 
REMARK    9  A    between atoms: C13_20  and  P2_21 
ROOT
HETATM    1  N1  UNL     1      19.873   3.132  52.331  1.00  0.00    -0.084 NA
HETATM    2  H9  UNL     1      19.301   3.604  53.034  1.00  0.00     0.173 HD
ENDROOT
BRANCH   1   3
HETATM    3  O2  UNL     1      20.948   2.474  52.869  1.00  0.00    -0.253 OA
BRANCH   3   4
HETATM    4  C7  UNL     1      21.244   1.151  52.769  1.00  0.00     0.080 C 
BRANCH   4   5
HETATM    5  C6  UNL     1      22.314   0.570  51.914  1.00  0.00     0.106 C 
BRANCH   5   6
HETATM    6  C5  UNL     1      23.558   0.544  52.717  1.00  0.00    -0.052 A 
HETATM    7  C4  UNL     1      24.250   1.760  52.629  1.00  0.00     0.010 A 
HETATM    8  C3  UNL     1      25.442   1.988  53.285  1.00  0.00     0.037 A 
HETATM    9  C2  UNL     1      25.979   0.981  54.061  1.00  0.00     0.068 A 
HETATM   10  C15 UNL     1      25.306  -0.221  54.155  1.00  0.00     0.037 A 
HETATM   11  C14 UNL     1      24.114  -0.446  53.497  1.00  0.00     0.010 A 
BRANCH   9  12
HETATM   12  O1  UNL     1      27.174   1.127  54.753  1.00  0.00    -0.356 OA
HETATM   13  C1  UNL     1      28.220   0.181  54.665  1.00  0.00     0.210 C 
ENDBRANCH   9  12
ENDBRANCH   5   6
ENDBRANCH   4   5
BRANCH   4  14
HETATM   14  P1  UNL     1      20.376   0.023  53.652  1.00  0.00    -0.039 P 
HETATM   15  H8  UNL     1      20.975  -0.555  54.836  1.00  0.00     0.069 HD
ENDBRANCH   4  14
ENDBRANCH   3   4
ENDBRANCH   1   3
BRANCH   1  16
HETATM   16  S1  UNL     1      20.494   4.258  51.149  1.00  0.00     0.264 S 
HETATM   17  O3  UNL     1      19.369   5.068  50.579  1.00  0.00    -0.204 OA
HETATM   18  O4  UNL     1      21.356   5.222  51.943  1.00  0.00    -0.204 OA
BRANCH  16  19
HETATM   19  C8  UNL     1      21.427   3.441  49.919  1.00  0.00     0.087 A 
HETATM   20  C9  UNL     1      22.753   3.570  49.567  1.00  0.00     0.026 A 
HETATM   21  C10 UNL     1      23.276   2.804  48.549  1.00  0.00     0.002 A 
HETATM   22  C11 UNL     1      22.508   1.894  47.854  1.00  0.00     0.001 A 
HETATM   23  C12 UNL     1      21.182   1.754  48.193  1.00  0.00     0.013 A 
HETATM   24  C13 UNL     1      20.630   2.521  49.225  1.00  0.00    -0.014 A 
BRANCH  24  25
HETATM   25  P2  UNL     1      18.855   2.181  49.516  1.00  0.00    -0.105 P 
HETATM   26  H14 UNL     1      18.757   0.984  50.359  1.00  0.00     0.059 HD
HETATM   27  H15 UNL     1      18.331   3.276  50.322  1.00  0.00     0.059 HD
ENDBRANCH  24  25
ENDBRANCH  16  19
ENDBRANCH   1  16
TORSDOF 9
ENDMDL
MODEL 9
REMARK VINA RESULT:      -6.4      5.019      7.381
REMARK  9 active torsions:
REMARK  status: ('A' for Active; 'I' for Inactive)
REMARK    1  A    between atoms: O1_2  and  C2_3 
REMARK    2  A    between atoms: C5_6  and  C6_7 
REMARK    3  A    between atoms: C6_7  and  C7_8 
REMARK    4  A    between atoms: C7_8  and  P1_9 
REMARK    5  A    between atoms: C7_8  and  O2_10 
REMARK    6  A    between atoms: O2_10  and  N1_11 
REMARK    7  A    between atoms: N1_11  and  S1_12 
REMARK    8  A    between atoms: S1_12  and  C8_15 
REMARK    9  A    between atoms: C13_20  and  P2_21 
ROOT
HETATM    1  N1  UNL     1      30.557   7.134  47.535  1.00  0.00    -0.084 NA
HETATM    2  H9  UNL     1      30.678   7.870  46.835  1.00  0.00     0.173 HD
ENDROOT
BRANCH   1   3
HETATM    3  O2  UNL     1      29.800   7.534  48.605  1.00  0.00    -0.253 OA
BRANCH   3   4
HETATM    4  C7  UNL     1      28.518   7.987  48.590  1.00  0.00     0.080 C 
BRANCH   4   5
HETATM    5  C6  UNL     1      27.406   7.400  47.795  1.00  0.00     0.106 C 
BRANCH   5   6
HETATM    6  C5  UNL     1      26.978   6.160  48.482  1.00  0.00    -0.052 A 
HETATM    7  C4  UNL     1      25.729   6.320  49.097  1.00  0.00     0.010 A 
HETATM    8  C3  UNL     1      25.111   5.309  49.805  1.00  0.00     0.037 A 
HETATM    9  C2  UNL     1      25.747   4.089  49.915  1.00  0.00     0.068 A 
HETATM   10  C15 UNL     1      26.978   3.920  49.313  1.00  0.00     0.037 A 
HETATM   11  C14 UNL     1      27.593   4.933  48.606  1.00  0.00     0.010 A 
BRANCH   9  12
HETATM   12  O1  UNL     1      25.197   3.019  50.610  1.00  0.00    -0.356 OA
HETATM   13  C1  UNL     1      23.821   2.705  50.549  1.00  0.00     0.210 C 
ENDBRANCH   9  12
ENDBRANCH   5   6
ENDBRANCH   4   5
BRANCH   4  14
HETATM   14  P1  UNL     1      28.083   9.312  49.518  1.00  0.00    -0.039 P 
HETATM   15  H8  UNL     1      26.731   9.821  49.424  1.00  0.00     0.069 HD
ENDBRANCH   4  14
ENDBRANCH   3   4
ENDBRANCH   1   3
BRANCH   1  16
HETATM   16  S1  UNL     1      32.093   6.587  48.161  1.00  0.00     0.264 S 
HETATM   17  O3  UNL     1      33.168   7.565  47.796  1.00  0.00    -0.204 OA
HETATM   18  O4  UNL     1      31.946   6.655  49.670  1.00  0.00    -0.204 OA
BRANCH  16  19
HETATM   19  C8  UNL     1      32.453   4.961  47.633  1.00  0.00     0.087 A 
HETATM   20  C9  UNL     1      31.662   4.031  46.995  1.00  0.00     0.026 A 
HETATM   21  C10 UNL     1      32.175   2.794  46.670  1.00  0.00     0.002 A 
HETATM   22  C11 UNL     1      33.475   2.444  46.966  1.00  0.00     0.001 A 
HETATM   23  C12 UNL     1      34.278   3.363  47.604  1.00  0.00     0.013 A 
HETATM   24  C13 UNL     1      33.777   4.625  47.942  1.00  0.00    -0.014 A 
BRANCH  24  25
HETATM   25  P2  UNL     1      35.004   5.694  48.782  1.00  0.00    -0.105 P 
HETATM   26  H14 UNL     1      36.038   6.050  47.803  1.00  0.00     0.059 HD
HETATM   27  H15 UNL     1      34.333   6.941  49.120  1.00  0.00     0.059 HD
ENDBRANCH  24  25
ENDBRANCH  16  19
ENDBRANCH   1  16
TORSDOF 9
ENDMDL
