MODEL 1
REMARK VINA RESULT:      -8.3      0.000      0.000
REMARK  6 active torsions:
REMARK  status: ('A' for Active; 'I' for Inactive)
REMARK    1  A    between atoms: C5_6  and  C6_7 
REMARK    2  A    between atoms: C6_7  and  N1_8 
REMARK    3  A    between atoms: N1_8  and  C7_9 
REMARK       I    between atoms: N1_8  and  C14_17 
REMARK    4  A    between atoms: C7_9  and  C8_10 
REMARK       I    between atoms: C14_17  and  N2_19 
REMARK    5  A    between atoms: N2_19  and  C15_20 
REMARK    6  A    between atoms: C21_26  and  O2_27 
ROOT
HETATM    1  N1  UNL     1      25.056   3.419  51.277  1.00  0.00    -0.325 N 
HETATM    2  C14 UNL     1      26.145   2.506  51.393  1.00  0.00     0.323 C 
HETATM    3  O1  UNL     1      26.837   2.201  50.412  1.00  0.00    -0.247 OA
HETATM    4  N2  UNL     1      26.500   1.896  52.621  1.00  0.00    -0.309 N 
HETATM    5  H17 UNL     1      25.873   2.190  53.420  1.00  0.00     0.170 HD
ENDROOT
BRANCH   1   6
HETATM    6  C6  UNL     1      24.169   3.873  52.304  1.00  0.00     0.169 C 
BRANCH   6   7
HETATM    7  C5  UNL     1      22.833   3.247  52.293  1.00  0.00    -0.002 A 
HETATM    8  C4  UNL     1      21.695   4.010  51.805  1.00  0.00     0.009 A 
HETATM    9  C3  UNL     1      20.519   3.434  51.802  1.00  0.00    -0.017 A 
HETATM   10  C2  UNL     1      19.866   2.155  52.153  1.00  0.00     0.085 A 
HETATM   11  S1  UNL     1      21.096   1.063  52.779  1.00  0.00    -0.213 SA
HETATM   12  C1  UNL     1      20.690   0.257  54.327  1.00  0.00     0.073 C 
HETATM   13  C21 UNL     1      22.572   2.029  52.694  1.00  0.00     0.090 A 
HETATM   14  H4  UNL     1      21.283  -0.277  51.688  1.00  0.00     0.088 HD
BRANCH  13  15
HETATM   15  O2  UNL     1      23.644   1.272  53.169  1.00  0.00    -0.355 OA
HETATM   16  H23 UNL     1      24.061   0.581  52.578  1.00  0.00     0.218 HD
ENDBRANCH  13  15
ENDBRANCH   6   7
ENDBRANCH   1   6
BRANCH   1  17
HETATM   17  C7  UNL     1      24.789   3.986  49.962  1.00  0.00     0.166 C 
BRANCH  17  18
HETATM   18  C8  UNL     1      25.567   5.218  49.687  1.00  0.00    -0.040 A 
HETATM   19  C9  UNL     1      26.657   5.266  48.843  1.00  0.00     0.012 A 
HETATM   20  C10 UNL     1      27.396   6.391  48.565  1.00  0.00     0.043 A 
HETATM   21  C11 UNL     1      27.043   7.576  49.163  1.00  0.00     0.116 A 
HETATM   22  F1  UNL     1      27.724   8.724  48.938  1.00  0.00    -0.206 F 
HETATM   23  C12 UNL     1      25.969   7.612  50.018  1.00  0.00     0.043 A 
HETATM   24  C13 UNL     1      25.270   6.446  50.252  1.00  0.00     0.012 A 
ENDBRANCH  17  18
ENDBRANCH   1  17
BRANCH   4  25
HETATM   25  C15 UNL     1      27.527   0.978  52.949  1.00  0.00     0.036 A 
HETATM   26  C16 UNL     1      27.322  -0.378  52.808  1.00  0.00     0.029 A 
HETATM   27  C17 UNL     1      28.259  -1.312  53.102  1.00  0.00     0.002 A 
HETATM   28  C18 UNL     1      29.501  -0.947  53.570  1.00  0.00     0.000 A 
HETATM   29  C19 UNL     1      29.750   0.380  53.724  1.00  0.00     0.002 A 
HETATM   30  C20 UNL     1      28.784   1.285  53.419  1.00  0.00     0.029 A 
ENDBRANCH   4  25
TORSDOF 6
ENDMDL
MODEL 2
REMARK VINA RESULT:      -8.2      3.308      6.174
REMARK  6 active torsions:
REMARK  status: ('A' for Active; 'I' for Inactive)
REMARK    1  A    between atoms: C5_6  and  C6_7 
REMARK    2  A    between atoms: C6_7  and  N1_8 
REMARK    3  A    between atoms: N1_8  and  C7_9 
REMARK       I    between atoms: N1_8  and  C14_17 
REMARK    4  A    between atoms: C7_9  and  C8_10 
REMARK       I    between atoms: C14_17  and  N2_19 
REMARK    5  A    between atoms: N2_19  and  C15_20 
REMARK    6  A    between atoms: C21_26  and  O2_27 
ROOT
HETATM    1  N1  UNL     1      24.353   3.201  50.947  1.00  0.00    -0.325 N 
HETATM    2  C14 UNL     1      25.148   2.641  51.990  1.00  0.00     0.323 C 
HETATM    3  O1  UNL     1      24.738   2.592  53.157  1.00  0.00    -0.247 OA
HETATM    4  N2  UNL     1      26.442   2.111  51.760  1.00  0.00    -0.309 N 
HETATM    5  H17 UNL     1      26.739   2.182  50.748  1.00  0.00     0.170 HD
ENDROOT
BRANCH   1   6
HETATM    6  C6  UNL     1      24.677   3.329  49.559  1.00  0.00     0.169 C 
BRANCH   6   7
HETATM    7  C5  UNL     1      25.087   4.682  49.138  1.00  0.00    -0.002 A 
HETATM    8  C4  UNL     1      24.097   5.579  48.565  1.00  0.00     0.009 A 
HETATM    9  C3  UNL     1      24.482   6.776  48.200  1.00  0.00    -0.017 A 
HETATM   10  C2  UNL     1      25.687   7.630  48.158  1.00  0.00     0.085 A 
HETATM   11  S1  UNL     1      27.035   6.714  48.822  1.00  0.00    -0.213 SA
HETATM   12  C1  UNL     1      28.527   6.713  47.830  1.00  0.00     0.073 C 
HETATM   13  C21 UNL     1      26.300   5.163  49.239  1.00  0.00     0.090 A 
HETATM   14  H4  UNL     1      27.561   7.458  50.302  1.00  0.00     0.088 HD
BRANCH  13  15
HETATM   15  O2  UNL     1      27.274   4.326  49.785  1.00  0.00    -0.355 OA
HETATM   16  H23 UNL     1      27.359   3.385  49.453  1.00  0.00     0.218 HD
ENDBRANCH  13  15
ENDBRANCH   6   7
ENDBRANCH   1   6
BRANCH   1  17
HETATM   17  C7  UNL     1      23.036   3.711  51.304  1.00  0.00     0.166 C 
BRANCH  17  18
HETATM   18  C8  UNL     1      22.000   2.654  51.382  1.00  0.00    -0.040 A 
HETATM   19  C9  UNL     1      20.961   2.661  52.290  1.00  0.00     0.012 A 
HETATM   20  C10 UNL     1      19.985   1.699  52.387  1.00  0.00     0.043 A 
HETATM   21  C11 UNL     1      20.023   0.633  51.522  1.00  0.00     0.116 A 
HETATM   22  F1  UNL     1      19.096  -0.353  51.557  1.00  0.00    -0.206 F 
HETATM   23  C12 UNL     1      21.026   0.551  50.588  1.00  0.00     0.043 A 
HETATM   24  C13 UNL     1      21.975   1.552  50.546  1.00  0.00     0.012 A 
ENDBRANCH  17  18
ENDBRANCH   1  17
BRANCH   4  25
HETATM   25  C15 UNL     1      27.381   1.519  52.639  1.00  0.00     0.036 A 
HETATM   26  C16 UNL     1      27.451   0.148  52.764  1.00  0.00     0.029 A 
HETATM   27  C17 UNL     1      28.325  -0.485  53.585  1.00  0.00     0.002 A 
HETATM   28  C18 UNL     1      29.214   0.226  54.358  1.00  0.00     0.000 A 
HETATM   29  C19 UNL     1      29.183   1.581  54.268  1.00  0.00     0.002 A 
HETATM   30  C20 UNL     1      28.292   2.179  53.434  1.00  0.00     0.029 A 
ENDBRANCH   4  25
TORSDOF 6
ENDMDL
MODEL 3
REMARK VINA RESULT:      -8.2      3.522      6.392
REMARK  6 active torsions:
REMARK  status: ('A' for Active; 'I' for Inactive)
REMARK    1  A    between atoms: C5_6  and  C6_7 
REMARK    2  A    between atoms: C6_7  and  N1_8 
REMARK    3  A    between atoms: N1_8  and  C7_9 
REMARK       I    between atoms: N1_8  and  C14_17 
REMARK    4  A    between atoms: C7_9  and  C8_10 
REMARK       I    between atoms: C14_17  and  N2_19 
REMARK    5  A    between atoms: N2_19  and  C15_20 
REMARK    6  A    between atoms: C21_26  and  O2_27 
ROOT
HETATM    1  N1  UNL     1      24.042   1.406  52.288  1.00  0.00    -0.325 N 
HETATM    2  C14 UNL     1      25.107   0.708  52.930  1.00  0.00     0.323 C 
HETATM    3  O1  UNL     1      25.113   0.526  54.154  1.00  0.00    -0.247 OA
HETATM    4  N2  UNL     1      26.214   0.187  52.216  1.00  0.00    -0.309 N 
HETATM    5  H17 UNL     1      26.157   0.375  51.177  1.00  0.00     0.170 HD
ENDROOT
BRANCH   1   6
HETATM    6  C6  UNL     1      23.885   1.696  50.896  1.00  0.00     0.169 C 
BRANCH   6   7
HETATM    7  C5  UNL     1      24.527   2.945  50.445  1.00  0.00    -0.002 A 
HETATM    8  C4  UNL     1      25.926   2.923  50.048  1.00  0.00     0.009 A 
HETATM    9  C3  UNL     1      26.475   4.042  49.649  1.00  0.00    -0.017 A 
HETATM   10  C2  UNL     1      26.149   5.468  49.435  1.00  0.00     0.085 A 
HETATM   11  S1  UNL     1      24.462   5.717  49.865  1.00  0.00    -0.213 SA
HETATM   12  C1  UNL     1      24.144   7.100  50.961  1.00  0.00     0.073 C 
HETATM   13  C21 UNL     1      23.932   4.108  50.365  1.00  0.00     0.090 A 
HETATM   14  H4  UNL     1      23.562   6.145  48.441  1.00  0.00     0.088 HD
BRANCH  13  15
HETATM   15  O2  UNL     1      22.589   4.162  50.740  1.00  0.00    -0.355 OA
HETATM   16  H23 UNL     1      21.989   3.387  50.541  1.00  0.00     0.218 HD
ENDBRANCH  13  15
ENDBRANCH   6   7
ENDBRANCH   1   6
BRANCH   1  17
HETATM   17  C7  UNL     1      22.955   1.893  53.127  1.00  0.00     0.166 C 
BRANCH  17  18
HETATM   18  C8  UNL     1      21.812   0.953  53.208  1.00  0.00    -0.040 A 
HETATM   19  C9  UNL     1      21.790  -0.162  54.021  1.00  0.00     0.012 A 
HETATM   20  C10 UNL     1      20.747  -1.051  54.121  1.00  0.00     0.043 A 
HETATM   21  C11 UNL     1      19.623  -0.836  53.362  1.00  0.00     0.116 A 
HETATM   22  F1  UNL     1      18.556  -1.668  53.408  1.00  0.00    -0.206 F 
HETATM   23  C12 UNL     1      19.565   0.252  52.527  1.00  0.00     0.043 A 
HETATM   24  C13 UNL     1      20.649   1.105  52.475  1.00  0.00     0.012 A 
ENDBRANCH  17  18
ENDBRANCH   1  17
BRANCH   4  25
HETATM   25  C15 UNL     1      27.358  -0.525  52.651  1.00  0.00     0.036 A 
HETATM   26  C16 UNL     1      27.392  -1.901  52.581  1.00  0.00     0.029 A 
HETATM   27  C17 UNL     1      28.452  -2.646  52.979  1.00  0.00     0.002 A 
HETATM   28  C18 UNL     1      29.585  -2.052  53.488  1.00  0.00     0.000 A 
HETATM   29  C19 UNL     1      29.598  -0.696  53.576  1.00  0.00     0.002 A 
HETATM   30  C20 UNL     1      28.515   0.015  53.167  1.00  0.00     0.029 A 
ENDBRANCH   4  25
TORSDOF 6
ENDMDL
MODEL 4
REMARK VINA RESULT:      -8.2      1.136      1.896
REMARK  6 active torsions:
REMARK  status: ('A' for Active; 'I' for Inactive)
REMARK    1  A    between atoms: C5_6  and  C6_7 
REMARK    2  A    between atoms: C6_7  and  N1_8 
REMARK    3  A    between atoms: N1_8  and  C7_9 
REMARK       I    between atoms: N1_8  and  C14_17 
REMARK    4  A    between atoms: C7_9  and  C8_10 
REMARK       I    between atoms: C14_17  and  N2_19 
REMARK    5  A    between atoms: N2_19  and  C15_20 
REMARK    6  A    between atoms: C21_26  and  O2_27 
ROOT
HETATM    1  N1  UNL     1      25.013   3.506  51.217  1.00  0.00    -0.325 N 
HETATM    2  C14 UNL     1      26.095   2.587  51.348  1.00  0.00     0.323 C 
HETATM    3  O1  UNL     1      26.805   2.286  50.380  1.00  0.00    -0.247 OA
HETATM    4  N2  UNL     1      26.422   1.966  52.579  1.00  0.00    -0.309 N 
HETATM    5  H17 UNL     1      25.781   2.258  53.367  1.00  0.00     0.170 HD
ENDROOT
BRANCH   1   6
HETATM    6  C6  UNL     1      24.107   3.957  52.229  1.00  0.00     0.169 C 
BRANCH   6   7
HETATM    7  C5  UNL     1      22.803   3.269  52.248  1.00  0.00    -0.002 A 
HETATM    8  C4  UNL     1      22.748   1.859  52.601  1.00  0.00     0.009 A 
HETATM    9  C3  UNL     1      21.580   1.269  52.614  1.00  0.00    -0.017 A 
HETATM   10  C2  UNL     1      20.149   1.550  52.372  1.00  0.00     0.085 A 
HETATM   11  S1  UNL     1      19.989   3.243  51.921  1.00  0.00    -0.213 SA
HETATM   12  C1  UNL     1      19.013   3.557  50.450  1.00  0.00     0.073 C 
HETATM   13  C21 UNL     1      21.654   3.831  51.967  1.00  0.00     0.090 A 
HETATM   14  H4  UNL     1      19.103   4.086  53.155  1.00  0.00     0.088 HD
BRANCH  13  15
HETATM   15  O2  UNL     1      21.674   5.182  51.622  1.00  0.00    -0.355 OA
HETATM   16  H23 UNL     1      22.203   5.826  52.177  1.00  0.00     0.218 HD
ENDBRANCH  13  15
ENDBRANCH   6   7
ENDBRANCH   1   6
BRANCH   1  17
HETATM   17  C7  UNL     1      24.776   4.084  49.901  1.00  0.00     0.166 C 
BRANCH  17  18
HETATM   18  C8  UNL     1      25.580   5.301  49.642  1.00  0.00    -0.040 A 
HETATM   19  C9  UNL     1      25.329   6.527  50.224  1.00  0.00     0.012 A 
HETATM   20  C10 UNL     1      26.057   7.673  50.007  1.00  0.00     0.043 A 
HETATM   21  C11 UNL     1      27.125   7.621  49.146  1.00  0.00     0.116 A 
HETATM   22  F1  UNL     1      27.888   8.708  48.883  1.00  0.00    -0.206 F 
HETATM   23  C12 UNL     1      27.442   6.438  48.525  1.00  0.00     0.043 A 
HETATM   24  C13 UNL     1      26.669   5.325  48.788  1.00  0.00     0.012 A 
ENDBRANCH  17  18
ENDBRANCH   1  17
BRANCH   4  25
HETATM   25  C15 UNL     1      27.437   1.041  52.920  1.00  0.00     0.036 A 
HETATM   26  C16 UNL     1      27.231  -0.312  52.761  1.00  0.00     0.029 A 
HETATM   27  C17 UNL     1      28.158  -1.253  53.067  1.00  0.00     0.002 A 
HETATM   28  C18 UNL     1      29.390  -0.898  53.567  1.00  0.00     0.000 A 
HETATM   29  C19 UNL     1      29.640   0.426  53.741  1.00  0.00     0.002 A 
HETATM   30  C20 UNL     1      28.685   1.338  53.422  1.00  0.00     0.029 A 
ENDBRANCH   4  25
TORSDOF 6
ENDMDL
MODEL 5
REMARK VINA RESULT:      -8.1      3.239      5.324
REMARK  6 active torsions:
REMARK  status: ('A' for Active; 'I' for Inactive)
REMARK    1  A    between atoms: C5_6  and  C6_7 
REMARK    2  A    between atoms: C6_7  and  N1_8 
REMARK    3  A    between atoms: N1_8  and  C7_9 
REMARK       I    between atoms: N1_8  and  C14_17 
REMARK    4  A    between atoms: C7_9  and  C8_10 
REMARK       I    between atoms: C14_17  and  N2_19 
REMARK    5  A    between atoms: N2_19  and  C15_20 
REMARK    6  A    between atoms: C21_26  and  O2_27 
ROOT
HETATM    1  N1  UNL     1      23.363   3.622  51.986  1.00  0.00    -0.325 N 
HETATM    2  C14 UNL     1      24.233   2.585  52.435  1.00  0.00     0.323 C 
HETATM    3  O1  UNL     1      23.914   1.393  52.348  1.00  0.00    -0.247 OA
HETATM    4  N2  UNL     1      25.503   2.852  53.004  1.00  0.00    -0.309 N 
HETATM    5  H17 UNL     1      25.720   3.885  53.055  1.00  0.00     0.170 HD
ENDROOT
BRANCH   1   6
HETATM    6  C6  UNL     1      23.582   5.035  52.014  1.00  0.00     0.169 C 
BRANCH   6   7
HETATM    7  C5  UNL     1      24.505   5.542  50.981  1.00  0.00    -0.002 A 
HETATM    8  C4  UNL     1      25.214   4.595  50.135  1.00  0.00     0.009 A 
HETATM    9  C3  UNL     1      26.027   5.066  49.224  1.00  0.00    -0.017 A 
HETATM   10  C2  UNL     1      26.536   6.348  48.691  1.00  0.00     0.085 A 
HETATM   11  S1  UNL     1      25.787   7.656  49.598  1.00  0.00    -0.213 SA
HETATM   12  C1  UNL     1      26.913   8.903  50.221  1.00  0.00     0.073 C 
HETATM   13  C21 UNL     1      24.751   6.807  50.750  1.00  0.00     0.090 A 
HETATM   14  H4  UNL     1      24.753   8.570  48.541  1.00  0.00     0.088 HD
BRANCH  13  15
HETATM   15  O2  UNL     1      24.087   7.740  51.546  1.00  0.00    -0.355 OA
HETATM   16  H23 UNL     1      24.278   8.715  51.428  1.00  0.00     0.218 HD
ENDBRANCH  13  15
ENDBRANCH   6   7
ENDBRANCH   1   6
BRANCH   1  17
HETATM   17  C7  UNL     1      22.082   3.225  51.415  1.00  0.00     0.166 C 
BRANCH  17  18
HETATM   18  C8  UNL     1      22.077   3.228  49.933  1.00  0.00    -0.040 A 
HETATM   19  C9  UNL     1      21.605   4.275  49.168  1.00  0.00     0.012 A 
HETATM   20  C10 UNL     1      21.588   4.310  47.794  1.00  0.00     0.043 A 
HETATM   21  C11 UNL     1      22.073   3.228  47.102  1.00  0.00     0.116 A 
HETATM   22  F1  UNL     1      22.089   3.190  45.749  1.00  0.00    -0.206 F 
HETATM   23  C12 UNL     1      22.561   2.144  47.790  1.00  0.00     0.043 A 
HETATM   24  C13 UNL     1      22.549   2.175  49.169  1.00  0.00     0.012 A 
ENDBRANCH  17  18
ENDBRANCH   1  17
BRANCH   4  25
HETATM   25  C15 UNL     1      26.505   1.985  53.504  1.00  0.00     0.036 A 
HETATM   26  C16 UNL     1      27.817   2.135  53.110  1.00  0.00     0.029 A 
HETATM   27  C17 UNL     1      28.826   1.343  53.549  1.00  0.00     0.002 A 
HETATM   28  C18 UNL     1      28.589   0.318  54.437  1.00  0.00     0.000 A 
HETATM   29  C19 UNL     1      27.309   0.133  54.855  1.00  0.00     0.002 A 
HETATM   30  C20 UNL     1      26.326   0.948  54.392  1.00  0.00     0.029 A 
ENDBRANCH   4  25
TORSDOF 6
ENDMDL
MODEL 6
REMARK VINA RESULT:      -7.9      3.851      8.153
REMARK  6 active torsions:
REMARK  status: ('A' for Active; 'I' for Inactive)
REMARK    1  A    between atoms: C5_6  and  C6_7 
REMARK    2  A    between atoms: C6_7  and  N1_8 
REMARK    3  A    between atoms: N1_8  and  C7_9 
REMARK       I    between atoms: N1_8  and  C14_17 
REMARK    4  A    between atoms: C7_9  and  C8_10 
REMARK       I    between atoms: C14_17  and  N2_19 
REMARK    5  A    between atoms: N2_19  and  C15_20 
REMARK    6  A    between atoms: C21_26  and  O2_27 
ROOT
HETATM    1  N1  UNL     1      22.628   1.892  51.817  1.00  0.00    -0.325 N 
HETATM    2  C14 UNL     1      22.445   3.123  51.122  1.00  0.00     0.323 C 
HETATM    3  O1  UNL     1      21.874   3.165  50.025  1.00  0.00    -0.247 OA
HETATM    4  N2  UNL     1      22.901   4.362  51.636  1.00  0.00    -0.309 N 
HETATM    5  H17 UNL     1      23.383   4.265  52.572  1.00  0.00     0.170 HD
ENDROOT
BRANCH   1   6
HETATM    6  C6  UNL     1      23.259   1.676  53.083  1.00  0.00     0.169 C 
BRANCH   6   7
HETATM    7  C5  UNL     1      24.630   1.136  53.010  1.00  0.00    -0.002 A 
HETATM    8  C4  UNL     1      24.843  -0.291  53.197  1.00  0.00     0.009 A 
HETATM    9  C3  UNL     1      26.067  -0.749  53.126  1.00  0.00    -0.017 A 
HETATM   10  C2  UNL     1      27.454  -0.288  52.901  1.00  0.00     0.085 A 
HETATM   11  S1  UNL     1      27.421   1.452  52.647  1.00  0.00    -0.213 SA
HETATM   12  C1  UNL     1      28.595   2.393  53.623  1.00  0.00     0.073 C 
HETATM   13  C21 UNL     1      25.705   1.847  52.784  1.00  0.00     0.090 A 
HETATM   14  H4  UNL     1      27.911   1.805  51.017  1.00  0.00     0.088 HD
BRANCH  13  15
HETATM   15  O2  UNL     1      25.533   3.220  52.602  1.00  0.00    -0.355 OA
HETATM   16  H23 UNL     1      24.731   3.673  52.991  1.00  0.00     0.218 HD
ENDBRANCH  13  15
ENDBRANCH   6   7
ENDBRANCH   1   6
BRANCH   1  17
HETATM   17  C7  UNL     1      22.112   0.682  51.191  1.00  0.00     0.166 C 
BRANCH  17  18
HETATM   18  C8  UNL     1      20.861   0.189  51.813  1.00  0.00    -0.040 A 
HETATM   19  C9  UNL     1      19.611   0.338  51.249  1.00  0.00     0.012 A 
HETATM   20  C10 UNL     1      18.433  -0.110  51.798  1.00  0.00     0.043 A 
HETATM   21  C11 UNL     1      18.475  -0.761  53.006  1.00  0.00     0.116 A 
HETATM   22  F1  UNL     1      17.357  -1.230  53.608  1.00  0.00    -0.206 F 
HETATM   23  C12 UNL     1      19.682  -0.950  53.635  1.00  0.00     0.043 A 
HETATM   24  C13 UNL     1      20.826  -0.476  53.027  1.00  0.00     0.012 A 
ENDBRANCH  17  18
ENDBRANCH   1  17
BRANCH   4  25
HETATM   25  C15 UNL     1      22.823   5.677  51.116  1.00  0.00     0.036 A 
HETATM   26  C16 UNL     1      23.968   6.356  50.761  1.00  0.00     0.029 A 
HETATM   27  C17 UNL     1      23.968   7.615  50.257  1.00  0.00     0.002 A 
HETATM   28  C18 UNL     1      22.790   8.302  50.069  1.00  0.00     0.000 A 
HETATM   29  C19 UNL     1      21.634   7.673  50.405  1.00  0.00     0.002 A 
HETATM   30  C20 UNL     1      21.676   6.411  50.907  1.00  0.00     0.029 A 
ENDBRANCH   4  25
TORSDOF 6
ENDMDL
MODEL 7
REMARK VINA RESULT:      -7.8      2.871      6.471
REMARK  6 active torsions:
REMARK  status: ('A' for Active; 'I' for Inactive)
REMARK    1  A    between atoms: C5_6  and  C6_7 
REMARK    2  A    between atoms: C6_7  and  N1_8 
REMARK    3  A    between atoms: N1_8  and  C7_9 
REMARK       I    between atoms: N1_8  and  C14_17 
REMARK    4  A    between atoms: C7_9  and  C8_10 
REMARK       I    between atoms: C14_17  and  N2_19 
REMARK    5  A    between atoms: N2_19  and  C15_20 
REMARK    6  A    between atoms: C21_26  and  O2_27 
ROOT
HETATM    1  N1  UNL     1      24.375   0.611  53.071  1.00  0.00    -0.325 N 
HETATM    2  C14 UNL     1      24.603   1.994  52.810  1.00  0.00     0.323 C 
HETATM    3  O1  UNL     1      25.285   2.690  53.574  1.00  0.00    -0.247 OA
HETATM    4  N2  UNL     1      24.069   2.652  51.675  1.00  0.00    -0.309 N 
HETATM    5  H17 UNL     1      23.495   2.010  51.062  1.00  0.00     0.170 HD
ENDROOT
BRANCH   1   6
HETATM    6  C6  UNL     1      23.620  -0.324  52.294  1.00  0.00     0.169 C 
BRANCH   6   7
HETATM    7  C5  UNL     1      22.186  -0.397  52.630  1.00  0.00    -0.002 A 
HETATM    8  C4  UNL     1      21.750  -1.285  53.696  1.00  0.00     0.009 A 
HETATM    9  C3  UNL     1      20.473  -1.332  53.979  1.00  0.00    -0.017 A 
HETATM   10  C2  UNL     1      19.182  -0.747  53.561  1.00  0.00     0.085 A 
HETATM   11  S1  UNL     1      19.490   0.384  52.249  1.00  0.00    -0.213 SA
HETATM   12  C1  UNL     1      18.444   0.190  50.806  1.00  0.00     0.073 C 
HETATM   13  C21 UNL     1      21.241   0.288  52.038  1.00  0.00     0.090 A 
HETATM   14  H4  UNL     1      19.114   1.996  52.779  1.00  0.00     0.088 HD
BRANCH  13  15
HETATM   15  O2  UNL     1      21.628   1.148  51.010  1.00  0.00    -0.355 OA
HETATM   16  H23 UNL     1      22.507   1.623  51.067  1.00  0.00     0.218 HD
ENDBRANCH  13  15
ENDBRANCH   6   7
ENDBRANCH   1   6
BRANCH   1  17
HETATM   17  C7  UNL     1      24.979   0.043  54.269  1.00  0.00     0.166 C 
BRANCH  17  18
HETATM   18  C8  UNL     1      26.428  -0.232  54.120  1.00  0.00    -0.040 A 
HETATM   19  C9  UNL     1      27.403   0.324  54.923  1.00  0.00     0.012 A 
HETATM   20  C10 UNL     1      28.753   0.088  54.813  1.00  0.00     0.043 A 
HETATM   21  C11 UNL     1      29.193  -0.766  53.832  1.00  0.00     0.116 A 
HETATM   22  F1  UNL     1      30.507  -1.047  53.662  1.00  0.00    -0.206 F 
HETATM   23  C12 UNL     1      28.286  -1.360  52.989  1.00  0.00     0.043 A 
HETATM   24  C13 UNL     1      26.946  -1.080  53.156  1.00  0.00     0.012 A 
ENDBRANCH  17  18
ENDBRANCH   1  17
BRANCH   4  25
HETATM   25  C15 UNL     1      24.172   3.994  51.236  1.00  0.00     0.036 A 
HETATM   26  C16 UNL     1      23.255   4.936  51.649  1.00  0.00     0.029 A 
HETATM   27  C17 UNL     1      23.294   6.237  51.269  1.00  0.00     0.002 A 
HETATM   28  C18 UNL     1      24.279   6.700  50.426  1.00  0.00     0.000 A 
HETATM   29  C19 UNL     1      25.207   5.808  49.993  1.00  0.00     0.002 A 
HETATM   30  C20 UNL     1      25.134   4.513  50.396  1.00  0.00     0.029 A 
ENDBRANCH   4  25
TORSDOF 6
ENDMDL
MODEL 8
REMARK VINA RESULT:      -7.8      3.522      6.336
REMARK  6 active torsions:
REMARK  status: ('A' for Active; 'I' for Inactive)
REMARK    1  A    between atoms: C5_6  and  C6_7 
REMARK    2  A    between atoms: C6_7  and  N1_8 
REMARK    3  A    between atoms: N1_8  and  C7_9 
REMARK       I    between atoms: N1_8  and  C14_17 
REMARK    4  A    between atoms: C7_9  and  C8_10 
REMARK       I    between atoms: C14_17  and  N2_19 
REMARK    5  A    between atoms: N2_19  and  C15_20 
REMARK    6  A    between atoms: C21_26  and  O2_27 
ROOT
HETATM    1  N1  UNL     1      24.160   3.465  51.036  1.00  0.00    -0.325 N 
HETATM    2  C14 UNL     1      24.965   2.484  51.686  1.00  0.00     0.323 C 
HETATM    3  O1  UNL     1      24.832   1.278  51.442  1.00  0.00    -0.247 OA
HETATM    4  N2  UNL     1      25.955   2.823  52.641  1.00  0.00    -0.309 N 
HETATM    5  H17 UNL     1      26.021   3.864  52.810  1.00  0.00     0.170 HD
ENDROOT
BRANCH   1   6
HETATM    6  C6  UNL     1      24.190   4.886  51.202  1.00  0.00     0.169 C 
BRANCH   6   7
HETATM    7  C5  UNL     1      25.163   5.592  50.348  1.00  0.00    -0.002 A 
HETATM    8  C4  UNL     1      26.033   4.821  49.474  1.00  0.00     0.009 A 
HETATM    9  C3  UNL     1      26.888   5.468  48.723  1.00  0.00    -0.017 A 
HETATM   10  C2  UNL     1      27.332   6.843  48.412  1.00  0.00     0.085 A 
HETATM   11  S1  UNL     1      26.384   7.960  49.385  1.00  0.00    -0.213 SA
HETATM   12  C1  UNL     1      27.329   9.195  50.278  1.00  0.00     0.073 C 
HETATM   13  C21 UNL     1      25.318   6.891  50.303  1.00  0.00     0.090 A 
HETATM   14  H4  UNL     1      25.384   8.925  48.342  1.00  0.00     0.088 HD
BRANCH  13  15
HETATM   15  O2  UNL     1      24.499   7.659  51.131  1.00  0.00    -0.355 OA
HETATM   16  H23 UNL     1      23.521   7.451  51.189  1.00  0.00     0.218 HD
ENDBRANCH  13  15
ENDBRANCH   6   7
ENDBRANCH   1   6
BRANCH   1  17
HETATM   17  C7  UNL     1      23.177   2.997  50.069  1.00  0.00     0.166 C 
BRANCH  17  18
HETATM   18  C8  UNL     1      21.998   2.355  50.697  1.00  0.00    -0.040 A 
HETATM   19  C9  UNL     1      21.245   2.938  51.695  1.00  0.00     0.012 A 
HETATM   20  C10 UNL     1      20.146   2.371  52.296  1.00  0.00     0.043 A 
HETATM   21  C11 UNL     1      19.744   1.123  51.889  1.00  0.00     0.116 A 
HETATM   22  F1  UNL     1      18.672   0.501  52.434  1.00  0.00    -0.206 F 
HETATM   23  C12 UNL     1      20.441   0.473  50.900  1.00  0.00     0.043 A 
HETATM   24  C13 UNL     1      21.534   1.100  50.339  1.00  0.00     0.012 A 
ENDBRANCH  17  18
ENDBRANCH   1  17
BRANCH   4  25
HETATM   25  C15 UNL     1      26.848   2.019  53.390  1.00  0.00     0.036 A 
HETATM   26  C16 UNL     1      28.201   2.281  53.377  1.00  0.00     0.029 A 
HETATM   27  C17 UNL     1      29.111   1.553  54.070  1.00  0.00     0.002 A 
HETATM   28  C18 UNL     1      28.723   0.484  54.845  1.00  0.00     0.000 A 
HETATM   29  C19 UNL     1      27.398   0.188  54.889  1.00  0.00     0.002 A 
HETATM   30  C20 UNL     1      26.516   0.941  54.181  1.00  0.00     0.029 A 
ENDBRANCH   4  25
TORSDOF 6
ENDMDL
MODEL 9
REMARK VINA RESULT:      -7.7      3.036      6.629
REMARK  6 active torsions:
REMARK  status: ('A' for Active; 'I' for Inactive)
REMARK    1  A    between atoms: C5_6  and  C6_7 
REMARK    2  A    between atoms: C6_7  and  N1_8 
REMARK    3  A    between atoms: N1_8  and  C7_9 
REMARK       I    between atoms: N1_8  and  C14_17 
REMARK    4  A    between atoms: C7_9  and  C8_10 
REMARK       I    between atoms: C14_17  and  N2_19 
REMARK    5  A    between atoms: N2_19  and  C15_20 
REMARK    6  A    between atoms: C21_26  and  O2_27 
ROOT
HETATM    1  N1  UNL     1      23.841   2.505  50.993  1.00  0.00    -0.325 N 
HETATM    2  C14 UNL     1      24.495   3.324  50.026  1.00  0.00     0.323 C 
HETATM    3  O1  UNL     1      24.127   3.343  48.844  1.00  0.00    -0.247 OA
HETATM    4  N2  UNL     1      25.594   4.156  50.352  1.00  0.00    -0.309 N 
HETATM    5  H17 UNL     1      25.864   4.096  51.372  1.00  0.00     0.170 HD
ENDROOT
BRANCH   1   6
HETATM    6  C6  UNL     1      24.138   2.371  52.386  1.00  0.00     0.169 C 
BRANCH   6   7
HETATM    7  C5  UNL     1      25.124   1.323  52.713  1.00  0.00    -0.002 A 
HETATM    8  C4  UNL     1      24.659  -0.023  53.007  1.00  0.00     0.009 A 
HETATM    9  C3  UNL     1      25.550  -0.938  53.293  1.00  0.00    -0.017 A 
HETATM   10  C2  UNL     1      27.011  -1.111  53.440  1.00  0.00     0.085 A 
HETATM   11  S1  UNL     1      27.783   0.437  53.120  1.00  0.00    -0.213 SA
HETATM   12  C1  UNL     1      28.983   0.965  54.343  1.00  0.00     0.073 C 
HETATM   13  C21 UNL     1      26.420   1.502  52.764  1.00  0.00     0.090 A 
HETATM   14  H4  UNL     1      28.741   0.313  51.675  1.00  0.00     0.088 HD
BRANCH  13  15
HETATM   15  O2  UNL     1      26.897   2.783  52.489  1.00  0.00    -0.355 OA
HETATM   16  H23 UNL     1      26.782   3.167  51.571  1.00  0.00     0.218 HD
ENDBRANCH  13  15
ENDBRANCH   6   7
ENDBRANCH   1   6
BRANCH   1  17
HETATM   17  C7  UNL     1      22.719   1.693  50.540  1.00  0.00     0.166 C 
BRANCH  17  18
HETATM   18  C8  UNL     1      21.400   2.275  50.884  1.00  0.00    -0.040 A 
HETATM   19  C9  UNL     1      20.454   1.632  51.655  1.00  0.00     0.012 A 
HETATM   20  C10 UNL     1      19.224   2.144  51.994  1.00  0.00     0.043 A 
HETATM   21  C11 UNL     1      18.884   3.394  51.541  1.00  0.00     0.116 A 
HETATM   22  F1  UNL     1      17.691   3.964  51.833  1.00  0.00    -0.206 F 
HETATM   23  C12 UNL     1      19.771   4.101  50.766  1.00  0.00     0.043 A 
HETATM   24  C13 UNL     1      20.989   3.528  50.464  1.00  0.00     0.012 A 
ENDBRANCH  17  18
ENDBRANCH   1  17
BRANCH   4  25
HETATM   25  C15 UNL     1      26.373   5.032  49.558  1.00  0.00     0.036 A 
HETATM   26  C16 UNL     1      25.973   6.336  49.360  1.00  0.00     0.029 A 
HETATM   27  C17 UNL     1      26.669   7.228  48.614  1.00  0.00     0.002 A 
HETATM   28  C18 UNL     1      27.845   6.871  47.996  1.00  0.00     0.000 A 
HETATM   29  C19 UNL     1      28.281   5.594  48.163  1.00  0.00     0.002 A 
HETATM   30  C20 UNL     1      27.555   4.730  48.918  1.00  0.00     0.029 A 
ENDBRANCH   4  25
TORSDOF 6
ENDMDL
