MODEL 1
REMARK VINA RESULT:      -9.5      0.000      0.000
REMARK  3 active torsions:
REMARK  status: ('A' for Active; 'I' for Inactive)
REMARK    1  A    between atoms: C10_12  and  N1_13 
REMARK    2  A    between atoms: N1_13  and  C11_14 
REMARK    3  A    between atoms: C11_14  and  C12_15 
ROOT
HETATM    1  O1  UNL     1      24.645  -1.397  52.764  1.00  0.00    -0.297 OA
HETATM    2  C1  UNL     1      25.684  -0.845  53.175  1.00  0.00     0.143 C 
HETATM    3  C2  UNL     1      26.803  -1.763  52.627  1.00  0.00     0.079 C 
HETATM    4  C3  UNL     1      27.935  -1.077  53.236  1.00  0.00     0.007 C 
HETATM    5  C4  UNL     1      29.354  -1.222  53.165  1.00  0.00     0.002 C 
HETATM    6  C5  UNL     1      29.792  -0.156  54.212  1.00  0.00     0.027 C 
HETATM    7  C6  UNL     1      29.015   1.147  54.103  1.00  0.00     0.175 C 
HETATM    8  O2  UNL     1      27.688   1.053  54.485  1.00  0.00    -0.354 OA
HETATM    9  C7  UNL     1      26.492   1.445  53.948  1.00  0.00     0.064 A 
HETATM   10  C8  UNL     1      26.068   2.576  53.403  1.00  0.00     0.050 A 
HETATM   11  C9  UNL     1      24.678   2.349  53.021  1.00  0.00     0.038 A 
HETATM   12  C10 UNL     1      23.812   3.236  52.417  1.00  0.00     0.137 A 
HETATM   13  N2  UNL     1      22.555   2.854  52.135  1.00  0.00    -0.224 NA
HETATM   14  C18 UNL     1      22.161   1.612  52.446  1.00  0.00     0.235 A 
HETATM   15  N3  UNL     1      22.997   0.736  53.036  1.00  0.00    -0.244 NA
HETATM   16  C19 UNL     1      24.275   1.073  53.342  1.00  0.00     0.067 A 
HETATM   17  C20 UNL     1      25.448   0.394  53.973  1.00  0.00     0.165 A 
ENDROOT
BRANCH  12  18
HETATM   18  N1  UNL     1      24.161   4.567  52.055  1.00  0.00    -0.370 N 
HETATM   19  H12 UNL     1      24.506   5.146  52.875  1.00  0.00     0.161 HD
BRANCH  18  20
HETATM   20  C11 UNL     1      24.103   5.204  50.767  1.00  0.00     0.160 C 
BRANCH  20  21
HETATM   21  C12 UNL     1      25.353   5.151  49.992  1.00  0.00    -0.040 A 
HETATM   22  C13 UNL     1      25.740   6.403  49.538  1.00  0.00     0.012 A 
HETATM   23  C14 UNL     1      26.889   6.630  48.786  1.00  0.00     0.043 A 
HETATM   24  C15 UNL     1      27.696   5.546  48.472  1.00  0.00     0.116 A 
HETATM   25  F1  UNL     1      28.815   5.723  47.748  1.00  0.00    -0.206 F 
HETATM   26  C16 UNL     1      27.303   4.310  48.928  1.00  0.00     0.043 A 
HETATM   27  C17 UNL     1      26.163   4.108  49.669  1.00  0.00     0.012 A 
ENDBRANCH  20  21
ENDBRANCH  18  20
ENDBRANCH  12  18
TORSDOF 3
ENDMDL
MODEL 2
REMARK VINA RESULT:      -9.1      1.365      1.760
REMARK  3 active torsions:
REMARK  status: ('A' for Active; 'I' for Inactive)
REMARK    1  A    between atoms: C10_12  and  N1_13 
REMARK    2  A    between atoms: N1_13  and  C11_14 
REMARK    3  A    between atoms: C11_14  and  C12_15 
ROOT
HETATM    1  O1  UNL     1      24.354  -0.909  53.092  1.00  0.00    -0.297 OA
HETATM    2  C1  UNL     1      25.333  -0.172  53.313  1.00  0.00     0.143 C 
HETATM    3  C2  UNL     1      26.478  -1.184  53.561  1.00  0.00     0.079 C 
HETATM    4  C3  UNL     1      27.522  -0.222  53.887  1.00  0.00     0.007 C 
HETATM    5  C4  UNL     1      28.922  -0.312  54.159  1.00  0.00     0.002 C 
HETATM    6  C5  UNL     1      29.229   1.172  54.516  1.00  0.00     0.027 C 
HETATM    7  C6  UNL     1      28.557   2.165  53.580  1.00  0.00     0.175 C 
HETATM    8  O2  UNL     1      27.180   2.229  53.710  1.00  0.00    -0.354 OA
HETATM    9  C7  UNL     1      26.121   2.207  52.844  1.00  0.00     0.064 A 
HETATM   10  C8  UNL     1      25.863   2.836  51.707  1.00  0.00     0.050 A 
HETATM   11  C9  UNL     1      24.551   2.369  51.272  1.00  0.00     0.038 A 
HETATM   12  C10 UNL     1      23.856   2.741  50.140  1.00  0.00     0.137 A 
HETATM   13  N2  UNL     1      22.648   2.206  49.894  1.00  0.00    -0.224 NA
HETATM   14  C18 UNL     1      22.136   1.316  50.755  1.00  0.00     0.235 A 
HETATM   15  N3  UNL     1      22.806   0.945  51.863  1.00  0.00    -0.244 NA
HETATM   16  C19 UNL     1      24.027   1.456  52.157  1.00  0.00     0.067 A 
HETATM   17  C20 UNL     1      25.032   1.289  53.252  1.00  0.00     0.165 A 
ENDROOT
BRANCH  12  18
HETATM   18  N1  UNL     1      24.336   3.675  49.182  1.00  0.00    -0.370 N 
HETATM   19  H12 UNL     1      24.655   3.220  48.277  1.00  0.00     0.161 HD
BRANCH  18  20
HETATM   20  C11 UNL     1      24.442   5.106  49.280  1.00  0.00     0.160 C 
BRANCH  20  21
HETATM   21  C12 UNL     1      25.734   5.664  48.851  1.00  0.00    -0.040 A 
HETATM   22  C13 UNL     1      26.754   4.726  48.907  1.00  0.00     0.012 A 
HETATM   23  C14 UNL     1      28.071   4.995  48.548  1.00  0.00     0.043 A 
HETATM   24  C15 UNL     1      28.386   6.273  48.107  1.00  0.00     0.116 A 
HETATM   25  F1  UNL     1      29.647   6.574  47.751  1.00  0.00    -0.206 F 
HETATM   26  C16 UNL     1      27.367   7.195  48.055  1.00  0.00     0.043 A 
HETATM   27  C17 UNL     1      26.072   6.907  48.416  1.00  0.00     0.012 A 
ENDBRANCH  20  21
ENDBRANCH  18  20
ENDBRANCH  12  18
TORSDOF 3
ENDMDL
MODEL 3
REMARK VINA RESULT:      -8.9      2.803      6.373
REMARK  3 active torsions:
REMARK  status: ('A' for Active; 'I' for Inactive)
REMARK    1  A    between atoms: C10_12  and  N1_13 
REMARK    2  A    between atoms: N1_13  and  C11_14 
REMARK    3  A    between atoms: C11_14  and  C12_15 
ROOT
HETATM    1  O1  UNL     1      21.570   5.043  51.658  1.00  0.00    -0.297 OA
HETATM    2  C1  UNL     1      22.629   4.806  51.046  1.00  0.00     0.143 C 
HETATM    3  C2  UNL     1      23.388   6.153  51.135  1.00  0.00     0.079 C 
HETATM    4  C3  UNL     1      24.541   5.781  50.327  1.00  0.00     0.007 C 
HETATM    5  C4  UNL     1      25.771   6.420  49.977  1.00  0.00     0.002 C 
HETATM    6  C5  UNL     1      26.359   5.365  48.995  1.00  0.00     0.027 C 
HETATM    7  C6  UNL     1      26.197   3.934  49.485  1.00  0.00     0.175 C 
HETATM    8  O2  UNL     1      24.891   3.475  49.481  1.00  0.00    -0.354 OA
HETATM    9  C7  UNL     1      24.087   2.825  50.379  1.00  0.00     0.064 A 
HETATM   10  C8  UNL     1      24.266   1.771  51.162  1.00  0.00     0.050 A 
HETATM   11  C9  UNL     1      23.013   1.584  51.886  1.00  0.00     0.038 A 
HETATM   12  C10 UNL     1      22.714   0.612  52.818  1.00  0.00     0.137 A 
HETATM   13  N2  UNL     1      21.498   0.590  53.390  1.00  0.00    -0.224 NA
HETATM   14  C18 UNL     1      20.592   1.514  53.045  1.00  0.00     0.235 A 
HETATM   15  N3  UNL     1      20.873   2.468  52.136  1.00  0.00    -0.244 NA
HETATM   16  C19 UNL     1      22.084   2.535  51.530  1.00  0.00     0.067 A 
HETATM   17  C20 UNL     1      22.735   3.416  50.513  1.00  0.00     0.165 A 
ENDROOT
BRANCH  12  18
HETATM   18  N1  UNL     1      23.623  -0.398  53.235  1.00  0.00    -0.370 N 
HETATM   19  H12 UNL     1      23.607  -1.258  52.613  1.00  0.00     0.161 HD
BRANCH  18  20
HETATM   20  C11 UNL     1      24.527  -0.402  54.354  1.00  0.00     0.160 C 
BRANCH  20  21
HETATM   21  C12 UNL     1      25.952  -0.507  54.001  1.00  0.00    -0.040 A 
HETATM   22  C13 UNL     1      26.762   0.191  54.883  1.00  0.00     0.012 A 
HETATM   23  C14 UNL     1      28.149   0.247  54.779  1.00  0.00     0.043 A 
HETATM   24  C15 UNL     1      28.759  -0.433  53.734  1.00  0.00     0.116 A 
HETATM   25  F1  UNL     1      30.096  -0.404  53.597  1.00  0.00    -0.206 F 
HETATM   26  C16 UNL     1      27.946  -1.122  52.865  1.00  0.00     0.043 A 
HETATM   27  C17 UNL     1      26.577  -1.164  52.987  1.00  0.00     0.012 A 
ENDBRANCH  20  21
ENDBRANCH  18  20
ENDBRANCH  12  18
TORSDOF 3
ENDMDL
MODEL 4
REMARK VINA RESULT:      -8.9      2.325      5.016
REMARK  3 active torsions:
REMARK  status: ('A' for Active; 'I' for Inactive)
REMARK    1  A    between atoms: C10_12  and  N1_13 
REMARK    2  A    between atoms: N1_13  and  C11_14 
REMARK    3  A    between atoms: C11_14  and  C12_15 
ROOT
HETATM    1  O1  UNL     1      22.814  -1.301  54.474  1.00  0.00    -0.297 OA
HETATM    2  C1  UNL     1      21.948  -0.923  53.663  1.00  0.00     0.143 C 
HETATM    3  C2  UNL     1      20.624  -1.314  54.364  1.00  0.00     0.079 C 
HETATM    4  C3  UNL     1      19.713  -0.909  53.301  1.00  0.00     0.007 C 
HETATM    5  C4  UNL     1      18.292  -0.845  53.167  1.00  0.00     0.002 C 
HETATM    6  C5  UNL     1      18.177  -0.410  51.676  1.00  0.00     0.027 C 
HETATM    7  C6  UNL     1      19.167   0.679  51.291  1.00  0.00     0.175 C 
HETATM    8  O2  UNL     1      20.487   0.263  51.256  1.00  0.00    -0.354 OA
HETATM    9  C7  UNL     1      21.669   0.741  51.752  1.00  0.00     0.064 A 
HETATM   10  C8  UNL     1      22.235   1.939  51.757  1.00  0.00     0.050 A 
HETATM   11  C9  UNL     1      23.508   1.786  52.453  1.00  0.00     0.038 A 
HETATM   12  C10 UNL     1      24.453   2.758  52.707  1.00  0.00     0.137 A 
HETATM   13  N2  UNL     1      25.579   2.436  53.367  1.00  0.00    -0.224 NA
HETATM   14  C18 UNL     1      25.767   1.172  53.768  1.00  0.00     0.235 A 
HETATM   15  N3  UNL     1      24.851   0.214  53.526  1.00  0.00    -0.244 NA
HETATM   16  C19 UNL     1      23.699   0.487  52.864  1.00  0.00     0.067 A 
HETATM   17  C20 UNL     1      22.495  -0.286  52.429  1.00  0.00     0.165 A 
ENDROOT
BRANCH  12  18
HETATM   18  N1  UNL     1      24.322   4.118  52.315  1.00  0.00    -0.370 N 
HETATM   19  H12 UNL     1      24.418   4.798  53.125  1.00  0.00     0.161 HD
BRANCH  18  20
HETATM   20  C11 UNL     1      24.080   4.669  51.008  1.00  0.00     0.160 C 
BRANCH  20  21
HETATM   21  C12 UNL     1      25.276   4.810  50.163  1.00  0.00    -0.040 A 
HETATM   22  C13 UNL     1      25.495   6.125  49.783  1.00  0.00     0.012 A 
HETATM   23  C14 UNL     1      26.563   6.531  48.987  1.00  0.00     0.043 A 
HETATM   24  C15 UNL     1      27.462   5.569  48.549  1.00  0.00     0.116 A 
HETATM   25  F1  UNL     1      28.506   5.919  47.779  1.00  0.00    -0.206 F 
HETATM   26  C16 UNL     1      27.235   4.268  48.933  1.00  0.00     0.043 A 
HETATM   27  C17 UNL     1      26.173   3.889  49.719  1.00  0.00     0.012 A 
ENDBRANCH  20  21
ENDBRANCH  18  20
ENDBRANCH  12  18
TORSDOF 3
ENDMDL
MODEL 5
REMARK VINA RESULT:      -8.7      2.214      4.583
REMARK  3 active torsions:
REMARK  status: ('A' for Active; 'I' for Inactive)
REMARK    1  A    between atoms: C10_12  and  N1_13 
REMARK    2  A    between atoms: N1_13  and  C11_14 
REMARK    3  A    between atoms: C11_14  and  C12_15 
ROOT
HETATM    1  O1  UNL     1      24.636  -0.805  54.820  1.00  0.00    -0.297 OA
HETATM    2  C1  UNL     1      23.694  -0.525  54.054  1.00  0.00     0.143 C 
HETATM    3  C2  UNL     1      22.474  -0.489  55.005  1.00  0.00     0.079 C 
HETATM    4  C3  UNL     1      21.449  -0.246  53.999  1.00  0.00     0.007 C 
HETATM    5  C4  UNL     1      20.044   0.011  54.038  1.00  0.00     0.002 C 
HETATM    6  C5  UNL     1      19.727   0.035  52.514  1.00  0.00     0.027 C 
HETATM    7  C6  UNL     1      20.758   0.800  51.699  1.00  0.00     0.175 C 
HETATM    8  O2  UNL     1      21.993   0.180  51.616  1.00  0.00    -0.354 OA
HETATM    9  C7  UNL     1      23.292   0.576  51.791  1.00  0.00     0.064 A 
HETATM   10  C8  UNL     1      23.989   1.620  51.368  1.00  0.00     0.050 A 
HETATM   11  C9  UNL     1      25.335   1.457  51.906  1.00  0.00     0.038 A 
HETATM   12  C10 UNL     1      26.419   2.293  51.737  1.00  0.00     0.137 A 
HETATM   13  N2  UNL     1      27.595   1.984  52.309  1.00  0.00    -0.224 NA
HETATM   14  C18 UNL     1      27.697   0.865  53.038  1.00  0.00     0.235 A 
HETATM   15  N3  UNL     1      26.645   0.040  53.210  1.00  0.00    -0.244 NA
HETATM   16  C19 UNL     1      25.438   0.306  52.654  1.00  0.00     0.067 A 
HETATM   17  C20 UNL     1      24.094  -0.349  52.627  1.00  0.00     0.165 A 
ENDROOT
BRANCH  12  18
HETATM   18  N1  UNL     1      26.385   3.497  50.981  1.00  0.00    -0.370 N 
HETATM   19  H12 UNL     1      26.480   4.369  51.580  1.00  0.00     0.161 HD
BRANCH  18  20
HETATM   20  C11 UNL     1      26.241   3.676  49.561  1.00  0.00     0.160 C 
BRANCH  20  21
HETATM   21  C12 UNL     1      26.910   4.867  49.015  1.00  0.00    -0.040 A 
HETATM   22  C13 UNL     1      26.090   5.985  49.040  1.00  0.00     0.012 A 
HETATM   23  C14 UNL     1      26.482   7.241  48.587  1.00  0.00     0.043 A 
HETATM   24  C15 UNL     1      27.766   7.388  48.081  1.00  0.00     0.116 A 
HETATM   25  F1  UNL     1      28.185   8.584  47.633  1.00  0.00    -0.206 F 
HETATM   26  C16 UNL     1      28.571   6.273  48.061  1.00  0.00     0.043 A 
HETATM   27  C17 UNL     1      28.162   5.040  48.513  1.00  0.00     0.012 A 
ENDBRANCH  20  21
ENDBRANCH  18  20
ENDBRANCH  12  18
TORSDOF 3
ENDMDL
MODEL 6
REMARK VINA RESULT:      -8.5      3.731      7.682
REMARK  3 active torsions:
REMARK  status: ('A' for Active; 'I' for Inactive)
REMARK    1  A    between atoms: C10_12  and  N1_13 
REMARK    2  A    between atoms: N1_13  and  C11_14 
REMARK    3  A    between atoms: C11_14  and  C12_15 
ROOT
HETATM    1  O1  UNL     1      26.229   8.779  49.688  1.00  0.00    -0.297 OA
HETATM    2  C1  UNL     1      27.232   8.275  49.147  1.00  0.00     0.143 C 
HETATM    3  C2  UNL     1      28.372   9.232  49.572  1.00  0.00     0.079 C 
HETATM    4  C3  UNL     1      29.448   8.599  48.822  1.00  0.00     0.007 C 
HETATM    5  C4  UNL     1      30.860   8.802  48.726  1.00  0.00     0.002 C 
HETATM    6  C5  UNL     1      31.211   7.767  47.617  1.00  0.00     0.027 C 
HETATM    7  C6  UNL     1      30.504   6.432  47.797  1.00  0.00     0.175 C 
HETATM    8  O2  UNL     1      29.138   6.476  47.577  1.00  0.00    -0.354 OA
HETATM    9  C7  UNL     1      28.032   6.028  48.247  1.00  0.00     0.064 A 
HETATM   10  C8  UNL     1      27.721   4.875  48.820  1.00  0.00     0.050 A 
HETATM   11  C9  UNL     1      26.379   5.041  49.368  1.00  0.00     0.038 A 
HETATM   12  C10 UNL     1      25.628   4.111  50.057  1.00  0.00     0.137 A 
HETATM   13  N2  UNL     1      24.399   4.438  50.493  1.00  0.00    -0.224 NA
HETATM   14  C18 UNL     1      23.922   5.666  50.251  1.00  0.00     0.235 A 
HETATM   15  N3  UNL     1      24.646   6.582  49.579  1.00  0.00    -0.244 NA
HETATM   16  C19 UNL     1      25.890   6.302  49.119  1.00  0.00     0.067 A 
HETATM   17  C20 UNL     1      26.952   7.036  48.363  1.00  0.00     0.165 A 
ENDROOT
BRANCH  12  18
HETATM   18  N1  UNL     1      26.069   2.793  50.353  1.00  0.00    -0.370 N 
HETATM   19  H12 UNL     1      26.782   2.424  49.658  1.00  0.00     0.161 HD
BRANCH  18  20
HETATM   20  C11 UNL     1      25.684   1.926  51.434  1.00  0.00     0.160 C 
BRANCH  20  21
HETATM   21  C12 UNL     1      26.801   1.374  52.216  1.00  0.00    -0.040 A 
HETATM   22  C13 UNL     1      26.745  -0.009  52.304  1.00  0.00     0.012 A 
HETATM   23  C14 UNL     1      27.686  -0.778  52.982  1.00  0.00     0.043 A 
HETATM   24  C15 UNL     1      28.742  -0.129  53.606  1.00  0.00     0.116 A 
HETATM   25  F1  UNL     1      29.673  -0.835  54.272  1.00  0.00    -0.206 F 
HETATM   26  C16 UNL     1      28.788   1.242  53.512  1.00  0.00     0.043 A 
HETATM   27  C17 UNL     1      27.846   1.983  52.837  1.00  0.00     0.012 A 
ENDBRANCH  20  21
ENDBRANCH  18  20
ENDBRANCH  12  18
TORSDOF 3
ENDMDL
MODEL 7
REMARK VINA RESULT:      -8.4      1.848      2.182
REMARK  3 active torsions:
REMARK  status: ('A' for Active; 'I' for Inactive)
REMARK    1  A    between atoms: C10_12  and  N1_13 
REMARK    2  A    between atoms: N1_13  and  C11_14 
REMARK    3  A    between atoms: C11_14  and  C12_15 
ROOT
HETATM    1  O1  UNL     1      23.922  -0.885  53.193  1.00  0.00    -0.297 OA
HETATM    2  C1  UNL     1      24.905  -0.124  53.275  1.00  0.00     0.143 C 
HETATM    3  C2  UNL     1      26.079  -1.102  53.525  1.00  0.00     0.079 C 
HETATM    4  C3  UNL     1      27.131  -0.107  53.686  1.00  0.00     0.007 C 
HETATM    5  C4  UNL     1      28.548  -0.163  53.860  1.00  0.00     0.002 C 
HETATM    6  C5  UNL     1      28.860   1.349  54.061  1.00  0.00     0.027 C 
HETATM    7  C6  UNL     1      28.107   2.250  53.094  1.00  0.00     0.175 C 
HETATM    8  O2  UNL     1      26.743   2.316  53.321  1.00  0.00    -0.354 OA
HETATM    9  C7  UNL     1      25.623   2.209  52.541  1.00  0.00     0.064 A 
HETATM   10  C8  UNL     1      25.273   2.733  51.376  1.00  0.00     0.050 A 
HETATM   11  C9  UNL     1      23.939   2.220  51.083  1.00  0.00     0.038 A 
HETATM   12  C10 UNL     1      23.157   2.485  49.978  1.00  0.00     0.137 A 
HETATM   13  N2  UNL     1      21.941   1.921  49.871  1.00  0.00    -0.224 NA
HETATM   14  C18 UNL     1      21.507   1.107  50.842  1.00  0.00     0.235 A 
HETATM   15  N3  UNL     1      22.262   0.841  51.926  1.00  0.00    -0.244 NA
HETATM   16  C19 UNL     1      23.494   1.384  52.082  1.00  0.00     0.067 A 
HETATM   17  C20 UNL     1      24.579   1.323  53.109  1.00  0.00     0.165 A 
ENDROOT
BRANCH  12  18
HETATM   18  N1  UNL     1      23.552   3.333  48.908  1.00  0.00    -0.370 N 
HETATM   19  H12 UNL     1      24.141   2.838  48.177  1.00  0.00     0.161 HD
BRANCH  18  20
HETATM   20  C11 UNL     1      23.267   4.728  48.700  1.00  0.00     0.160 C 
BRANCH  20  21
HETATM   21  C12 UNL     1      24.349   5.647  49.087  1.00  0.00    -0.040 A 
HETATM   22  C13 UNL     1      23.905   6.648  49.939  1.00  0.00     0.012 A 
HETATM   23  C14 UNL     1      24.729   7.642  50.458  1.00  0.00     0.043 A 
HETATM   24  C15 UNL     1      26.072   7.635  50.107  1.00  0.00     0.116 A 
HETATM   25  F1  UNL     1      26.902   8.577  50.586  1.00  0.00    -0.206 F 
HETATM   26  C16 UNL     1      26.501   6.638  49.262  1.00  0.00     0.043 A 
HETATM   27  C17 UNL     1      25.668   5.666  48.760  1.00  0.00     0.012 A 
ENDBRANCH  20  21
ENDBRANCH  18  20
ENDBRANCH  12  18
TORSDOF 3
ENDMDL
MODEL 8
REMARK VINA RESULT:      -8.4      3.474      6.798
REMARK  3 active torsions:
REMARK  status: ('A' for Active; 'I' for Inactive)
REMARK    1  A    between atoms: C10_12  and  N1_13 
REMARK    2  A    between atoms: N1_13  and  C11_14 
REMARK    3  A    between atoms: C11_14  and  C12_15 
ROOT
HETATM    1  O1  UNL     1      19.486   4.334  50.294  1.00  0.00    -0.297 OA
HETATM    2  C1  UNL     1      19.546   3.303  50.991  1.00  0.00     0.143 C 
HETATM    3  C2  UNL     1      18.601   2.329  50.248  1.00  0.00     0.079 C 
HETATM    4  C3  UNL     1      18.687   1.219  51.188  1.00  0.00     0.007 C 
HETATM    5  C4  UNL     1      18.184  -0.118  51.212  1.00  0.00     0.002 C 
HETATM    6  C5  UNL     1      18.651  -0.562  52.629  1.00  0.00     0.027 C 
HETATM    7  C6  UNL     1      20.073  -0.131  52.954  1.00  0.00     0.175 C 
HETATM    8  O2  UNL     1      20.228   1.233  53.132  1.00  0.00    -0.354 OA
HETATM    9  C7  UNL     1      21.102   2.180  52.669  1.00  0.00     0.064 A 
HETATM   10  C8  UNL     1      22.422   2.225  52.565  1.00  0.00     0.050 A 
HETATM   11  C9  UNL     1      22.740   3.525  51.984  1.00  0.00     0.038 A 
HETATM   12  C10 UNL     1      23.987   4.034  51.686  1.00  0.00     0.137 A 
HETATM   13  N2  UNL     1      24.095   5.262  51.151  1.00  0.00    -0.224 NA
HETATM   14  C18 UNL     1      22.987   5.976  50.915  1.00  0.00     0.235 A 
HETATM   15  N3  UNL     1      21.763   5.489  51.202  1.00  0.00    -0.244 NA
HETATM   16  C19 UNL     1      21.600   4.257  51.742  1.00  0.00     0.067 A 
HETATM   17  C20 UNL     1      20.445   3.414  52.178  1.00  0.00     0.165 A 
ENDROOT
BRANCH  12  18
HETATM   18  N1  UNL     1      25.205   3.334  51.905  1.00  0.00    -0.370 N 
HETATM   19  H12 UNL     1      25.748   3.694  52.744  1.00  0.00     0.161 HD
BRANCH  18  20
HETATM   20  C11 UNL     1      25.775   2.244  51.161  1.00  0.00     0.160 C 
BRANCH  20  21
HETATM   21  C12 UNL     1      26.625   1.334  51.944  1.00  0.00    -0.040 A 
HETATM   22  C13 UNL     1      27.536   2.019  52.734  1.00  0.00     0.012 A 
HETATM   23  C14 UNL     1      28.452   1.395  53.576  1.00  0.00     0.043 A 
HETATM   24  C15 UNL     1      28.457   0.008  53.632  1.00  0.00     0.116 A 
HETATM   25  F1  UNL     1      29.325  -0.634  54.432  1.00  0.00    -0.206 F 
HETATM   26  C16 UNL     1      27.549  -0.661  52.845  1.00  0.00     0.043 A 
HETATM   27  C17 UNL     1      26.653  -0.023  52.019  1.00  0.00     0.012 A 
ENDBRANCH  20  21
ENDBRANCH  18  20
ENDBRANCH  12  18
TORSDOF 3
ENDMDL
MODEL 9
REMARK VINA RESULT:      -8.3      3.461      6.795
REMARK  3 active torsions:
REMARK  status: ('A' for Active; 'I' for Inactive)
REMARK    1  A    between atoms: C10_12  and  N1_13 
REMARK    2  A    between atoms: N1_13  and  C11_14 
REMARK    3  A    between atoms: C11_14  and  C12_15 
ROOT
HETATM    1  O1  UNL     1      19.491   2.689  52.251  1.00  0.00    -0.297 OA
HETATM    2  C1  UNL     1      20.473   2.881  51.508  1.00  0.00     0.143 C 
HETATM    3  C2  UNL     1      20.525   4.425  51.397  1.00  0.00     0.079 C 
HETATM    4  C3  UNL     1      21.634   4.515  50.456  1.00  0.00     0.007 C 
HETATM    5  C4  UNL     1      22.386   5.591  49.891  1.00  0.00     0.002 C 
HETATM    6  C5  UNL     1      23.296   4.801  48.905  1.00  0.00     0.027 C 
HETATM    7  C6  UNL     1      23.865   3.524  49.506  1.00  0.00     0.175 C 
HETATM    8  O2  UNL     1      22.927   2.529  49.723  1.00  0.00    -0.354 OA
HETATM    9  C7  UNL     1      22.610   1.705  50.768  1.00  0.00     0.064 A 
HETATM   10  C8  UNL     1      23.332   0.952  51.584  1.00  0.00     0.050 A 
HETATM   11  C9  UNL     1      22.387   0.312  52.493  1.00  0.00     0.038 A 
HETATM   12  C10 UNL     1      22.666  -0.565  53.521  1.00  0.00     0.137 A 
HETATM   13  N2  UNL     1      21.662  -1.062  54.263  1.00  0.00    -0.224 NA
HETATM   14  C18 UNL     1      20.402  -0.697  53.993  1.00  0.00     0.235 A 
HETATM   15  N3  UNL     1      20.118   0.159  52.993  1.00  0.00    -0.244 NA
HETATM   16  C19 UNL     1      21.094   0.689  52.214  1.00  0.00     0.067 A 
HETATM   17  C20 UNL     1      21.158   1.634  51.058  1.00  0.00     0.165 A 
ENDROOT
BRANCH  12  18
HETATM   18  N1  UNL     1      23.976  -0.995  53.867  1.00  0.00    -0.370 N 
HETATM   19  H12 UNL     1      24.223  -1.948  53.468  1.00  0.00     0.161 HD
BRANCH  18  20
HETATM   20  C11 UNL     1      24.972  -0.327  54.661  1.00  0.00     0.160 C 
BRANCH  20  21
HETATM   21  C12 UNL     1      26.356  -0.487  54.186  1.00  0.00    -0.040 A 
HETATM   22  C13 UNL     1      27.264   0.197  54.980  1.00  0.00     0.012 A 
HETATM   23  C14 UNL     1      28.637   0.204  54.753  1.00  0.00     0.043 A 
HETATM   24  C15 UNL     1      29.129  -0.513  53.671  1.00  0.00     0.116 A 
HETATM   25  F1  UNL     1      30.449  -0.532  53.416  1.00  0.00    -0.206 F 
HETATM   26  C16 UNL     1      28.220  -1.188  52.890  1.00  0.00     0.043 A 
HETATM   27  C17 UNL     1      26.866  -1.180  53.134  1.00  0.00     0.012 A 
ENDBRANCH  20  21
ENDBRANCH  18  20
ENDBRANCH  12  18
TORSDOF 3
ENDMDL
