MODEL 1
REMARK VINA RESULT:      -9.0      0.000      0.000
REMARK  4 active torsions:
REMARK  status: ('A' for Active; 'I' for Inactive)
REMARK    1  A    between atoms: C5_5  and  C6_6 
REMARK    2  A    between atoms: C6_6  and  O1_7 
REMARK    3  A    between atoms: O1_7  and  C7_8 
REMARK    4  A    between atoms: C8_9  and  C9_10 
ROOT
HETATM    1  C9  UNL     1      25.966   2.290  52.066  1.00  0.00    -0.017 C 
HETATM    2  C10 UNL     1      26.069   2.601  50.793  1.00  0.00     0.098 C 
HETATM    3  N1  UNL     1      25.690   3.350  49.661  1.00  0.00    -0.360 N 
HETATM    4  C11 UNL     1      26.058   4.701  49.457  1.00  0.00     0.208 C 
HETATM    5  N2  UNL     1      26.306   5.967  49.342  1.00  0.00    -0.237 NA
HETATM    6  C12 UNL     1      25.489   6.929  50.032  1.00  0.00     0.230 C 
HETATM    7  N3  UNL     1      24.559   7.393  49.258  1.00  0.00    -0.257 NA
HETATM    8  C13 UNL     1      24.353   7.015  47.896  1.00  0.00     0.325 C 
HETATM    9  O2  UNL     1      23.093   6.454  47.619  1.00  0.00    -0.330 OA
HETATM   10  C14 UNL     1      22.640   5.297  48.235  1.00  0.00     0.073 A 
HETATM   11  C15 UNL     1      22.651   4.009  47.682  1.00  0.00     0.037 A 
HETATM   12  C16 UNL     1      22.167   2.899  48.390  1.00  0.00     0.005 A 
HETATM   13  C17 UNL     1      21.668   3.117  49.674  1.00  0.00     0.029 A 
HETATM   14  C18 UNL     1      21.664   4.376  50.199  1.00  0.00     0.030 A 
HETATM   15  C19 UNL     1      22.139   5.460  49.501  1.00  0.00     0.066 A 
HETATM   16  N4  UNL     1      21.129   4.453  51.526  1.00  0.00    -0.388 N 
HETATM   17  C20 UNL     1      22.257   4.651  52.388  1.00  0.00     0.146 C 
HETATM   18  C21 UNL     1      23.204   3.442  52.338  1.00  0.00     0.187 C 
HETATM   19  O3  UNL     1      24.274   3.646  53.158  1.00  0.00    -0.385 OA
HETATM   20  C22 UNL     1      25.211   2.668  53.253  1.00  0.00     0.207 C 
HETATM   21  H12 UNL     1      25.104   3.032  48.860  1.00  0.00     0.166 HD
HETATM   22  H21 UNL     1      20.112   4.330  51.342  1.00  0.00     0.159 HD
ENDROOT
BRANCH   1  23
HETATM   23  C8  UNL     1      26.907   1.216  52.460  1.00  0.00     0.035 C 
HETATM   24  C7  UNL     1      26.545   0.023  52.959  1.00  0.00     0.135 C 
BRANCH  24  25
HETATM   25  O1  UNL     1      25.697  -0.978  53.403  1.00  0.00    -0.359 OA
BRANCH  25  26
HETATM   26  C6  UNL     1      24.859  -0.659  54.525  1.00  0.00     0.208 C 
BRANCH  26  27
HETATM   27  C5  UNL     1      23.478  -0.773  54.040  1.00  0.00    -0.056 C 
HETATM   28  C4  UNL     1      23.220  -0.234  52.677  1.00  0.00     0.063 C 
HETATM   29  C3  UNL     1      21.718  -0.093  52.592  1.00  0.00    -0.020 C 
HETATM   30  C2  UNL     1      20.847  -0.664  53.416  1.00  0.00    -0.084 C 
HETATM   31  C1  UNL     1      19.364  -0.487  53.281  1.00  0.00     0.043 C 
HETATM   32  C24 UNL     1      21.176  -1.550  54.578  1.00  0.00     0.061 C 
HETATM   33  C23 UNL     1      22.628  -1.334  54.861  1.00  0.00    -0.017 C 
ENDBRANCH  26  27
ENDBRANCH  25  26
ENDBRANCH  24  25
ENDBRANCH   1  23
TORSDOF 4
ENDMDL
MODEL 2
REMARK VINA RESULT:      -8.9      4.600      7.416
REMARK  4 active torsions:
REMARK  status: ('A' for Active; 'I' for Inactive)
REMARK    1  A    between atoms: C5_5  and  C6_6 
REMARK    2  A    between atoms: C6_6  and  O1_7 
REMARK    3  A    between atoms: O1_7  and  C7_8 
REMARK    4  A    between atoms: C8_9  and  C9_10 
ROOT
HETATM    1  C9  UNL     1      26.763   6.147  49.129  1.00  0.00    -0.017 C 
HETATM    2  C10 UNL     1      27.780   5.755  48.395  1.00  0.00     0.098 C 
HETATM    3  N1  UNL     1      29.015   5.986  47.757  1.00  0.00    -0.360 N 
HETATM    4  C11 UNL     1      30.248   6.068  48.444  1.00  0.00     0.208 C 
HETATM    5  N2  UNL     1      31.350   6.253  49.100  1.00  0.00    -0.237 NA
HETATM    6  C12 UNL     1      31.624   7.529  49.705  1.00  0.00     0.230 C 
HETATM    7  N3  UNL     1      32.366   8.261  48.934  1.00  0.00    -0.257 NA
HETATM    8  C13 UNL     1      32.857   7.873  47.650  1.00  0.00     0.325 C 
HETATM    9  O2  UNL     1      32.452   8.698  46.584  1.00  0.00    -0.330 OA
HETATM   10  C14 UNL     1      31.119   8.892  46.255  1.00  0.00     0.073 A 
HETATM   11  C15 UNL     1      30.424   8.257  45.217  1.00  0.00     0.037 A 
HETATM   12  C16 UNL     1      29.071   8.523  44.965  1.00  0.00     0.005 A 
HETATM   13  C17 UNL     1      28.430   9.451  45.785  1.00  0.00     0.029 A 
HETATM   14  C18 UNL     1      29.119  10.061  46.792  1.00  0.00     0.030 A 
HETATM   15  C19 UNL     1      30.444   9.797  47.034  1.00  0.00     0.066 A 
HETATM   16  N4  UNL     1      28.336  10.986  47.557  1.00  0.00    -0.388 N 
HETATM   17  C20 UNL     1      28.089  10.339  48.812  1.00  0.00     0.146 C 
HETATM   18  C21 UNL     1      27.248   9.067  48.618  1.00  0.00     0.187 C 
HETATM   19  O3  UNL     1      27.026   8.459  49.818  1.00  0.00    -0.385 OA
HETATM   20  C22 UNL     1      26.282   7.325  49.839  1.00  0.00     0.207 C 
HETATM   21  H12 UNL     1      29.182   6.135  46.738  1.00  0.00     0.166 HD
HETATM   22  H21 UNL     1      28.249  11.780  46.890  1.00  0.00     0.159 HD
ENDROOT
BRANCH   1  23
HETATM   23  C8  UNL     1      25.764   5.071  49.324  1.00  0.00     0.035 C 
HETATM   24  C7  UNL     1      25.990   3.923  49.983  1.00  0.00     0.135 C 
BRANCH  24  25
HETATM   25  O1  UNL     1      26.698   2.977  50.706  1.00  0.00    -0.359 OA
BRANCH  25  26
HETATM   26  C6  UNL     1      25.921   2.037  51.465  1.00  0.00     0.208 C 
BRANCH  26  27
HETATM   27  C5  UNL     1      26.883   1.285  52.280  1.00  0.00    -0.056 C 
HETATM   28  C4  UNL     1      27.838   2.102  53.078  1.00  0.00     0.063 C 
HETATM   29  C3  UNL     1      28.937   1.141  53.472  1.00  0.00    -0.020 C 
HETATM   30  C2  UNL     1      28.853  -0.182  53.414  1.00  0.00    -0.084 C 
HETATM   31  C1  UNL     1      29.980  -1.086  53.820  1.00  0.00     0.043 C 
HETATM   32  C24 UNL     1      27.671  -0.977  52.953  1.00  0.00     0.061 C 
HETATM   33  C23 UNL     1      26.795  -0.019  52.213  1.00  0.00    -0.017 C 
ENDBRANCH  26  27
ENDBRANCH  25  26
ENDBRANCH  24  25
ENDBRANCH   1  23
TORSDOF 4
ENDMDL
MODEL 3
REMARK VINA RESULT:      -8.8      1.912      4.669
REMARK  4 active torsions:
REMARK  status: ('A' for Active; 'I' for Inactive)
REMARK    1  A    between atoms: C5_5  and  C6_6 
REMARK    2  A    between atoms: C6_6  and  O1_7 
REMARK    3  A    between atoms: O1_7  and  C7_8 
REMARK    4  A    between atoms: C8_9  and  C9_10 
ROOT
HETATM    1  C9  UNL     1      22.856   2.433  51.813  1.00  0.00    -0.017 C 
HETATM    2  C10 UNL     1      22.001   3.350  51.418  1.00  0.00     0.098 C 
HETATM    3  N1  UNL     1      21.626   4.426  50.589  1.00  0.00    -0.360 N 
HETATM    4  C11 UNL     1      21.250   4.276  49.234  1.00  0.00     0.208 C 
HETATM    5  N2  UNL     1      21.020   4.135  47.967  1.00  0.00    -0.237 NA
HETATM    6  C12 UNL     1      22.116   4.033  47.041  1.00  0.00     0.230 C 
HETATM    7  N3  UNL     1      22.387   5.184  46.511  1.00  0.00    -0.257 NA
HETATM    8  C13 UNL     1      21.701   6.405  46.793  1.00  0.00     0.325 C 
HETATM    9  O2  UNL     1      22.508   7.433  47.314  1.00  0.00    -0.330 OA
HETATM   10  C14 UNL     1      23.210   7.301  48.503  1.00  0.00     0.073 A 
HETATM   11  C15 UNL     1      22.825   7.809  49.751  1.00  0.00     0.037 A 
HETATM   12  C16 UNL     1      23.609   7.620  50.897  1.00  0.00     0.005 A 
HETATM   13  C17 UNL     1      24.797   6.905  50.759  1.00  0.00     0.029 A 
HETATM   14  C18 UNL     1      25.160   6.415  49.538  1.00  0.00     0.030 A 
HETATM   15  C19 UNL     1      24.388   6.603  48.418  1.00  0.00     0.066 A 
HETATM   16  N4  UNL     1      26.400   5.697  49.542  1.00  0.00    -0.388 N 
HETATM   17  C20 UNL     1      26.046   4.313  49.421  1.00  0.00     0.146 C 
HETATM   18  C21 UNL     1      25.234   3.845  50.638  1.00  0.00     0.187 C 
HETATM   19  O3  UNL     1      24.900   2.530  50.507  1.00  0.00    -0.385 OA
HETATM   20  C22 UNL     1      24.192   1.940  51.503  1.00  0.00     0.207 C 
HETATM   21  H12 UNL     1      21.587   5.437  50.843  1.00  0.00     0.166 HD
HETATM   22  H21 UNL     1      27.085   6.474  49.636  1.00  0.00     0.159 HD
ENDROOT
BRANCH   1  23
HETATM   23  C8  UNL     1      22.325   1.612  52.926  1.00  0.00     0.035 C 
HETATM   24  C7  UNL     1      22.841   0.441  53.330  1.00  0.00     0.135 C 
BRANCH  24  25
HETATM   25  O1  UNL     1      23.702  -0.644  53.348  1.00  0.00    -0.359 OA
BRANCH  25  26
HETATM   26  C6  UNL     1      24.500  -0.811  54.530  1.00  0.00     0.208 C 
BRANCH  26  27
HETATM   27  C5  UNL     1      25.890  -0.600  54.110  1.00  0.00    -0.056 C 
HETATM   28  C4  UNL     1      26.265  -1.173  52.788  1.00  0.00     0.063 C 
HETATM   29  C3  UNL     1      27.777  -1.187  52.785  1.00  0.00    -0.020 C 
HETATM   30  C2  UNL     1      28.550  -0.508  53.623  1.00  0.00    -0.084 C 
HETATM   31  C1  UNL     1      30.049  -0.563  53.571  1.00  0.00     0.043 C 
HETATM   32  C24 UNL     1      28.087   0.395  54.724  1.00  0.00     0.061 C 
HETATM   33  C23 UNL     1      26.645   0.067  54.945  1.00  0.00    -0.017 C 
ENDBRANCH  26  27
ENDBRANCH  25  26
ENDBRANCH  24  25
ENDBRANCH   1  23
TORSDOF 4
ENDMDL
MODEL 4
REMARK VINA RESULT:      -8.6      2.098      4.218
REMARK  4 active torsions:
REMARK  status: ('A' for Active; 'I' for Inactive)
REMARK    1  A    between atoms: C5_5  and  C6_6 
REMARK    2  A    between atoms: C6_6  and  O1_7 
REMARK    3  A    between atoms: O1_7  and  C7_8 
REMARK    4  A    between atoms: C8_9  and  C9_10 
ROOT
HETATM    1  C9  UNL     1      21.576   0.781  52.614  1.00  0.00    -0.017 C 
HETATM    2  C10 UNL     1      22.502   0.981  51.704  1.00  0.00     0.098 C 
HETATM    3  N1  UNL     1      23.105   1.755  50.692  1.00  0.00    -0.360 N 
HETATM    4  C11 UNL     1      23.880   2.910  50.947  1.00  0.00     0.208 C 
HETATM    5  N2  UNL     1      24.489   4.027  51.190  1.00  0.00    -0.237 NA
HETATM    6  C12 UNL     1      23.732   5.229  51.414  1.00  0.00     0.230 C 
HETATM    7  N3  UNL     1      23.627   5.924  50.325  1.00  0.00    -0.257 NA
HETATM    8  C13 UNL     1      24.182   5.564  49.059  1.00  0.00     0.325 C 
HETATM    9  O2  UNL     1      23.245   5.414  48.020  1.00  0.00    -0.330 OA
HETATM   10  C14 UNL     1      22.213   4.489  48.073  1.00  0.00     0.073 A 
HETATM   11  C15 UNL     1      22.192   3.238  47.443  1.00  0.00     0.037 A 
HETATM   12  C16 UNL     1      21.096   2.372  47.559  1.00  0.00     0.005 A 
HETATM   13  C17 UNL     1      20.013   2.798  48.328  1.00  0.00     0.029 A 
HETATM   14  C18 UNL     1      20.047   4.018  48.937  1.00  0.00     0.030 A 
HETATM   15  C19 UNL     1      21.124   4.863  48.819  1.00  0.00     0.066 A 
HETATM   16  N4  UNL     1      18.873   4.324  49.698  1.00  0.00    -0.388 N 
HETATM   17  C20 UNL     1      19.258   4.200  51.073  1.00  0.00     0.146 C 
HETATM   18  C21 UNL     1      19.661   2.753  51.401  1.00  0.00     0.187 C 
HETATM   19  O3  UNL     1      20.031   2.650  52.709  1.00  0.00    -0.385 OA
HETATM   20  C22 UNL     1      20.403   1.434  53.182  1.00  0.00     0.207 C 
HETATM   21  H12 UNL     1      23.055   1.599  49.662  1.00  0.00     0.166 HD
HETATM   22  H21 UNL     1      18.185   4.518  48.941  1.00  0.00     0.159 HD
ENDROOT
BRANCH   1  23
HETATM   23  C8  UNL     1      21.746  -0.514  53.313  1.00  0.00     0.035 C 
HETATM   24  C7  UNL     1      22.876  -0.920  53.914  1.00  0.00     0.135 C 
BRANCH  24  25
HETATM   25  O1  UNL     1      24.190  -0.861  54.350  1.00  0.00    -0.359 OA
BRANCH  25  26
HETATM   26  C6  UNL     1      24.878   0.383  54.149  1.00  0.00     0.208 C 
BRANCH  26  27
HETATM   27  C5  UNL     1      26.271   0.030  53.852  1.00  0.00    -0.056 C 
HETATM   28  C4  UNL     1      26.483  -0.828  52.654  1.00  0.00     0.063 C 
HETATM   29  C3  UNL     1      27.886  -1.372  52.808  1.00  0.00    -0.020 C 
HETATM   30  C2  UNL     1      28.806  -0.890  53.635  1.00  0.00    -0.084 C 
HETATM   31  C1  UNL     1      30.184  -1.474  53.744  1.00  0.00     0.043 C 
HETATM   32  C24 UNL     1      28.642   0.270  54.566  1.00  0.00     0.061 C 
HETATM   33  C23 UNL     1      27.170   0.506  54.675  1.00  0.00    -0.017 C 
ENDBRANCH  26  27
ENDBRANCH  25  26
ENDBRANCH  24  25
ENDBRANCH   1  23
TORSDOF 4
ENDMDL
MODEL 5
REMARK VINA RESULT:      -8.6      2.730      7.881
REMARK  4 active torsions:
REMARK  status: ('A' for Active; 'I' for Inactive)
REMARK    1  A    between atoms: C5_5  and  C6_6 
REMARK    2  A    between atoms: C6_6  and  O1_7 
REMARK    3  A    between atoms: O1_7  and  C7_8 
REMARK    4  A    between atoms: C8_9  and  C9_10 
ROOT
HETATM    1  C9  UNL     1      23.464   5.835  50.683  1.00  0.00    -0.017 C 
HETATM    2  C10 UNL     1      23.304   5.269  51.858  1.00  0.00     0.098 C 
HETATM    3  N1  UNL     1      23.116   4.139  52.679  1.00  0.00    -0.360 N 
HETATM    4  C11 UNL     1      24.141   3.214  52.984  1.00  0.00     0.208 C 
HETATM    5  N2  UNL     1      25.059   2.317  53.159  1.00  0.00    -0.237 NA
HETATM    6  C12 UNL     1      25.299   1.322  52.148  1.00  0.00     0.230 C 
HETATM    7  N3  UNL     1      24.663   0.225  52.412  1.00  0.00    -0.257 NA
HETATM    8  C13 UNL     1      23.828   0.008  53.551  1.00  0.00     0.325 C 
HETATM    9  O2  UNL     1      22.490  -0.313  53.255  1.00  0.00    -0.330 OA
HETATM   10  C14 UNL     1      21.660   0.535  52.538  1.00  0.00     0.073 A 
HETATM   11  C15 UNL     1      20.691   1.392  53.076  1.00  0.00     0.037 A 
HETATM   12  C16 UNL     1      19.899   2.214  52.262  1.00  0.00     0.005 A 
HETATM   13  C17 UNL     1      20.106   2.152  50.884  1.00  0.00     0.029 A 
HETATM   14  C18 UNL     1      21.053   1.314  50.374  1.00  0.00     0.030 A 
HETATM   15  C19 UNL     1      21.826   0.511  51.176  1.00  0.00     0.066 A 
HETATM   16  N4  UNL     1      21.162   1.357  48.946  1.00  0.00    -0.388 N 
HETATM   17  C20 UNL     1      22.377   2.066  48.670  1.00  0.00     0.146 C 
HETATM   18  C21 UNL     1      22.292   3.516  49.174  1.00  0.00     0.187 C 
HETATM   19  O3  UNL     1      23.455   4.176  48.910  1.00  0.00    -0.385 OA
HETATM   20  C22 UNL     1      23.554   5.480  49.272  1.00  0.00     0.207 C 
HETATM   21  H12 UNL     1      22.234   3.835  53.145  1.00  0.00     0.166 HD
HETATM   22  H21 UNL     1      20.299   0.850  48.661  1.00  0.00     0.159 HD
ENDROOT
BRANCH   1  23
HETATM   23  C8  UNL     1      23.605   7.306  50.782  1.00  0.00     0.035 C 
HETATM   24  C7  UNL     1      24.674   8.004  50.366  1.00  0.00     0.135 C 
BRANCH  24  25
HETATM   25  O1  UNL     1      25.924   8.229  49.812  1.00  0.00    -0.359 OA
BRANCH  25  26
HETATM   26  C6  UNL     1      26.012   8.164  48.380  1.00  0.00     0.208 C 
BRANCH  26  27
HETATM   27  C5  UNL     1      27.168   7.307  48.088  1.00  0.00    -0.056 C 
HETATM   28  C4  UNL     1      27.043   5.882  48.502  1.00  0.00     0.063 C 
HETATM   29  C3  UNL     1      28.455   5.345  48.477  1.00  0.00    -0.020 C 
HETATM   30  C2  UNL     1      29.485   5.926  47.874  1.00  0.00    -0.084 C 
HETATM   31  C1  UNL     1      30.867   5.343  47.884  1.00  0.00     0.043 C 
HETATM   32  C24 UNL     1      29.454   7.214  47.110  1.00  0.00     0.061 C 
HETATM   33  C23 UNL     1      28.179   7.891  47.497  1.00  0.00    -0.017 C 
ENDBRANCH  26  27
ENDBRANCH  25  26
ENDBRANCH  24  25
ENDBRANCH   1  23
TORSDOF 4
ENDMDL
MODEL 6
REMARK VINA RESULT:      -8.5      4.908      7.624
REMARK  4 active torsions:
REMARK  status: ('A' for Active; 'I' for Inactive)
REMARK    1  A    between atoms: C5_5  and  C6_6 
REMARK    2  A    between atoms: C6_6  and  O1_7 
REMARK    3  A    between atoms: O1_7  and  C7_8 
REMARK    4  A    between atoms: C8_9  and  C9_10 
ROOT
HETATM    1  C9  UNL     1      26.808   7.157  49.044  1.00  0.00    -0.017 C 
HETATM    2  C10 UNL     1      27.602   6.436  48.285  1.00  0.00     0.098 C 
HETATM    3  N1  UNL     1      28.843   6.190  47.664  1.00  0.00    -0.360 N 
HETATM    4  C11 UNL     1      29.986   5.724  48.356  1.00  0.00     0.208 C 
HETATM    5  N2  UNL     1      31.050   5.408  49.023  1.00  0.00    -0.237 NA
HETATM    6  C12 UNL     1      31.797   6.424  49.715  1.00  0.00     0.230 C 
HETATM    7  N3  UNL     1      32.791   6.843  48.997  1.00  0.00    -0.257 NA
HETATM    8  C13 UNL     1      33.121   6.372  47.689  1.00  0.00     0.325 C 
HETATM    9  O2  UNL     1      33.112   7.356  46.683  1.00  0.00    -0.330 OA
HETATM   10  C14 UNL     1      31.979   8.091  46.368  1.00  0.00     0.073 A 
HETATM   11  C15 UNL     1      31.116   7.857  45.289  1.00  0.00     0.037 A 
HETATM   12  C16 UNL     1      29.992   8.661  45.056  1.00  0.00     0.005 A 
HETATM   13  C17 UNL     1      29.755   9.714  45.938  1.00  0.00     0.029 A 
HETATM   14  C18 UNL     1      30.603   9.931  46.984  1.00  0.00     0.030 A 
HETATM   15  C19 UNL     1      31.703   9.140  47.208  1.00  0.00     0.066 A 
HETATM   16  N4  UNL     1      30.237  11.042  47.812  1.00  0.00    -0.388 N 
HETATM   17  C20 UNL     1      29.716  10.471  49.019  1.00  0.00     0.146 C 
HETATM   18  C21 UNL     1      28.440   9.661  48.737  1.00  0.00     0.187 C 
HETATM   19  O3  UNL     1      27.958   9.119  49.892  1.00  0.00    -0.385 OA
HETATM   20  C22 UNL     1      26.821   8.382  49.834  1.00  0.00     0.207 C 
HETATM   21  H12 UNL     1      29.085   6.323  46.659  1.00  0.00     0.166 HD
HETATM   22  H21 UNL     1      30.494  11.844  47.202  1.00  0.00     0.159 HD
ENDROOT
BRANCH   1  23
HETATM   23  C8  UNL     1      25.455   6.564  49.164  1.00  0.00     0.035 C 
HETATM   24  C7  UNL     1      25.200   5.252  49.289  1.00  0.00     0.135 C 
BRANCH  24  25
HETATM   25  O1  UNL     1      25.469   3.897  49.391  1.00  0.00    -0.359 OA
BRANCH  25  26
HETATM   26  C6  UNL     1      26.459   3.509  50.356  1.00  0.00     0.208 C 
BRANCH  26  27
HETATM   27  C5  UNL     1      25.886   2.370  51.084  1.00  0.00    -0.056 C 
HETATM   28  C4  UNL     1      24.407   2.384  51.256  1.00  0.00     0.063 C 
HETATM   29  C3  UNL     1      24.133   1.377  52.348  1.00  0.00    -0.020 C 
HETATM   30  C2  UNL     1      24.990   0.456  52.774  1.00  0.00    -0.084 C 
HETATM   31  C1  UNL     1      24.659  -0.519  53.865  1.00  0.00     0.043 C 
HETATM   32  C24 UNL     1      26.380   0.236  52.263  1.00  0.00     0.061 C 
HETATM   33  C23 UNL     1      26.740   1.471  51.502  1.00  0.00    -0.017 C 
ENDBRANCH  26  27
ENDBRANCH  25  26
ENDBRANCH  24  25
ENDBRANCH   1  23
TORSDOF 4
ENDMDL
MODEL 7
REMARK VINA RESULT:      -8.5      4.590      7.657
REMARK  4 active torsions:
REMARK  status: ('A' for Active; 'I' for Inactive)
REMARK    1  A    between atoms: C5_5  and  C6_6 
REMARK    2  A    between atoms: C6_6  and  O1_7 
REMARK    3  A    between atoms: O1_7  and  C7_8 
REMARK    4  A    between atoms: C8_9  and  C9_10 
ROOT
HETATM    1  C9  UNL     1      27.027   5.934  48.892  1.00  0.00    -0.017 C 
HETATM    2  C10 UNL     1      26.852   7.224  48.713  1.00  0.00     0.098 C 
HETATM    3  N1  UNL     1      27.255   8.476  48.203  1.00  0.00    -0.360 N 
HETATM    4  C11 UNL     1      27.165   8.830  46.837  1.00  0.00     0.208 C 
HETATM    5  N2  UNL     1      27.183   9.095  45.569  1.00  0.00    -0.237 NA
HETATM    6  C12 UNL     1      28.259   8.612  44.745  1.00  0.00     0.230 C 
HETATM    7  N3  UNL     1      29.175   9.516  44.595  1.00  0.00    -0.257 NA
HETATM    8  C13 UNL     1      29.142  10.827  45.163  1.00  0.00     0.325 C 
HETATM    9  O2  UNL     1      30.213  11.129  46.024  1.00  0.00    -0.330 OA
HETATM   10  C14 UNL     1      30.474  10.402  47.175  1.00  0.00     0.073 A 
HETATM   11  C15 UNL     1      30.125  10.771  48.481  1.00  0.00     0.037 A 
HETATM   12  C16 UNL     1      30.435   9.962  49.584  1.00  0.00     0.005 A 
HETATM   13  C17 UNL     1      31.109   8.766  49.340  1.00  0.00     0.029 A 
HETATM   14  C18 UNL     1      31.441   8.419  48.063  1.00  0.00     0.030 A 
HETATM   15  C19 UNL     1      31.136   9.215  46.987  1.00  0.00     0.066 A 
HETATM   16  N4  UNL     1      32.125   7.164  47.959  1.00  0.00    -0.388 N 
HETATM   17  C20 UNL     1      31.169   6.245  47.413  1.00  0.00     0.146 C 
HETATM   18  C21 UNL     1      29.985   6.051  48.373  1.00  0.00     0.187 C 
HETATM   19  O3  UNL     1      29.081   5.181  47.840  1.00  0.00    -0.385 OA
HETATM   20  C22 UNL     1      27.974   4.876  48.562  1.00  0.00     0.207 C 
HETATM   21  H12 UNL     1      27.667   9.272  48.735  1.00  0.00     0.166 HD
HETATM   22  H21 UNL     1      33.065   7.413  48.329  1.00  0.00     0.159 HD
ENDROOT
BRANCH   1  23
HETATM   23  C8  UNL     1      25.928   5.321  49.672  1.00  0.00     0.035 C 
HETATM   24  C7  UNL     1      25.955   4.086  50.198  1.00  0.00     0.135 C 
BRANCH  24  25
HETATM   25  O1  UNL     1      26.460   2.834  50.506  1.00  0.00    -0.359 OA
BRANCH  25  26
HETATM   26  C6  UNL     1      25.702   2.048  51.440  1.00  0.00     0.208 C 
BRANCH  26  27
HETATM   27  C5  UNL     1      26.689   1.305  52.234  1.00  0.00    -0.056 C 
HETATM   28  C4  UNL     1      27.675   2.132  52.983  1.00  0.00     0.063 C 
HETATM   29  C3  UNL     1      28.782   1.172  53.356  1.00  0.00    -0.020 C 
HETATM   30  C2  UNL     1      28.690  -0.152  53.326  1.00  0.00    -0.084 C 
HETATM   31  C1  UNL     1      29.826  -1.054  53.708  1.00  0.00     0.043 C 
HETATM   32  C24 UNL     1      27.488  -0.948  52.920  1.00  0.00     0.061 C 
HETATM   33  C23 UNL     1      26.591   0.001  52.194  1.00  0.00    -0.017 C 
ENDBRANCH  26  27
ENDBRANCH  25  26
ENDBRANCH  24  25
ENDBRANCH   1  23
TORSDOF 4
ENDMDL
MODEL 8
REMARK VINA RESULT:      -8.4      3.167      5.208
REMARK  4 active torsions:
REMARK  status: ('A' for Active; 'I' for Inactive)
REMARK    1  A    between atoms: C5_5  and  C6_6 
REMARK    2  A    between atoms: C6_6  and  O1_7 
REMARK    3  A    between atoms: O1_7  and  C7_8 
REMARK    4  A    between atoms: C8_9  and  C9_10 
ROOT
HETATM    1  C9  UNL     1      25.886   4.833  49.618  1.00  0.00    -0.017 C 
HETATM    2  C10 UNL     1      26.685   5.440  48.769  1.00  0.00     0.098 C 
HETATM    3  N1  UNL     1      27.123   6.586  48.074  1.00  0.00    -0.360 N 
HETATM    4  C11 UNL     1      27.870   7.626  48.675  1.00  0.00     0.208 C 
HETATM    5  N2  UNL     1      28.451   8.621  49.265  1.00  0.00    -0.237 NA
HETATM    6  C12 UNL     1      27.672   9.581  50.001  1.00  0.00     0.230 C 
HETATM    7  N3  UNL     1      27.403  10.619  49.273  1.00  0.00    -0.257 NA
HETATM    8  C13 UNL     1      27.816  10.808  47.919  1.00  0.00     0.325 C 
HETATM    9  O2  UNL     1      26.768  10.973  46.995  1.00  0.00    -0.330 OA
HETATM   10  C14 UNL     1      25.793  10.008  46.790  1.00  0.00     0.073 A 
HETATM   11  C15 UNL     1      25.754   9.085  45.737  1.00  0.00     0.037 A 
HETATM   12  C16 UNL     1      24.721   8.144  45.619  1.00  0.00     0.005 A 
HETATM   13  C17 UNL     1      23.722   8.155  46.592  1.00  0.00     0.029 A 
HETATM   14  C18 UNL     1      23.773   9.058  47.612  1.00  0.00     0.030 A 
HETATM   15  C19 UNL     1      24.788   9.978  47.723  1.00  0.00     0.066 A 
HETATM   16  N4  UNL     1      22.687   8.953  48.541  1.00  0.00    -0.388 N 
HETATM   17  C20 UNL     1      23.243   8.359  49.722  1.00  0.00     0.146 C 
HETATM   18  C21 UNL     1      23.749   6.937  49.435  1.00  0.00     0.187 C 
HETATM   19  O3  UNL     1      24.280   6.387  50.564  1.00  0.00    -0.385 OA
HETATM   20  C22 UNL     1      24.763   5.121  50.501  1.00  0.00     0.207 C 
HETATM   21  H12 UNL     1      26.956   6.820  47.073  1.00  0.00     0.166 HD
HETATM   22  H21 UNL     1      21.904   9.352  47.985  1.00  0.00     0.159 HD
ENDROOT
BRANCH   1  23
HETATM   23  C8  UNL     1      26.200   3.391  49.752  1.00  0.00     0.035 C 
HETATM   24  C7  UNL     1      25.891   2.634  50.817  1.00  0.00     0.135 C 
BRANCH  24  25
HETATM   25  O1  UNL     1      25.376   2.324  52.065  1.00  0.00    -0.359 OA
BRANCH  25  26
HETATM   26  C6  UNL     1      25.060   0.944  52.304  1.00  0.00     0.208 C 
BRANCH  26  27
HETATM   27  C5  UNL     1      26.269   0.348  52.885  1.00  0.00    -0.056 C 
HETATM   28  C4  UNL     1      26.930   1.137  53.961  1.00  0.00     0.063 C 
HETATM   29  C3  UNL     1      28.314   0.542  54.085  1.00  0.00    -0.020 C 
HETATM   30  C2  UNL     1      28.689  -0.633  53.595  1.00  0.00    -0.084 C 
HETATM   31  C1  UNL     1      30.081  -1.171  53.750  1.00  0.00     0.043 C 
HETATM   32  C24 UNL     1      27.828  -1.590  52.830  1.00  0.00     0.061 C 
HETATM   33  C23 UNL     1      26.632  -0.808  52.392  1.00  0.00    -0.017 C 
ENDBRANCH  26  27
ENDBRANCH  25  26
ENDBRANCH  24  25
ENDBRANCH   1  23
TORSDOF 4
ENDMDL
MODEL 9
REMARK VINA RESULT:      -8.4      2.483      4.089
REMARK  4 active torsions:
REMARK  status: ('A' for Active; 'I' for Inactive)
REMARK    1  A    between atoms: C5_5  and  C6_6 
REMARK    2  A    between atoms: C6_6  and  O1_7 
REMARK    3  A    between atoms: O1_7  and  C7_8 
REMARK    4  A    between atoms: C8_9  and  C9_10 
ROOT
HETATM    1  C9  UNL     1      26.074   4.642  49.585  1.00  0.00    -0.017 C 
HETATM    2  C10 UNL     1      26.778   5.350  48.729  1.00  0.00     0.098 C 
HETATM    3  N1  UNL     1      27.097   6.560  48.082  1.00  0.00    -0.360 N 
HETATM    4  C11 UNL     1      27.811   7.614  48.700  1.00  0.00     0.208 C 
HETATM    5  N2  UNL     1      28.362   8.611  49.316  1.00  0.00    -0.237 NA
HETATM    6  C12 UNL     1      27.570   9.472  50.152  1.00  0.00     0.230 C 
HETATM    7  N3  UNL     1      27.190  10.529  49.506  1.00  0.00    -0.257 NA
HETATM    8  C13 UNL     1      27.505  10.822  48.144  1.00  0.00     0.325 C 
HETATM    9  O2  UNL     1      26.393  10.968  47.294  1.00  0.00    -0.330 OA
HETATM   10  C14 UNL     1      25.473   9.951  47.088  1.00  0.00     0.073 A 
HETATM   11  C15 UNL     1      25.428   9.089  45.984  1.00  0.00     0.037 A 
HETATM   12  C16 UNL     1      24.452   8.089  45.870  1.00  0.00     0.005 A 
HETATM   13  C17 UNL     1      23.517   7.976  46.897  1.00  0.00     0.029 A 
HETATM   14  C18 UNL     1      23.573   8.821  47.966  1.00  0.00     0.030 A 
HETATM   15  C19 UNL     1      24.530   9.800  48.073  1.00  0.00     0.066 A 
HETATM   16  N4  UNL     1      22.555   8.589  48.948  1.00  0.00    -0.388 N 
HETATM   17  C20 UNL     1      23.220   7.969  50.056  1.00  0.00     0.146 C 
HETATM   18  C21 UNL     1      23.799   6.603  49.654  1.00  0.00     0.187 C 
HETATM   19  O3  UNL     1      24.432   6.027  50.715  1.00  0.00    -0.385 OA
HETATM   20  C22 UNL     1      24.991   4.803  50.547  1.00  0.00     0.207 C 
HETATM   21  H12 UNL     1      26.854   6.840  47.108  1.00  0.00     0.166 HD
HETATM   22  H21 UNL     1      21.715   8.966  48.463  1.00  0.00     0.159 HD
ENDROOT
BRANCH   1  23
HETATM   23  C8  UNL     1      26.488   3.220  49.613  1.00  0.00     0.035 C 
HETATM   24  C7  UNL     1      26.442   2.428  50.696  1.00  0.00     0.135 C 
BRANCH  24  25
HETATM   25  O1  UNL     1      26.208   2.067  52.013  1.00  0.00    -0.359 OA
BRANCH  25  26
HETATM   26  C6  UNL     1      26.241   0.662  52.308  1.00  0.00     0.208 C 
BRANCH  26  27
HETATM   27  C5  UNL     1      25.004   0.378  53.046  1.00  0.00    -0.056 C 
HETATM   28  C4  UNL     1      25.140  -0.528  54.220  1.00  0.00     0.063 C 
HETATM   29  C3  UNL     1      23.730  -0.977  54.530  1.00  0.00    -0.020 C 
HETATM   30  C2  UNL     1      22.625  -0.399  54.077  1.00  0.00    -0.084 C 
HETATM   31  C1  UNL     1      21.251  -0.892  54.420  1.00  0.00     0.043 C 
HETATM   32  C24 UNL     1      22.555   0.798  53.179  1.00  0.00     0.061 C 
HETATM   33  C23 UNL     1      23.920   0.950  52.589  1.00  0.00    -0.017 C 
ENDBRANCH  26  27
ENDBRANCH  25  26
ENDBRANCH  24  25
ENDBRANCH   1  23
TORSDOF 4
ENDMDL
