MODEL 1
REMARK VINA RESULT:      -7.4      0.000      0.000
REMARK  7 active torsions:
REMARK  status: ('A' for Active; 'I' for Inactive)
REMARK    1  A    between atoms: O1_2  and  C2_3 
REMARK    2  A    between atoms: C6_7  and  C7_8 
REMARK    3  A    between atoms: C7_8  and  C8_9 
REMARK    4  A    between atoms: C8_9  and  N1_10 
REMARK    5  A    between atoms: C8_9  and  C9_11 
REMARK    6  A    between atoms: C10_12  and  N2_13 
REMARK    7  A    between atoms: C10_12  and  C11_14 
ROOT
HETATM    1  C8  UNL     1      22.479   3.072  52.186  1.00  0.00     0.246 C 
ENDROOT
BRANCH   1   2
HETATM    2  C7  UNL     1      22.601   1.658  51.660  1.00  0.00     0.078 C 
BRANCH   2   3
HETATM    3  C6  UNL     1      22.694   0.674  52.792  1.00  0.00    -0.053 A 
HETATM    4  C5  UNL     1      21.603   0.149  53.456  1.00  0.00     0.007 A 
HETATM    5  C4  UNL     1      21.832  -0.756  54.490  1.00  0.00     0.003 A 
HETATM    6  C3  UNL     1      23.125  -1.107  54.829  1.00  0.00     0.037 A 
HETATM    7  C2  UNL     1      24.229  -0.586  54.170  1.00  0.00     0.068 A 
HETATM    8  C17 UNL     1      23.984   0.296  53.164  1.00  0.00     0.044 A 
BRANCH   7   9
HETATM    9  O1  UNL     1      25.489  -1.000  54.583  1.00  0.00    -0.356 OA
HETATM   10  C1  UNL     1      26.410   0.051  54.863  1.00  0.00     0.210 C 
ENDBRANCH   7   9
ENDBRANCH   2   3
ENDBRANCH   1   2
BRANCH   1  11
HETATM   11  N1  UNL     1      21.097   3.465  52.361  1.00  0.00     0.086 N 
HETATM   12  H10 UNL     1      20.880   4.312  51.828  1.00  0.00     0.313 HD
HETATM   13  H11 UNL     1      20.413   2.703  52.326  1.00  0.00     0.313 HD
ENDBRANCH   1  11
BRANCH   1  14
HETATM   14  C9  UNL     1      23.130   4.055  51.300  1.00  0.00     0.031 C 
HETATM   15  C10 UNL     1      23.726   5.183  51.647  1.00  0.00     0.006 C 
BRANCH  15  16
HETATM   16  N2  UNL     1      23.688   5.392  53.051  1.00  0.00    -0.303 NA
HETATM   17  H13 UNL     1      23.499   6.097  53.821  1.00  0.00     0.124 HD
HETATM   18  H14 UNL     1      23.492   6.122  53.780  1.00  0.00     0.124 HD
ENDBRANCH  15  16
BRANCH  15  19
HETATM   19  C11 UNL     1      24.313   6.021  50.617  1.00  0.00     0.052 C 
HETATM   20  C12 UNL     1      25.438   5.797  49.966  1.00  0.00     0.029 C 
HETATM   21  C13 UNL     1      25.915   6.745  48.936  1.00  0.00     0.025 C 
HETATM   22  N3  UNL     1      26.287   4.672  50.164  1.00  0.00    -0.390 N 
HETATM   23  C14 UNL     1      27.021   6.551  48.275  1.00  0.00    -0.023 C 
HETATM   24  C15 UNL     1      27.913   5.379  48.475  1.00  0.00     0.047 C 
HETATM   25  C16 UNL     1      27.163   4.220  49.098  1.00  0.00     0.123 C 
HETATM   26  H22 UNL     1      26.261   4.195  51.079  1.00  0.00     0.159 HD
ENDBRANCH  15  19
ENDBRANCH   1  14
TORSDOF 7
ENDMDL
MODEL 2
REMARK VINA RESULT:      -7.3      1.464      2.189
REMARK  7 active torsions:
REMARK  status: ('A' for Active; 'I' for Inactive)
REMARK    1  A    between atoms: O1_2  and  C2_3 
REMARK    2  A    between atoms: C6_7  and  C7_8 
REMARK    3  A    between atoms: C7_8  and  C8_9 
REMARK    4  A    between atoms: C8_9  and  N1_10 
REMARK    5  A    between atoms: C8_9  and  C9_11 
REMARK    6  A    between atoms: C10_12  and  N2_13 
REMARK    7  A    between atoms: C10_12  and  C11_14 
ROOT
HETATM    1  C8  UNL     1      24.682   3.184  51.709  1.00  0.00     0.246 C 
ENDROOT
BRANCH   1   2
HETATM    2  C7  UNL     1      23.755   2.094  51.217  1.00  0.00     0.078 C 
BRANCH   2   3
HETATM    3  C6  UNL     1      23.573   1.035  52.268  1.00  0.00    -0.053 A 
HETATM    4  C5  UNL     1      22.351   0.514  52.642  1.00  0.00     0.007 A 
HETATM    5  C4  UNL     1      22.325  -0.465  53.633  1.00  0.00     0.003 A 
HETATM    6  C3  UNL     1      23.504  -0.892  54.214  1.00  0.00     0.037 A 
HETATM    7  C2  UNL     1      24.738  -0.376  53.847  1.00  0.00     0.068 A 
HETATM    8  C17 UNL     1      24.741   0.579  52.879  1.00  0.00     0.044 A 
BRANCH   7   9
HETATM    9  O1  UNL     1      25.867  -0.869  54.490  1.00  0.00    -0.356 OA
HETATM   10  C1  UNL     1      26.784   0.121  54.948  1.00  0.00     0.210 C 
ENDBRANCH   7   9
ENDBRANCH   2   3
ENDBRANCH   1   2
BRANCH   1  11
HETATM   11  N1  UNL     1      24.167   3.838  52.892  1.00  0.00     0.086 N 
HETATM   12  H10 UNL     1      23.724   3.167  53.526  1.00  0.00     0.313 HD
HETATM   13  H11 UNL     1      24.781   4.542  53.312  1.00  0.00     0.313 HD
ENDBRANCH   1  11
BRANCH   1  14
HETATM   14  C9  UNL     1      24.926   4.215  50.681  1.00  0.00     0.031 C 
HETATM   15  C10 UNL     1      26.059   4.470  50.049  1.00  0.00     0.006 C 
BRANCH  15  16
HETATM   16  N2  UNL     1      27.106   3.609  50.468  1.00  0.00    -0.303 NA
HETATM   17  H13 UNL     1      27.352   2.758  51.054  1.00  0.00     0.124 HD
HETATM   18  H14 UNL     1      27.304   2.764  51.060  1.00  0.00     0.124 HD
ENDBRANCH  15  16
BRANCH  15  19
HETATM   19  C11 UNL     1      26.095   5.535  49.062  1.00  0.00     0.052 C 
HETATM   20  C12 UNL     1      27.171   6.126  48.580  1.00  0.00     0.029 C 
HETATM   21  C13 UNL     1      27.053   7.202  47.572  1.00  0.00     0.025 C 
HETATM   22  N3  UNL     1      28.510   5.817  48.954  1.00  0.00    -0.390 N 
HETATM   23  C14 UNL     1      28.097   7.805  47.078  1.00  0.00    -0.023 C 
HETATM   24  C15 UNL     1      29.498   7.488  47.461  1.00  0.00     0.047 C 
HETATM   25  C16 UNL     1      29.605   6.094  48.041  1.00  0.00     0.123 C 
HETATM   26  H22 UNL     1      28.674   5.398  49.882  1.00  0.00     0.159 HD
ENDBRANCH  15  19
ENDBRANCH   1  14
TORSDOF 7
ENDMDL
MODEL 3
REMARK VINA RESULT:      -7.1      3.156      4.766
REMARK  7 active torsions:
REMARK  status: ('A' for Active; 'I' for Inactive)
REMARK    1  A    between atoms: O1_2  and  C2_3 
REMARK    2  A    between atoms: C6_7  and  C7_8 
REMARK    3  A    between atoms: C7_8  and  C8_9 
REMARK    4  A    between atoms: C8_9  and  N1_10 
REMARK    5  A    between atoms: C8_9  and  C9_11 
REMARK    6  A    between atoms: C10_12  and  N2_13 
REMARK    7  A    between atoms: C10_12  and  C11_14 
ROOT
HETATM    1  C8  UNL     1      26.286   4.361  49.626  1.00  0.00     0.246 C 
ENDROOT
BRANCH   1   2
HETATM    2  C7  UNL     1      26.386   2.857  49.772  1.00  0.00     0.078 C 
BRANCH   2   3
HETATM    3  C6  UNL     1      26.130   2.442  51.192  1.00  0.00    -0.053 A 
HETATM    4  C5  UNL     1      24.899   2.046  51.677  1.00  0.00     0.007 A 
HETATM    5  C4  UNL     1      24.802   1.686  53.019  1.00  0.00     0.003 A 
HETATM    6  C3  UNL     1      25.920   1.729  53.830  1.00  0.00     0.037 A 
HETATM    7  C2  UNL     1      27.161   2.126  53.356  1.00  0.00     0.068 A 
HETATM    8  C17 UNL     1      27.235   2.473  52.044  1.00  0.00     0.044 A 
BRANCH   7   9
HETATM    9  O1  UNL     1      28.225   2.137  54.249  1.00  0.00    -0.356 OA
HETATM   10  C1  UNL     1      29.140   1.052  54.114  1.00  0.00     0.210 C 
ENDBRANCH   7   9
ENDBRANCH   2   3
ENDBRANCH   1   2
BRANCH   1  11
HETATM   11  N1  UNL     1      24.990   4.770  49.131  1.00  0.00     0.086 N 
HETATM   12  H10 UNL     1      24.257   4.112  49.415  1.00  0.00     0.313 HD
HETATM   13  H11 UNL     1      24.779   5.769  49.216  1.00  0.00     0.313 HD
ENDBRANCH   1  11
BRANCH   1  14
HETATM   14  C9  UNL     1      27.318   4.904  48.722  1.00  0.00     0.031 C 
HETATM   15  C10 UNL     1      27.724   6.158  48.622  1.00  0.00     0.006 C 
BRANCH  15  16
HETATM   16  N2  UNL     1      27.036   7.010  49.524  1.00  0.00    -0.303 NA
HETATM   17  H13 UNL     1      26.506   7.924  49.626  1.00  0.00     0.124 HD
HETATM   18  H14 UNL     1      26.518   7.922  49.579  1.00  0.00     0.124 HD
ENDBRANCH  15  16
BRANCH  15  19
HETATM   19  C11 UNL     1      28.762   6.493  47.663  1.00  0.00     0.052 C 
HETATM   20  C12 UNL     1      29.875   7.157  47.907  1.00  0.00     0.029 C 
HETATM   21  C13 UNL     1      30.846   7.427  46.824  1.00  0.00     0.025 C 
HETATM   22  N3  UNL     1      30.259   7.670  49.179  1.00  0.00    -0.390 N 
HETATM   23  C14 UNL     1      31.954   8.079  47.034  1.00  0.00    -0.023 C 
HETATM   24  C15 UNL     1      32.363   8.616  48.358  1.00  0.00     0.047 C 
HETATM   25  C16 UNL     1      31.662   7.889  49.485  1.00  0.00     0.123 C 
HETATM   26  H22 UNL     1      29.518   7.880  49.865  1.00  0.00     0.159 HD
ENDBRANCH  15  19
ENDBRANCH   1  14
TORSDOF 7
ENDMDL
MODEL 4
REMARK VINA RESULT:      -7.1      3.098      7.096
REMARK  7 active torsions:
REMARK  status: ('A' for Active; 'I' for Inactive)
REMARK    1  A    between atoms: O1_2  and  C2_3 
REMARK    2  A    between atoms: C6_7  and  C7_8 
REMARK    3  A    between atoms: C7_8  and  C8_9 
REMARK    4  A    between atoms: C8_9  and  N1_10 
REMARK    5  A    between atoms: C8_9  and  C9_11 
REMARK    6  A    between atoms: C10_12  and  N2_13 
REMARK    7  A    between atoms: C10_12  and  C11_14 
ROOT
HETATM    1  C8  UNL     1      24.345   2.979  51.049  1.00  0.00     0.246 C 
ENDROOT
BRANCH   1   2
HETATM    2  C7  UNL     1      24.294   3.230  49.558  1.00  0.00     0.078 C 
BRANCH   2   3
HETATM    3  C6  UNL     1      25.162   4.398  49.184  1.00  0.00    -0.053 A 
HETATM    4  C5  UNL     1      24.690   5.677  48.962  1.00  0.00     0.007 A 
HETATM    5  C4  UNL     1      25.606   6.669  48.621  1.00  0.00     0.003 A 
HETATM    6  C3  UNL     1      26.950   6.363  48.512  1.00  0.00     0.037 A 
HETATM    7  C2  UNL     1      27.435   5.083  48.731  1.00  0.00     0.068 A 
HETATM    8  C17 UNL     1      26.525   4.129  49.063  1.00  0.00     0.044 A 
BRANCH   7   9
HETATM    9  O1  UNL     1      28.802   4.874  48.597  1.00  0.00    -0.356 OA
HETATM   10  C1  UNL     1      29.552   6.012  48.180  1.00  0.00     0.210 C 
ENDBRANCH   7   9
ENDBRANCH   2   3
ENDBRANCH   1   2
BRANCH   1  11
HETATM   11  N1  UNL     1      24.895   4.108  51.768  1.00  0.00     0.086 N 
HETATM   12  H10 UNL     1      25.273   3.824  52.676  1.00  0.00     0.313 HD
HETATM   13  H11 UNL     1      25.459   4.756  51.209  1.00  0.00     0.313 HD
ENDBRANCH   1  11
BRANCH   1  14
HETATM   14  C9  UNL     1      25.142   1.784  51.387  1.00  0.00     0.031 C 
HETATM   15  C10 UNL     1      25.037   1.023  52.463  1.00  0.00     0.006 C 
BRANCH  15  16
HETATM   16  N2  UNL     1      24.018   1.480  53.338  1.00  0.00    -0.303 NA
HETATM   17  H13 UNL     1      23.815   1.969  54.259  1.00  0.00     0.124 HD
HETATM   18  H14 UNL     1      23.863   1.967  54.256  1.00  0.00     0.124 HD
ENDBRANCH  15  16
BRANCH  15  19
HETATM   19  C11 UNL     1      25.921  -0.120  52.612  1.00  0.00     0.052 C 
HETATM   20  C12 UNL     1      27.201  -0.090  52.926  1.00  0.00     0.029 C 
HETATM   21  C13 UNL     1      27.979  -1.343  53.043  1.00  0.00     0.025 C 
HETATM   22  N3  UNL     1      27.953   1.092  53.178  1.00  0.00    -0.390 N 
HETATM   23  C14 UNL     1      29.244  -1.346  53.351  1.00  0.00    -0.023 C 
HETATM   24  C15 UNL     1      30.037  -0.117  53.617  1.00  0.00     0.047 C 
HETATM   25  C16 UNL     1      29.142   1.039  54.011  1.00  0.00     0.123 C 
HETATM   26  H22 UNL     1      27.632   1.976  52.753  1.00  0.00     0.159 HD
ENDBRANCH  15  19
ENDBRANCH   1  14
TORSDOF 7
ENDMDL
MODEL 5
REMARK VINA RESULT:      -7.1      3.046      4.509
REMARK  7 active torsions:
REMARK  status: ('A' for Active; 'I' for Inactive)
REMARK    1  A    between atoms: O1_2  and  C2_3 
REMARK    2  A    between atoms: C6_7  and  C7_8 
REMARK    3  A    between atoms: C7_8  and  C8_9 
REMARK    4  A    between atoms: C8_9  and  N1_10 
REMARK    5  A    between atoms: C8_9  and  C9_11 
REMARK    6  A    between atoms: C10_12  and  N2_13 
REMARK    7  A    between atoms: C10_12  and  C11_14 
ROOT
HETATM    1  C8  UNL     1      22.548   2.174  51.499  1.00  0.00     0.246 C 
ENDROOT
BRANCH   1   2
HETATM    2  C7  UNL     1      21.902   0.976  50.837  1.00  0.00     0.078 C 
BRANCH   2   3
HETATM    3  C6  UNL     1      20.967   0.283  51.788  1.00  0.00    -0.053 A 
HETATM    4  C5  UNL     1      19.592   0.280  51.661  1.00  0.00     0.007 A 
HETATM    5  C4  UNL     1      18.842  -0.404  52.616  1.00  0.00     0.003 A 
HETATM    6  C3  UNL     1      19.476  -1.056  53.657  1.00  0.00     0.037 A 
HETATM    7  C2  UNL     1      20.855  -1.058  53.795  1.00  0.00     0.068 A 
HETATM    8  C17 UNL     1      21.569  -0.386  52.854  1.00  0.00     0.044 A 
BRANCH   7   9
HETATM    9  O1  UNL     1      21.399  -1.742  54.876  1.00  0.00    -0.356 OA
HETATM   10  C1  UNL     1      22.700  -1.313  55.272  1.00  0.00     0.210 C 
ENDBRANCH   7   9
ENDBRANCH   2   3
ENDBRANCH   1   2
BRANCH   1  11
HETATM   11  N1  UNL     1      22.249   3.404  50.798  1.00  0.00     0.086 N 
HETATM   12  H10 UNL     1      23.046   4.047  50.816  1.00  0.00     0.313 HD
HETATM   13  H11 UNL     1      21.756   3.297  49.906  1.00  0.00     0.313 HD
ENDBRANCH   1  11
BRANCH   1  14
HETATM   14  C9  UNL     1      24.015   2.039  51.588  1.00  0.00     0.031 C 
HETATM   15  C10 UNL     1      24.851   2.770  52.305  1.00  0.00     0.006 C 
BRANCH  15  16
HETATM   16  N2  UNL     1      24.174   3.777  53.042  1.00  0.00    -0.303 NA
HETATM   17  H13 UNL     1      23.466   4.566  52.991  1.00  0.00     0.124 HD
HETATM   18  H14 UNL     1      23.469   4.549  52.946  1.00  0.00     0.124 HD
ENDBRANCH  15  16
BRANCH  15  19
HETATM   19  C11 UNL     1      26.272   2.475  52.258  1.00  0.00     0.052 C 
HETATM   20  C12 UNL     1      26.962   1.785  53.146  1.00  0.00     0.029 C 
HETATM   21  C13 UNL     1      28.413   1.563  52.965  1.00  0.00     0.025 C 
HETATM   22  N3  UNL     1      26.423   1.200  54.326  1.00  0.00    -0.390 N 
HETATM   23  C14 UNL     1      29.123   0.886  53.823  1.00  0.00    -0.023 C 
HETATM   24  C15 UNL     1      28.568   0.271  55.057  1.00  0.00     0.047 C 
HETATM   25  C16 UNL     1      27.074   0.054  54.937  1.00  0.00     0.123 C 
HETATM   26  H22 UNL     1      25.567   1.612  54.729  1.00  0.00     0.159 HD
ENDBRANCH  15  19
ENDBRANCH   1  14
TORSDOF 7
ENDMDL
MODEL 6
REMARK VINA RESULT:      -7.0      2.989      5.600
REMARK  7 active torsions:
REMARK  status: ('A' for Active; 'I' for Inactive)
REMARK    1  A    between atoms: O1_2  and  C2_3 
REMARK    2  A    between atoms: C6_7  and  C7_8 
REMARK    3  A    between atoms: C7_8  and  C8_9 
REMARK    4  A    between atoms: C8_9  and  N1_10 
REMARK    5  A    between atoms: C8_9  and  C9_11 
REMARK    6  A    between atoms: C10_12  and  N2_13 
REMARK    7  A    between atoms: C10_12  and  C11_14 
ROOT
HETATM    1  C8  UNL     1      24.647   3.823  50.901  1.00  0.00     0.246 C 
ENDROOT
BRANCH   1   2
HETATM    2  C7  UNL     1      23.573   3.820  49.834  1.00  0.00     0.078 C 
BRANCH   2   3
HETATM    3  C6  UNL     1      22.575   2.726  50.087  1.00  0.00    -0.053 A 
HETATM    4  C5  UNL     1      22.263   1.733  49.180  1.00  0.00     0.007 A 
HETATM    5  C4  UNL     1      21.316   0.779  49.544  1.00  0.00     0.003 A 
HETATM    6  C3  UNL     1      20.713   0.841  50.786  1.00  0.00     0.037 A 
HETATM    7  C2  UNL     1      21.016   1.834  51.705  1.00  0.00     0.068 A 
HETATM    8  C17 UNL     1      21.943   2.756  51.331  1.00  0.00     0.044 A 
BRANCH   7   9
HETATM    9  O1  UNL     1      20.357   1.813  52.928  1.00  0.00    -0.356 OA
HETATM   10  C1  UNL     1      20.649   0.688  53.754  1.00  0.00     0.210 C 
ENDBRANCH   7   9
ENDBRANCH   2   3
ENDBRANCH   1   2
BRANCH   1  11
HETATM   11  N1  UNL     1      25.755   4.685  50.549  1.00  0.00     0.086 N 
HETATM   12  H10 UNL     1      26.640   4.322  50.914  1.00  0.00     0.313 HD
HETATM   13  H11 UNL     1      25.754   5.036  49.586  1.00  0.00     0.313 HD
ENDBRANCH   1  11
BRANCH   1  14
HETATM   14  C9  UNL     1      25.179   2.471  51.162  1.00  0.00     0.031 C 
HETATM   15  C10 UNL     1      25.573   1.970  52.319  1.00  0.00     0.006 C 
BRANCH  15  16
HETATM   16  N2  UNL     1      25.436   2.906  53.377  1.00  0.00    -0.303 NA
HETATM   17  H13 UNL     1      24.766   3.330  54.082  1.00  0.00     0.124 HD
HETATM   18  H14 UNL     1      24.739   3.298  54.058  1.00  0.00     0.124 HD
ENDBRANCH  15  16
BRANCH  15  19
HETATM   19  C11 UNL     1      26.069   0.605  52.369  1.00  0.00     0.052 C 
HETATM   20  C12 UNL     1      27.255   0.213  52.791  1.00  0.00     0.029 C 
HETATM   21  C13 UNL     1      27.623  -1.219  52.784  1.00  0.00     0.025 C 
HETATM   22  N3  UNL     1      28.276   1.077  53.280  1.00  0.00    -0.390 N 
HETATM   23  C14 UNL     1      28.786  -1.638  53.194  1.00  0.00    -0.023 C 
HETATM   24  C15 UNL     1      29.857  -0.743  53.707  1.00  0.00     0.047 C 
HETATM   25  C16 UNL     1      29.286   0.572  54.193  1.00  0.00     0.123 C 
HETATM   26  H22 UNL     1      28.275   2.061  52.966  1.00  0.00     0.159 HD
ENDBRANCH  15  19
ENDBRANCH   1  14
TORSDOF 7
ENDMDL
MODEL 7
REMARK VINA RESULT:      -7.0      4.320      7.527
REMARK  7 active torsions:
REMARK  status: ('A' for Active; 'I' for Inactive)
REMARK    1  A    between atoms: O1_2  and  C2_3 
REMARK    2  A    between atoms: C6_7  and  C7_8 
REMARK    3  A    between atoms: C7_8  and  C8_9 
REMARK    4  A    between atoms: C8_9  and  N1_10 
REMARK    5  A    between atoms: C8_9  and  C9_11 
REMARK    6  A    between atoms: C10_12  and  N2_13 
REMARK    7  A    between atoms: C10_12  and  C11_14 
ROOT
HETATM    1  C8  UNL     1      28.394   7.028  48.688  1.00  0.00     0.246 C 
ENDROOT
BRANCH   1   2
HETATM    2  C7  UNL     1      27.078   6.893  47.954  1.00  0.00     0.078 C 
BRANCH   2   3
HETATM    3  C6  UNL     1      26.227   5.824  48.578  1.00  0.00    -0.053 A 
HETATM    4  C5  UNL     1      24.847   5.854  48.618  1.00  0.00     0.007 A 
HETATM    5  C4  UNL     1      24.181   4.794  49.230  1.00  0.00     0.003 A 
HETATM    6  C3  UNL     1      24.899   3.748  49.777  1.00  0.00     0.037 A 
HETATM    7  C2  UNL     1      26.285   3.707  49.744  1.00  0.00     0.068 A 
HETATM    8  C17 UNL     1      26.916   4.751  49.143  1.00  0.00     0.044 A 
BRANCH   7   9
HETATM    9  O1  UNL     1      26.918   2.613  50.321  1.00  0.00    -0.356 OA
HETATM   10  C1  UNL     1      26.227   2.024  51.420  1.00  0.00     0.210 C 
ENDBRANCH   7   9
ENDBRANCH   2   3
ENDBRANCH   1   2
BRANCH   1  11
HETATM   11  N1  UNL     1      28.550   8.338  49.282  1.00  0.00     0.086 N 
HETATM   12  H10 UNL     1      28.307   8.328  50.277  1.00  0.00     0.313 HD
HETATM   13  H11 UNL     1      29.396   8.849  49.012  1.00  0.00     0.313 HD
ENDBRANCH   1  11
BRANCH   1  14
HETATM   14  C9  UNL     1      29.552   6.780  47.808  1.00  0.00     0.031 C 
HETATM   15  C10 UNL     1      30.683   6.167  48.116  1.00  0.00     0.006 C 
BRANCH  15  16
HETATM   16  N2  UNL     1      30.698   5.732  49.466  1.00  0.00    -0.303 NA
HETATM   17  H13 UNL     1      30.751   4.889  50.109  1.00  0.00     0.124 HD
HETATM   18  H14 UNL     1      30.753   4.870  50.064  1.00  0.00     0.124 HD
ENDBRANCH  15  16
BRANCH  15  19
HETATM   19  C11 UNL     1      31.709   6.020  47.099  1.00  0.00     0.052 C 
HETATM   20  C12 UNL     1      32.679   5.126  47.083  1.00  0.00     0.029 C 
HETATM   21  C13 UNL     1      33.659   5.096  45.975  1.00  0.00     0.025 C 
HETATM   22  N3  UNL     1      32.891   4.131  48.079  1.00  0.00    -0.390 N 
HETATM   23  C14 UNL     1      34.627   4.226  45.930  1.00  0.00    -0.023 C 
HETATM   24  C15 UNL     1      34.854   3.183  46.964  1.00  0.00     0.047 C 
HETATM   25  C16 UNL     1      33.589   2.902  47.747  1.00  0.00     0.123 C 
HETATM   26  H22 UNL     1      32.538   4.311  49.032  1.00  0.00     0.159 HD
ENDBRANCH  15  19
ENDBRANCH   1  14
TORSDOF 7
ENDMDL
MODEL 8
REMARK VINA RESULT:      -6.9      2.135      2.748
REMARK  7 active torsions:
REMARK  status: ('A' for Active; 'I' for Inactive)
REMARK    1  A    between atoms: O1_2  and  C2_3 
REMARK    2  A    between atoms: C6_7  and  C7_8 
REMARK    3  A    between atoms: C7_8  and  C8_9 
REMARK    4  A    between atoms: C8_9  and  N1_10 
REMARK    5  A    between atoms: C8_9  and  C9_11 
REMARK    6  A    between atoms: C10_12  and  N2_13 
REMARK    7  A    between atoms: C10_12  and  C11_14 
ROOT
HETATM    1  C8  UNL     1      23.342   4.308  52.172  1.00  0.00     0.246 C 
ENDROOT
BRANCH   1   2
HETATM    2  C7  UNL     1      22.966   2.861  51.934  1.00  0.00     0.078 C 
BRANCH   2   3
HETATM    3  C6  UNL     1      23.902   1.941  52.663  1.00  0.00    -0.053 A 
HETATM    4  C5  UNL     1      23.660   0.599  52.880  1.00  0.00     0.007 A 
HETATM    5  C4  UNL     1      24.616  -0.142  53.573  1.00  0.00     0.003 A 
HETATM    6  C3  UNL     1      25.770   0.469  54.024  1.00  0.00     0.037 A 
HETATM    7  C2  UNL     1      26.025   1.815  53.813  1.00  0.00     0.068 A 
HETATM    8  C17 UNL     1      25.080   2.520  53.135  1.00  0.00     0.044 A 
BRANCH   7   9
HETATM    9  O1  UNL     1      27.214   2.338  54.305  1.00  0.00    -0.356 OA
HETATM   10  C1  UNL     1      28.323   2.266  53.411  1.00  0.00     0.210 C 
ENDBRANCH   7   9
ENDBRANCH   2   3
ENDBRANCH   1   2
BRANCH   1  11
HETATM   11  N1  UNL     1      22.205   5.100  52.588  1.00  0.00     0.086 N 
HETATM   12  H10 UNL     1      21.369   4.519  52.706  1.00  0.00     0.313 HD
HETATM   13  H11 UNL     1      22.394   5.800  53.312  1.00  0.00     0.313 HD
ENDBRANCH   1  11
BRANCH   1  14
HETATM   14  C9  UNL     1      23.929   4.937  50.973  1.00  0.00     0.031 C 
HETATM   15  C10 UNL     1      24.498   6.126  50.883  1.00  0.00     0.006 C 
BRANCH  15  16
HETATM   16  N2  UNL     1      24.503   6.807  52.128  1.00  0.00    -0.303 NA
HETATM   17  H13 UNL     1      24.551   7.755  52.602  1.00  0.00     0.124 HD
HETATM   18  H14 UNL     1      24.554   7.765  52.555  1.00  0.00     0.124 HD
ENDBRANCH  15  16
BRANCH  15  19
HETATM   19  C11 UNL     1      25.021   6.567  49.602  1.00  0.00     0.052 C 
HETATM   20  C12 UNL     1      25.792   7.615  49.384  1.00  0.00     0.029 C 
HETATM   21  C13 UNL     1      26.250   7.944  48.017  1.00  0.00     0.025 C 
HETATM   22  N3  UNL     1      26.254   8.512  50.388  1.00  0.00    -0.390 N 
HETATM   23  C14 UNL     1      27.012   8.971  47.770  1.00  0.00    -0.023 C 
HETATM   24  C15 UNL     1      27.500   9.912  48.812  1.00  0.00     0.047 C 
HETATM   25  C16 UNL     1      27.475   9.272  50.184  1.00  0.00     0.123 C 
HETATM   26  H22 UNL     1      25.700   8.605  51.253  1.00  0.00     0.159 HD
ENDBRANCH  15  19
ENDBRANCH   1  14
TORSDOF 7
ENDMDL
MODEL 9
REMARK VINA RESULT:      -6.8      1.629      2.876
REMARK  7 active torsions:
REMARK  status: ('A' for Active; 'I' for Inactive)
REMARK    1  A    between atoms: O1_2  and  C2_3 
REMARK    2  A    between atoms: C6_7  and  C7_8 
REMARK    3  A    between atoms: C7_8  and  C8_9 
REMARK    4  A    between atoms: C8_9  and  N1_10 
REMARK    5  A    between atoms: C8_9  and  C9_11 
REMARK    6  A    between atoms: C10_12  and  N2_13 
REMARK    7  A    between atoms: C10_12  and  C11_14 
ROOT
HETATM    1  C8  UNL     1      24.167   4.333  51.971  1.00  0.00     0.246 C 
ENDROOT
BRANCH   1   2
HETATM    2  C7  UNL     1      23.075   3.359  51.585  1.00  0.00     0.078 C 
BRANCH   2   3
HETATM    3  C6  UNL     1      23.294   2.026  52.241  1.00  0.00    -0.053 A 
HETATM    4  C5  UNL     1      24.535   1.463  52.462  1.00  0.00     0.007 A 
HETATM    5  C4  UNL     1      24.595   0.216  53.082  1.00  0.00     0.003 A 
HETATM    6  C3  UNL     1      23.430  -0.425  53.459  1.00  0.00     0.037 A 
HETATM    7  C2  UNL     1      22.178   0.129  53.242  1.00  0.00     0.068 A 
HETATM    8  C17 UNL     1      22.141   1.345  52.635  1.00  0.00     0.044 A 
BRANCH   7   9
HETATM    9  O1  UNL     1      21.066  -0.593  53.656  1.00  0.00    -0.356 OA
HETATM   10  C1  UNL     1      21.335  -1.642  54.582  1.00  0.00     0.210 C 
ENDBRANCH   7   9
ENDBRANCH   2   3
ENDBRANCH   1   2
BRANCH   1  11
HETATM   11  N1  UNL     1      23.771   5.178  53.077  1.00  0.00     0.086 N 
HETATM   12  H10 UNL     1      24.495   5.210  53.800  1.00  0.00     0.313 HD
HETATM   13  H11 UNL     1      23.328   6.065  52.819  1.00  0.00     0.313 HD
ENDBRANCH   1  11
BRANCH   1  14
HETATM   14  C9  UNL     1      24.565   5.201  50.846  1.00  0.00     0.031 C 
HETATM   15  C10 UNL     1      25.638   5.090  50.082  1.00  0.00     0.006 C 
BRANCH  15  16
HETATM   16  N2  UNL     1      26.443   3.982  50.457  1.00  0.00    -0.303 NA
HETATM   17  H13 UNL     1      27.273   3.378  50.188  1.00  0.00     0.124 HD
HETATM   18  H14 UNL     1      27.269   3.410  50.152  1.00  0.00     0.124 HD
ENDBRANCH  15  16
BRANCH  15  19
HETATM   19  C11 UNL     1      25.852   6.052  49.016  1.00  0.00     0.052 C 
HETATM   20  C12 UNL     1      27.014   6.434  48.522  1.00  0.00     0.029 C 
HETATM   21  C13 UNL     1      27.078   7.429  47.429  1.00  0.00     0.025 C 
HETATM   22  N3  UNL     1      28.284   5.960  48.958  1.00  0.00    -0.390 N 
HETATM   23  C14 UNL     1      28.210   7.826  46.920  1.00  0.00    -0.023 C 
HETATM   24  C15 UNL     1      29.539   7.336  47.368  1.00  0.00     0.047 C 
HETATM   25  C16 UNL     1      29.424   5.993  48.059  1.00  0.00     0.123 C 
HETATM   26  H22 UNL     1      28.366   5.598  49.920  1.00  0.00     0.159 HD
ENDBRANCH  15  19
ENDBRANCH   1  14
TORSDOF 7
ENDMDL
