MODEL 1
REMARK VINA RESULT:      -6.8      0.000      0.000
REMARK  6 active torsions:
REMARK  status: ('A' for Active; 'I' for Inactive)
REMARK    1  A    between atoms: C2_2  and  C3_3 
REMARK    2  A    between atoms: C3_3  and  C4_4 
REMARK    3  A    between atoms: C9_10  and  S1_11 
REMARK    4  A    between atoms: S1_11  and  C10_12 
REMARK    5  A    between atoms: C10_12  and  C11_13 
REMARK    6  A    between atoms: C11_13  and  O1_14 
ROOT
HETATM    1  C4  UNL     1      27.008   0.474  54.182  1.00  0.00     0.082 C 
HETATM    2  C5  UNL     1      26.772   1.727  53.809  1.00  0.00     0.122 C 
HETATM    3  N1  UNL     1      25.608   2.179  53.086  1.00  0.00    -0.348 N 
HETATM    4  C6  UNL     1      24.380   1.477  52.933  1.00  0.00     0.136 C 
HETATM    5  C7  UNL     1      23.290   2.171  52.652  1.00  0.00    -0.005 A 
HETATM    6  C8  UNL     1      22.019   1.430  52.495  1.00  0.00     0.050 A 
HETATM    7  C9  UNL     1      20.911   2.098  52.213  1.00  0.00     0.093 A 
HETATM    8  N2  UNL     1      20.958   3.493  52.069  1.00  0.00    -0.258 NA
HETATM    9  C12 UNL     1      22.061   4.172  52.202  1.00  0.00     0.095 A 
HETATM   10  C13 UNL     1      23.418   3.632  52.515  1.00  0.00     0.089 A 
HETATM   11  N3  UNL     1      24.232   0.048  53.062  1.00  0.00    -0.207 NA
HETATM   12  C14 UNL     1      25.089  -0.836  53.356  1.00  0.00     0.200 C 
HETATM   13  N4  UNL     1      26.172  -0.677  53.949  1.00  0.00    -0.224 NA
HETATM   14  H5  UNL     1      25.632   3.108  52.616  1.00  0.00     0.167 HD
ENDROOT
BRANCH   1  15
HETATM   15  C3  UNL     1      28.255   0.292  54.897  1.00  0.00     0.083 C 
BRANCH  15  16
HETATM   16  C2  UNL     1      29.266  -0.277  54.297  1.00  0.00    -0.153 C 
HETATM   17  C1  UNL     1      30.129  -0.897  53.510  1.00  0.00     0.096 C 
ENDBRANCH  15  16
ENDBRANCH   1  15
BRANCH   7  18
HETATM   18  S1  UNL     1      19.328   1.330  52.001  1.00  0.00    -0.108 SA
BRANCH  18  19
HETATM   19  C10 UNL     1      19.326  -0.272  52.850  1.00  0.00     0.107 C 
BRANCH  19  20
HETATM   20  C11 UNL     1      17.912  -0.814  52.810  1.00  0.00     0.174 C 
BRANCH  20  21
HETATM   21  O1  UNL     1      17.595  -1.340  54.049  1.00  0.00    -0.400 OA
HETATM   22  H11 UNL     1      16.720  -1.797  54.007  1.00  0.00     0.209 HD
ENDBRANCH  20  21
ENDBRANCH  19  20
ENDBRANCH  18  19
ENDBRANCH   7  18
TORSDOF 6
ENDMDL
MODEL 2
REMARK VINA RESULT:      -6.7      1.916      2.622
REMARK  6 active torsions:
REMARK  status: ('A' for Active; 'I' for Inactive)
REMARK    1  A    between atoms: C2_2  and  C3_3 
REMARK    2  A    between atoms: C3_3  and  C4_4 
REMARK    3  A    between atoms: C9_10  and  S1_11 
REMARK    4  A    between atoms: S1_11  and  C10_12 
REMARK    5  A    between atoms: C10_12  and  C11_13 
REMARK    6  A    between atoms: C11_13  and  O1_14 
ROOT
HETATM    1  C4  UNL     1      27.549   0.705  53.347  1.00  0.00     0.082 C 
HETATM    2  C5  UNL     1      26.874   0.069  54.299  1.00  0.00     0.122 C 
HETATM    3  N1  UNL     1      25.437   0.059  54.441  1.00  0.00    -0.348 N 
HETATM    4  C6  UNL     1      24.485   0.423  53.448  1.00  0.00     0.136 C 
HETATM    5  C7  UNL     1      23.255  -0.052  53.554  1.00  0.00    -0.005 A 
HETATM    6  C8  UNL     1      22.274   0.333  52.515  1.00  0.00     0.050 A 
HETATM    7  C9  UNL     1      21.034  -0.126  52.594  1.00  0.00     0.093 A 
HETATM    8  N2  UNL     1      20.671  -0.969  53.656  1.00  0.00    -0.258 NA
HETATM    9  C12 UNL     1      21.513  -1.324  54.584  1.00  0.00     0.095 A 
HETATM   10  C13 UNL     1      22.949  -0.929  54.696  1.00  0.00     0.089 A 
HETATM   11  N3  UNL     1      24.763   1.280  52.322  1.00  0.00    -0.207 NA
HETATM   12  C14 UNL     1      25.845   1.833  51.966  1.00  0.00     0.200 C 
HETATM   13  N4  UNL     1      27.004   1.502  52.277  1.00  0.00    -0.224 NA
HETATM   14  H5  UNL     1      25.020  -0.238  55.347  1.00  0.00     0.167 HD
ENDROOT
BRANCH   1  15
HETATM   15  C3  UNL     1      28.986   0.551  53.436  1.00  0.00     0.083 C 
BRANCH  15  16
HETATM   16  C2  UNL     1      29.505  -0.647  53.474  1.00  0.00    -0.153 C 
HETATM   17  C1  UNL     1      29.802  -1.936  53.471  1.00  0.00     0.096 C 
ENDBRANCH  15  16
ENDBRANCH   1  15
BRANCH   7  18
HETATM   18  S1  UNL     1      19.766   0.259  51.417  1.00  0.00    -0.108 SA
BRANCH  18  19
HETATM   19  C10 UNL     1      18.185   0.442  52.286  1.00  0.00     0.107 C 
BRANCH  19  20
HETATM   20  C11 UNL     1      17.599  -0.941  52.474  1.00  0.00     0.174 C 
BRANCH  20  21
HETATM   21  O1  UNL     1      17.470  -1.197  53.826  1.00  0.00    -0.400 OA
HETATM   22  H11 UNL     1      16.545  -1.005  54.118  1.00  0.00     0.209 HD
ENDBRANCH  20  21
ENDBRANCH  19  20
ENDBRANCH  18  19
ENDBRANCH   7  18
TORSDOF 6
ENDMDL
MODEL 3
REMARK VINA RESULT:      -6.6      2.246      2.944
REMARK  6 active torsions:
REMARK  status: ('A' for Active; 'I' for Inactive)
REMARK    1  A    between atoms: C2_2  and  C3_3 
REMARK    2  A    between atoms: C3_3  and  C4_4 
REMARK    3  A    between atoms: C9_10  and  S1_11 
REMARK    4  A    between atoms: S1_11  and  C10_12 
REMARK    5  A    between atoms: C10_12  and  C11_13 
REMARK    6  A    between atoms: C11_13  and  O1_14 
ROOT
HETATM    1  C4  UNL     1      27.816   1.112  53.380  1.00  0.00     0.082 C 
HETATM    2  C5  UNL     1      26.850   0.541  54.091  1.00  0.00     0.122 C 
HETATM    3  N1  UNL     1      25.434   0.708  53.865  1.00  0.00    -0.348 N 
HETATM    4  C6  UNL     1      24.819   1.215  52.687  1.00  0.00     0.136 C 
HETATM    5  C7  UNL     1      23.557   0.896  52.450  1.00  0.00    -0.005 A 
HETATM    6  C8  UNL     1      22.928   1.430  51.221  1.00  0.00     0.050 A 
HETATM    7  C9  UNL     1      21.666   1.128  50.957  1.00  0.00     0.093 A 
HETATM    8  N2  UNL     1      20.947   0.309  51.842  1.00  0.00    -0.258 NA
HETATM    9  C12 UNL     1      21.475  -0.175  52.930  1.00  0.00     0.095 A 
HETATM   10  C13 UNL     1      22.869   0.034  53.424  1.00  0.00     0.089 A 
HETATM   11  N3  UNL     1      25.474   2.061  51.719  1.00  0.00    -0.207 NA
HETATM   12  C14 UNL     1      26.667   2.482  51.682  1.00  0.00     0.200 C 
HETATM   13  N4  UNL     1      27.661   2.001  52.256  1.00  0.00    -0.224 NA
HETATM   14  H5  UNL     1      24.766   0.440  54.617  1.00  0.00     0.167 HD
ENDROOT
BRANCH   1  15
HETATM   15  C3  UNL     1      29.155   0.776  53.820  1.00  0.00     0.083 C 
BRANCH  15  16
HETATM   16  C2  UNL     1      29.591  -0.447  53.682  1.00  0.00    -0.153 C 
HETATM   17  C1  UNL     1      29.805  -1.734  53.465  1.00  0.00     0.096 C 
ENDBRANCH  15  16
ENDBRANCH   1  15
BRANCH   7  18
HETATM   18  S1  UNL     1      20.797   1.702  49.523  1.00  0.00    -0.108 SA
BRANCH  18  19
HETATM   19  C10 UNL     1      19.274   2.536  50.046  1.00  0.00     0.107 C 
BRANCH  19  20
HETATM   20  C11 UNL     1      19.654   3.606  51.047  1.00  0.00     0.174 C 
BRANCH  20  21
HETATM   21  O1  UNL     1      19.369   3.152  52.322  1.00  0.00    -0.400 OA
HETATM   22  H11 UNL     1      18.981   2.245  52.276  1.00  0.00     0.209 HD
ENDBRANCH  20  21
ENDBRANCH  19  20
ENDBRANCH  18  19
ENDBRANCH   7  18
TORSDOF 6
ENDMDL
MODEL 4
REMARK VINA RESULT:      -6.6      2.274      3.144
REMARK  6 active torsions:
REMARK  status: ('A' for Active; 'I' for Inactive)
REMARK    1  A    between atoms: C2_2  and  C3_3 
REMARK    2  A    between atoms: C3_3  and  C4_4 
REMARK    3  A    between atoms: C9_10  and  S1_11 
REMARK    4  A    between atoms: S1_11  and  C10_12 
REMARK    5  A    between atoms: C10_12  and  C11_13 
REMARK    6  A    between atoms: C11_13  and  O1_14 
ROOT
HETATM    1  C4  UNL     1      27.299   0.559  53.337  1.00  0.00     0.082 C 
HETATM    2  C5  UNL     1      26.643  -0.137  54.259  1.00  0.00     0.122 C 
HETATM    3  N1  UNL     1      25.211  -0.149  54.436  1.00  0.00    -0.348 N 
HETATM    4  C6  UNL     1      24.237   0.288  53.494  1.00  0.00     0.136 C 
HETATM    5  C7  UNL     1      23.007  -0.186  53.598  1.00  0.00    -0.005 A 
HETATM    6  C8  UNL     1      22.003   0.275  52.613  1.00  0.00     0.050 A 
HETATM    7  C9  UNL     1      20.762  -0.182  52.691  1.00  0.00     0.093 A 
HETATM    8  N2  UNL     1      20.420  -1.094  53.702  1.00  0.00    -0.258 NA
HETATM    9  C12 UNL     1      21.282  -1.517  54.582  1.00  0.00     0.095 A 
HETATM   10  C13 UNL     1      22.723  -1.138  54.685  1.00  0.00     0.089 A 
HETATM   11  N3  UNL     1      24.493   1.218  52.423  1.00  0.00    -0.207 NA
HETATM   12  C14 UNL     1      25.570   1.788  52.079  1.00  0.00     0.200 C 
HETATM   13  N4  UNL     1      26.735   1.431  52.338  1.00  0.00    -0.224 NA
HETATM   14  H5  UNL     1      24.814  -0.505  55.329  1.00  0.00     0.167 HD
ENDROOT
BRANCH   1  15
HETATM   15  C3  UNL     1      28.738   0.391  53.378  1.00  0.00     0.083 C 
BRANCH  15  16
HETATM   16  C2  UNL     1      29.243  -0.803  53.538  1.00  0.00    -0.153 C 
HETATM   17  C1  UNL     1      29.793  -2.003  53.458  1.00  0.00     0.096 C 
ENDBRANCH  15  16
ENDBRANCH   1  15
BRANCH   7  18
HETATM   18  S1  UNL     1      19.469   0.290  51.576  1.00  0.00    -0.108 SA
BRANCH  18  19
HETATM   19  C10 UNL     1      19.861   1.912  50.864  1.00  0.00     0.107 C 
BRANCH  19  20
HETATM   20  C11 UNL     1      19.177   2.965  51.711  1.00  0.00     0.174 C 
BRANCH  20  21
HETATM   21  O1  UNL     1      20.044   3.375  52.707  1.00  0.00    -0.400 OA
HETATM   22  H11 UNL     1      20.393   2.589  53.194  1.00  0.00     0.209 HD
ENDBRANCH  20  21
ENDBRANCH  19  20
ENDBRANCH  18  19
ENDBRANCH   7  18
TORSDOF 6
ENDMDL
MODEL 5
REMARK VINA RESULT:      -6.5      3.071      4.406
REMARK  6 active torsions:
REMARK  status: ('A' for Active; 'I' for Inactive)
REMARK    1  A    between atoms: C2_2  and  C3_3 
REMARK    2  A    between atoms: C3_3  and  C4_4 
REMARK    3  A    between atoms: C9_10  and  S1_11 
REMARK    4  A    between atoms: S1_11  and  C10_12 
REMARK    5  A    between atoms: C10_12  and  C11_13 
REMARK    6  A    between atoms: C11_13  and  O1_14 
ROOT
HETATM    1  C4  UNL     1      26.810  -0.397  53.044  1.00  0.00     0.082 C 
HETATM    2  C5  UNL     1      25.536  -0.720  53.243  1.00  0.00     0.122 C 
HETATM    3  N1  UNL     1      24.441   0.216  53.337  1.00  0.00    -0.348 N 
HETATM    4  C6  UNL     1      24.451   1.576  52.916  1.00  0.00     0.136 C 
HETATM    5  C7  UNL     1      23.294   2.158  52.648  1.00  0.00    -0.005 A 
HETATM    6  C8  UNL     1      23.316   3.572  52.211  1.00  0.00     0.050 A 
HETATM    7  C9  UNL     1      22.173   4.182  51.936  1.00  0.00     0.093 A 
HETATM    8  N2  UNL     1      20.963   3.481  52.061  1.00  0.00    -0.258 NA
HETATM    9  C12 UNL     1      20.913   2.237  52.442  1.00  0.00     0.095 A 
HETATM   10  C13 UNL     1      22.066   1.359  52.803  1.00  0.00     0.089 A 
HETATM   11  N3  UNL     1      25.640   2.376  52.757  1.00  0.00    -0.207 NA
HETATM   12  C14 UNL     1      26.857   2.065  52.909  1.00  0.00     0.200 C 
HETATM   13  N4  UNL     1      27.359   0.925  52.883  1.00  0.00    -0.224 NA
HETATM   14  H5  UNL     1      23.539  -0.099  53.748  1.00  0.00     0.167 HD
ENDROOT
BRANCH   1  15
HETATM   15  C3  UNL     1      27.707  -1.533  52.991  1.00  0.00     0.083 C 
BRANCH  15  16
HETATM   16  C2  UNL     1      28.954  -1.387  53.353  1.00  0.00    -0.153 C 
HETATM   17  C1  UNL     1      30.179  -1.004  53.668  1.00  0.00     0.096 C 
ENDBRANCH  15  16
ENDBRANCH   1  15
BRANCH   7  18
HETATM   18  S1  UNL     1      22.063   5.869  51.404  1.00  0.00    -0.108 SA
BRANCH  18  19
HETATM   19  C10 UNL     1      23.283   6.160  50.094  1.00  0.00     0.107 C 
BRANCH  19  20
HETATM   20  C11 UNL     1      24.549   6.672  50.748  1.00  0.00     0.174 C 
BRANCH  20  21
HETATM   21  O1  UNL     1      24.294   6.935  52.082  1.00  0.00    -0.400 OA
HETATM   22  H11 UNL     1      23.331   7.117  52.209  1.00  0.00     0.209 HD
ENDBRANCH  20  21
ENDBRANCH  19  20
ENDBRANCH  18  19
ENDBRANCH   7  18
TORSDOF 6
ENDMDL
MODEL 6
REMARK VINA RESULT:      -6.4      3.740      7.703
REMARK  6 active torsions:
REMARK  status: ('A' for Active; 'I' for Inactive)
REMARK    1  A    between atoms: C2_2  and  C3_3 
REMARK    2  A    between atoms: C3_3  and  C4_4 
REMARK    3  A    between atoms: C9_10  and  S1_11 
REMARK    4  A    between atoms: S1_11  and  C10_12 
REMARK    5  A    between atoms: C10_12  and  C11_13 
REMARK    6  A    between atoms: C11_13  and  O1_14 
ROOT
HETATM    1  C4  UNL     1      19.577   0.226  51.824  1.00  0.00     0.082 C 
HETATM    2  C5  UNL     1      20.284   1.078  51.089  1.00  0.00     0.122 C 
HETATM    3  N1  UNL     1      21.593   1.585  51.425  1.00  0.00    -0.348 N 
HETATM    4  C6  UNL     1      22.492   1.041  52.385  1.00  0.00     0.136 C 
HETATM    5  C7  UNL     1      23.780   1.317  52.266  1.00  0.00    -0.005 A 
HETATM    6  C8  UNL     1      24.705   0.745  53.271  1.00  0.00     0.050 A 
HETATM    7  C9  UNL     1      26.000   1.004  53.179  1.00  0.00     0.093 A 
HETATM    8  N2  UNL     1      26.475   1.811  52.133  1.00  0.00    -0.258 NA
HETATM    9  C12 UNL     1      25.685   2.327  51.236  1.00  0.00     0.095 A 
HETATM   10  C13 UNL     1      24.203   2.172  51.145  1.00  0.00     0.089 A 
HETATM   11  N3  UNL     1      22.100   0.202  53.490  1.00  0.00    -0.207 NA
HETATM   12  C14 UNL     1      20.958  -0.239  53.813  1.00  0.00     0.200 C 
HETATM   13  N4  UNL     1      19.957  -0.363  53.083  1.00  0.00    -0.224 NA
HETATM   14  H5  UNL     1      21.950   2.431  50.936  1.00  0.00     0.167 HD
ENDROOT
BRANCH   1  15
HETATM   15  C3  UNL     1      18.290  -0.121  51.255  1.00  0.00     0.083 C 
BRANCH  15  16
HETATM   16  C2  UNL     1      17.349  -0.589  52.030  1.00  0.00    -0.153 C 
HETATM   17  C1  UNL     1      16.454  -1.279  52.717  1.00  0.00     0.096 C 
ENDBRANCH  15  16
ENDBRANCH   1  15
BRANCH   7  18
HETATM   18  S1  UNL     1      27.210   0.382  54.315  1.00  0.00    -0.108 SA
BRANCH  18  19
HETATM   19  C10 UNL     1      28.867   0.773  53.690  1.00  0.00     0.107 C 
BRANCH  19  20
HETATM   20  C11 UNL     1      29.199   2.188  54.116  1.00  0.00     0.174 C 
BRANCH  20  21
HETATM   21  O1  UNL     1      29.022   3.036  53.039  1.00  0.00    -0.400 OA
HETATM   22  H11 UNL     1      29.733   3.723  53.032  1.00  0.00     0.209 HD
ENDBRANCH  20  21
ENDBRANCH  19  20
ENDBRANCH  18  19
ENDBRANCH   7  18
TORSDOF 6
ENDMDL
MODEL 7
REMARK VINA RESULT:      -6.3      2.671      4.362
REMARK  6 active torsions:
REMARK  status: ('A' for Active; 'I' for Inactive)
REMARK    1  A    between atoms: C2_2  and  C3_3 
REMARK    2  A    between atoms: C3_3  and  C4_4 
REMARK    3  A    between atoms: C9_10  and  S1_11 
REMARK    4  A    between atoms: S1_11  and  C10_12 
REMARK    5  A    between atoms: C10_12  and  C11_13 
REMARK    6  A    between atoms: C11_13  and  O1_14 
ROOT
HETATM    1  C4  UNL     1      25.308   2.569  50.777  1.00  0.00     0.082 C 
HETATM    2  C5  UNL     1      25.603   1.862  51.862  1.00  0.00     0.122 C 
HETATM    3  N1  UNL     1      24.643   1.299  52.781  1.00  0.00    -0.348 N 
HETATM    4  C6  UNL     1      23.254   1.103  52.539  1.00  0.00     0.136 C 
HETATM    5  C7  UNL     1      22.614   0.196  53.259  1.00  0.00    -0.005 A 
HETATM    6  C8  UNL     1      21.170   0.001  52.999  1.00  0.00     0.050 A 
HETATM    7  C9  UNL     1      20.502  -0.900  53.703  1.00  0.00     0.093 A 
HETATM    8  N2  UNL     1      21.170  -1.653  54.681  1.00  0.00    -0.258 NA
HETATM    9  C12 UNL     1      22.439  -1.502  54.931  1.00  0.00     0.095 A 
HETATM   10  C13 UNL     1      23.382  -0.554  54.266  1.00  0.00     0.089 A 
HETATM   11  N3  UNL     1      22.483   1.825  51.558  1.00  0.00    -0.207 NA
HETATM   12  C14 UNL     1      22.846   2.706  50.725  1.00  0.00     0.200 C 
HETATM   13  N4  UNL     1      23.995   2.917  50.294  1.00  0.00    -0.224 NA
HETATM   14  H5  UNL     1      24.961   0.995  53.723  1.00  0.00     0.167 HD
ENDROOT
BRANCH   1  15
HETATM   15  C3  UNL     1      26.464   3.018  50.028  1.00  0.00     0.083 C 
BRANCH  15  16
HETATM   16  C2  UNL     1      26.486   4.229  49.540  1.00  0.00    -0.153 C 
HETATM   17  C1  UNL     1      26.298   5.392  48.938  1.00  0.00     0.096 C 
ENDBRANCH  15  16
ENDBRANCH   1  15
BRANCH   7  18
HETATM   18  S1  UNL     1      18.774  -1.230  53.489  1.00  0.00    -0.108 SA
BRANCH  18  19
HETATM   19  C10 UNL     1      18.157  -0.276  52.076  1.00  0.00     0.107 C 
BRANCH  19  20
HETATM   20  C11 UNL     1      16.644  -0.355  52.089  1.00  0.00     0.174 C 
BRANCH  20  21
HETATM   21  O1  UNL     1      16.220  -0.654  53.371  1.00  0.00    -0.400 OA
HETATM   22  H11 UNL     1      16.665  -1.478  53.689  1.00  0.00     0.209 HD
ENDBRANCH  20  21
ENDBRANCH  19  20
ENDBRANCH  18  19
ENDBRANCH   7  18
TORSDOF 6
ENDMDL
MODEL 8
REMARK VINA RESULT:      -6.3      3.418      5.605
REMARK  6 active torsions:
REMARK  status: ('A' for Active; 'I' for Inactive)
REMARK    1  A    between atoms: C2_2  and  C3_3 
REMARK    2  A    between atoms: C3_3  and  C4_4 
REMARK    3  A    between atoms: C9_10  and  S1_11 
REMARK    4  A    between atoms: S1_11  and  C10_12 
REMARK    5  A    between atoms: C10_12  and  C11_13 
REMARK    6  A    between atoms: C11_13  and  O1_14 
ROOT
HETATM    1  C4  UNL     1      25.447   5.243  49.754  1.00  0.00     0.082 C 
HETATM    2  C5  UNL     1      26.441   4.369  49.875  1.00  0.00     0.122 C 
HETATM    3  N1  UNL     1      26.512   3.314  50.857  1.00  0.00    -0.348 N 
HETATM    4  C6  UNL     1      25.432   2.805  51.633  1.00  0.00     0.136 C 
HETATM    5  C7  UNL     1      25.540   1.586  52.133  1.00  0.00    -0.005 A 
HETATM    6  C8  UNL     1      24.411   1.067  52.939  1.00  0.00     0.050 A 
HETATM    7  C9  UNL     1      24.489  -0.150  53.453  1.00  0.00     0.093 A 
HETATM    8  N2  UNL     1      25.635  -0.928  53.228  1.00  0.00    -0.258 NA
HETATM    9  C12 UNL     1      26.643  -0.498  52.524  1.00  0.00     0.095 A 
HETATM   10  C13 UNL     1      26.772   0.831  51.855  1.00  0.00     0.089 A 
HETATM   11  N3  UNL     1      24.217   3.526  51.917  1.00  0.00    -0.207 NA
HETATM   12  C14 UNL     1      23.844   4.676  51.540  1.00  0.00     0.200 C 
HETATM   13  N4  UNL     1      24.254   5.323  50.558  1.00  0.00    -0.224 NA
HETATM   14  H5  UNL     1      27.427   2.855  51.043  1.00  0.00     0.167 HD
ENDROOT
BRANCH   1  15
HETATM   15  C3  UNL     1      25.627   6.201  48.682  1.00  0.00     0.083 C 
BRANCH  15  16
HETATM   16  C2  UNL     1      26.834   6.564  48.337  1.00  0.00    -0.153 C 
HETATM   17  C1  UNL     1      27.963   7.158  47.989  1.00  0.00     0.096 C 
ENDBRANCH  15  16
ENDBRANCH   1  15
BRANCH   7  18
HETATM   18  S1  UNL     1      23.209  -0.887  54.434  1.00  0.00    -0.108 SA
BRANCH  18  19
HETATM   19  C10 UNL     1      21.611  -0.173  53.958  1.00  0.00     0.107 C 
BRANCH  19  20
HETATM   20  C11 UNL     1      20.583  -1.284  53.984  1.00  0.00     0.174 C 
BRANCH  20  21
HETATM   21  O1  UNL     1      19.317  -0.728  53.961  1.00  0.00    -0.400 OA
HETATM   22  H11 UNL     1      18.988  -0.603  54.884  1.00  0.00     0.209 HD
ENDBRANCH  20  21
ENDBRANCH  19  20
ENDBRANCH  18  19
ENDBRANCH   7  18
TORSDOF 6
ENDMDL
MODEL 9
REMARK VINA RESULT:      -6.1      3.807      8.612
REMARK  6 active torsions:
REMARK  status: ('A' for Active; 'I' for Inactive)
REMARK    1  A    between atoms: C2_2  and  C3_3 
REMARK    2  A    between atoms: C3_3  and  C4_4 
REMARK    3  A    between atoms: C9_10  and  S1_11 
REMARK    4  A    between atoms: S1_11  and  C10_12 
REMARK    5  A    between atoms: C10_12  and  C11_13 
REMARK    6  A    between atoms: C11_13  and  O1_14 
ROOT
HETATM    1  C4  UNL     1      16.919  -0.430  52.566  1.00  0.00     0.082 C 
HETATM    2  C5  UNL     1      17.549  -1.160  53.479  1.00  0.00     0.122 C 
HETATM    3  N1  UNL     1      18.977  -1.358  53.551  1.00  0.00    -0.348 N 
HETATM    4  C6  UNL     1      19.974  -0.578  52.902  1.00  0.00     0.136 C 
HETATM    5  C7  UNL     1      21.199  -0.585  53.401  1.00  0.00    -0.005 A 
HETATM    6  C8  UNL     1      22.229   0.231  52.717  1.00  0.00     0.050 A 
HETATM    7  C9  UNL     1      23.464   0.245  53.192  1.00  0.00     0.093 A 
HETATM    8  N2  UNL     1      23.779  -0.510  54.334  1.00  0.00    -0.258 NA
HETATM    9  C12 UNL     1      22.894  -1.236  54.956  1.00  0.00     0.095 A 
HETATM   10  C13 UNL     1      21.453  -1.401  54.599  1.00  0.00     0.089 A 
HETATM   11  N3  UNL     1      19.748   0.228  51.728  1.00  0.00    -0.207 NA
HETATM   12  C14 UNL     1      18.683   0.440  51.078  1.00  0.00     0.200 C 
HETATM   13  N4  UNL     1      17.511   0.304  51.476  1.00  0.00    -0.224 NA
HETATM   14  H5  UNL     1      19.352  -2.141  54.126  1.00  0.00     0.167 HD
ENDROOT
BRANCH   1  15
HETATM   15  C3  UNL     1      15.479  -0.398  52.723  1.00  0.00     0.083 C 
BRANCH  15  16
HETATM   16  C2  UNL     1      14.860   0.752  52.765  1.00  0.00    -0.153 C 
HETATM   17  C1  UNL     1      14.447   2.002  52.890  1.00  0.00     0.096 C 
ENDBRANCH  15  16
ENDBRANCH   1  15
BRANCH   7  18
HETATM   18  S1  UNL     1      24.786   1.177  52.468  1.00  0.00    -0.108 SA
BRANCH  18  19
HETATM   19  C10 UNL     1      25.695   2.036  53.781  1.00  0.00     0.107 C 
BRANCH  19  20
HETATM   20  C11 UNL     1      27.167   1.721  53.605  1.00  0.00     0.174 C 
BRANCH  20  21
HETATM   21  O1  UNL     1      27.915   2.779  54.089  1.00  0.00    -0.400 OA
HETATM   22  H11 UNL     1      28.375   2.512  54.922  1.00  0.00     0.209 HD
ENDBRANCH  20  21
ENDBRANCH  19  20
ENDBRANCH  18  19
ENDBRANCH   7  18
TORSDOF 6
ENDMDL
