MODEL 1
REMARK VINA RESULT:      -8.8      0.000      0.000
REMARK  5 active torsions:
REMARK  status: ('A' for Active; 'I' for Inactive)
REMARK    1  A    between atoms: C2_2  and  C4_4 
REMARK    2  A    between atoms: C6_6  and  C7_7 
REMARK    3  A    between atoms: C7_7  and  C8_8 
REMARK    4  A    between atoms: C17_19  and  C18_20 
REMARK    5  A    between atoms: C21_23  and  N2_24 
ROOT
HETATM    1  C4  UNL     1      25.817   0.164  53.555  1.00  0.00    -0.027 A 
HETATM    2  C5  UNL     1      25.536   0.978  52.478  1.00  0.00     0.021 A 
HETATM    3  C6  UNL     1      24.268   1.322  51.984  1.00  0.00    -0.034 A 
HETATM    4  C16 UNL     1      23.229   0.755  52.696  1.00  0.00     0.021 A 
HETATM    5  C17 UNL     1      23.423  -0.068  53.783  1.00  0.00    -0.027 A 
HETATM    6  C21 UNL     1      24.708  -0.351  54.196  1.00  0.00     0.039 A 
ENDROOT
BRANCH   3   7
HETATM    7  C7  UNL     1      24.213   2.211  50.836  1.00  0.00     0.029 C 
BRANCH   7   8
HETATM    8  C8  UNL     1      24.288   3.501  50.733  1.00  0.00     0.045 A 
HETATM    9  C9  UNL     1      23.422   4.554  51.237  1.00  0.00     0.257 A 
HETATM   10  O1  UNL     1      22.373   4.421  51.908  1.00  0.00    -0.267 OA
HETATM   11  N1  UNL     1      23.904   5.841  50.873  1.00  0.00    -0.322 N 
HETATM   12  C10 UNL     1      25.084   5.576  50.136  1.00  0.00     0.046 A 
HETATM   13  H10 UNL     1      23.474   6.776  51.102  1.00  0.00     0.169 HD
HETATM   14  C11 UNL     1      25.964   6.452  49.535  1.00  0.00     0.030 A 
HETATM   15  C15 UNL     1      25.328   4.228  50.041  1.00  0.00     0.006 A 
HETATM   16  C12 UNL     1      27.085   6.019  48.838  1.00  0.00     0.002 A 
HETATM   17  C13 UNL     1      27.351   4.669  48.730  1.00  0.00     0.001 A 
HETATM   18  C14 UNL     1      26.461   3.791  49.338  1.00  0.00     0.015 A 
ENDBRANCH   7   8
ENDBRANCH   3   7
BRANCH   1  19
HETATM   19  C2  UNL     1      27.214  -0.115  53.948  1.00  0.00     0.013 C 
HETATM   20  C1  UNL     1      27.873  -1.145  53.040  1.00  0.00     0.015 C 
HETATM   21  C3  UNL     1      28.015   1.154  53.895  1.00  0.00     0.015 C 
ENDBRANCH   1  19
BRANCH   5  22
HETATM   22  C18 UNL     1      22.274  -0.634  54.499  1.00  0.00     0.013 C 
HETATM   23  C19 UNL     1      21.828  -1.981  53.986  1.00  0.00     0.015 C 
HETATM   24  C20 UNL     1      21.095   0.333  54.591  1.00  0.00     0.015 C 
ENDBRANCH   5  22
BRANCH   6  25
HETATM   25  N2  UNL     1      25.007  -1.195  55.309  1.00  0.00    -0.398 N 
HETATM   26  H23 UNL     1      25.810  -0.975  55.940  1.00  0.00     0.156 HD
HETATM   27  H24 UNL     1      24.277  -1.923  55.232  1.00  0.00     0.156 HD
ENDBRANCH   6  25
TORSDOF 5
ENDMDL
MODEL 2
REMARK VINA RESULT:      -8.8      0.345      3.366
REMARK  5 active torsions:
REMARK  status: ('A' for Active; 'I' for Inactive)
REMARK    1  A    between atoms: C2_2  and  C4_4 
REMARK    2  A    between atoms: C6_6  and  C7_7 
REMARK    3  A    between atoms: C7_7  and  C8_8 
REMARK    4  A    between atoms: C17_19  and  C18_20 
REMARK    5  A    between atoms: C21_23  and  N2_24 
ROOT
HETATM    1  C4  UNL     1      23.399  -0.166  53.869  1.00  0.00    -0.027 A 
HETATM    2  C5  UNL     1      23.209   0.665  52.785  1.00  0.00     0.021 A 
HETATM    3  C6  UNL     1      24.199   1.246  51.978  1.00  0.00    -0.034 A 
HETATM    4  C16 UNL     1      25.484   0.911  52.360  1.00  0.00     0.021 A 
HETATM    5  C17 UNL     1      25.761   0.088  53.429  1.00  0.00    -0.027 A 
HETATM    6  C21 UNL     1      24.720  -0.436  54.165  1.00  0.00     0.039 A 
ENDROOT
BRANCH   3   7
HETATM    7  C7  UNL     1      23.761   2.084  50.875  1.00  0.00     0.029 C 
BRANCH   7   8
HETATM    8  C8  UNL     1      23.881   3.356  50.652  1.00  0.00     0.045 A 
HETATM    9  C9  UNL     1      22.987   4.466  50.936  1.00  0.00     0.257 A 
HETATM   10  O1  UNL     1      21.861   4.417  51.483  1.00  0.00    -0.267 OA
HETATM   11  N1  UNL     1      23.541   5.703  50.504  1.00  0.00    -0.322 N 
HETATM   12  C10 UNL     1      24.795   5.347  49.948  1.00  0.00     0.046 A 
HETATM   13  H10 UNL     1      23.110   6.661  50.583  1.00  0.00     0.169 HD
HETATM   14  C11 UNL     1      25.762   6.144  49.373  1.00  0.00     0.030 A 
HETATM   15  C15 UNL     1      25.014   3.994  50.021  1.00  0.00     0.006 A 
HETATM   16  C12 UNL     1      26.948   5.628  48.867  1.00  0.00     0.002 A 
HETATM   17  C13 UNL     1      27.191   4.270  48.930  1.00  0.00     0.001 A 
HETATM   18  C14 UNL     1      26.212   3.472  49.511  1.00  0.00     0.015 A 
ENDBRANCH   7   8
ENDBRANCH   3   7
BRANCH   1  19
HETATM   19  C2  UNL     1      22.246  -0.693  54.630  1.00  0.00     0.013 C 
HETATM   20  C1  UNL     1      21.090   0.297  54.680  1.00  0.00     0.015 C 
HETATM   21  C3  UNL     1      21.762  -1.964  53.995  1.00  0.00     0.015 C 
ENDBRANCH   1  19
BRANCH   5  22
HETATM   22  C18 UNL     1      27.149  -0.232  53.778  1.00  0.00     0.013 C 
HETATM   23  C19 UNL     1      28.078   0.957  53.772  1.00  0.00     0.015 C 
HETATM   24  C20 UNL     1      27.724  -1.377  52.946  1.00  0.00     0.015 C 
ENDBRANCH   5  22
BRANCH   6  25
HETATM   25  N2  UNL     1      24.909  -1.296  55.291  1.00  0.00    -0.398 N 
HETATM   26  H23 UNL     1      25.507  -2.150  55.212  1.00  0.00     0.156 HD
HETATM   27  H24 UNL     1      24.343  -0.828  56.018  1.00  0.00     0.156 HD
ENDBRANCH   6  25
TORSDOF 5
ENDMDL
MODEL 3
REMARK VINA RESULT:      -8.5      2.584      6.282
REMARK  5 active torsions:
REMARK  status: ('A' for Active; 'I' for Inactive)
REMARK    1  A    between atoms: C2_2  and  C4_4 
REMARK    2  A    between atoms: C6_6  and  C7_7 
REMARK    3  A    between atoms: C7_7  and  C8_8 
REMARK    4  A    between atoms: C17_19  and  C18_20 
REMARK    5  A    between atoms: C21_23  and  N2_24 
ROOT
HETATM    1  C4  UNL     1      22.811   0.805  52.447  1.00  0.00    -0.027 A 
HETATM    2  C5  UNL     1      23.976   0.936  53.173  1.00  0.00     0.021 A 
HETATM    3  C6  UNL     1      25.065   1.773  52.885  1.00  0.00    -0.034 A 
HETATM    4  C16 UNL     1      24.891   2.523  51.738  1.00  0.00     0.021 A 
HETATM    5  C17 UNL     1      23.760   2.453  50.956  1.00  0.00    -0.027 A 
HETATM    6  C21 UNL     1      22.740   1.599  51.319  1.00  0.00     0.039 A 
ENDROOT
BRANCH   3   7
HETATM    7  C7  UNL     1      26.190   1.753  53.804  1.00  0.00     0.029 C 
BRANCH   7   8
HETATM    8  C8  UNL     1      27.344   1.166  53.751  1.00  0.00     0.045 A 
HETATM    9  C9  UNL     1      28.684   1.663  54.011  1.00  0.00     0.257 A 
HETATM   10  O1  UNL     1      29.014   2.820  54.359  1.00  0.00    -0.267 OA
HETATM   11  N1  UNL     1      29.662   0.648  53.820  1.00  0.00    -0.322 N 
HETATM   12  C10 UNL     1      28.910  -0.491  53.438  1.00  0.00     0.046 A 
HETATM   13  H10 UNL     1      30.706   0.731  53.937  1.00  0.00     0.169 HD
HETATM   14  C11 UNL     1      29.337  -1.764  53.123  1.00  0.00     0.030 A 
HETATM   15  C15 UNL     1      27.566  -0.216  53.390  1.00  0.00     0.006 A 
HETATM   16  C12 UNL     1      28.457  -2.776  52.760  1.00  0.00     0.002 A 
HETATM   17  C13 UNL     1      27.101  -2.523  52.706  1.00  0.00     0.001 A 
HETATM   18  C14 UNL     1      26.677  -1.238  53.024  1.00  0.00     0.015 A 
ENDBRANCH   7   8
ENDBRANCH   3   7
BRANCH   1  19
HETATM   19  C2  UNL     1      21.753  -0.133  52.877  1.00  0.00     0.013 C 
HETATM   20  C1  UNL     1      22.326  -1.419  53.457  1.00  0.00     0.015 C 
HETATM   21  C3  UNL     1      20.892   0.521  53.918  1.00  0.00     0.015 C 
ENDBRANCH   1  19
BRANCH   5  22
HETATM   22  C18 UNL     1      23.637   3.282  49.752  1.00  0.00     0.013 C 
HETATM   23  C19 UNL     1      24.951   3.582  49.072  1.00  0.00     0.015 C 
HETATM   24  C20 UNL     1      22.841   4.564  49.990  1.00  0.00     0.015 C 
ENDBRANCH   5  22
BRANCH   6  25
HETATM   25  N2  UNL     1      21.531   1.457  50.572  1.00  0.00    -0.398 N 
HETATM   26  H23 UNL     1      20.695   0.996  50.997  1.00  0.00     0.156 HD
HETATM   27  H24 UNL     1      21.783   1.891  49.668  1.00  0.00     0.156 HD
ENDBRANCH   6  25
TORSDOF 5
ENDMDL
MODEL 4
REMARK VINA RESULT:      -8.5      2.770      6.109
REMARK  5 active torsions:
REMARK  status: ('A' for Active; 'I' for Inactive)
REMARK    1  A    between atoms: C2_2  and  C4_4 
REMARK    2  A    between atoms: C6_6  and  C7_7 
REMARK    3  A    between atoms: C7_7  and  C8_8 
REMARK    4  A    between atoms: C17_19  and  C18_20 
REMARK    5  A    between atoms: C21_23  and  N2_24 
ROOT
HETATM    1  C4  UNL     1      25.292   2.064  52.165  1.00  0.00    -0.027 A 
HETATM    2  C5  UNL     1      24.322   1.096  52.317  1.00  0.00     0.021 A 
HETATM    3  C6  UNL     1      24.494  -0.206  52.811  1.00  0.00    -0.034 A 
HETATM    4  C16 UNL     1      25.798  -0.488  53.170  1.00  0.00     0.021 A 
HETATM    5  C17 UNL     1      26.825   0.421  53.052  1.00  0.00    -0.027 A 
HETATM    6  C21 UNL     1      26.560   1.679  52.553  1.00  0.00     0.039 A 
ENDROOT
BRANCH   3   7
HETATM    7  C7  UNL     1      23.318  -1.055  52.893  1.00  0.00     0.029 C 
BRANCH   7   8
HETATM    8  C8  UNL     1      22.067  -0.786  53.105  1.00  0.00     0.045 A 
HETATM    9  C9  UNL     1      21.217  -1.033  54.256  1.00  0.00     0.257 A 
HETATM   10  O1  UNL     1      21.535  -1.585  55.335  1.00  0.00    -0.267 OA
HETATM   11  N1  UNL     1      19.893  -0.562  54.035  1.00  0.00    -0.322 N 
HETATM   12  C10 UNL     1      19.932  -0.016  52.728  1.00  0.00     0.046 A 
HETATM   13  H10 UNL     1      19.075  -0.613  54.698  1.00  0.00     0.169 HD
HETATM   14  C11 UNL     1      18.929   0.579  51.993  1.00  0.00     0.030 A 
HETATM   15  C15 UNL     1      21.179  -0.134  52.168  1.00  0.00     0.006 A 
HETATM   16  C12 UNL     1      19.137   1.064  50.707  1.00  0.00     0.002 A 
HETATM   17  C13 UNL     1      20.384   0.957  50.124  1.00  0.00     0.001 A 
HETATM   18  C14 UNL     1      21.390   0.355  50.870  1.00  0.00     0.015 A 
ENDBRANCH   7   8
ENDBRANCH   3   7
BRANCH   1  19
HETATM   19  C2  UNL     1      24.954   3.395  51.616  1.00  0.00     0.013 C 
HETATM   20  C1  UNL     1      24.757   3.360  50.106  1.00  0.00     0.015 C 
HETATM   21  C3  UNL     1      23.692   3.897  52.254  1.00  0.00     0.015 C 
ENDBRANCH   1  19
BRANCH   5  22
HETATM   22  C18 UNL     1      28.188   0.058  53.456  1.00  0.00     0.013 C 
HETATM   23  C19 UNL     1      28.570  -1.365  53.131  1.00  0.00     0.015 C 
HETATM   24  C20 UNL     1      28.480   0.380  54.921  1.00  0.00     0.015 C 
ENDBRANCH   5  22
BRANCH   6  25
HETATM   25  N2  UNL     1      27.560   2.687  52.391  1.00  0.00    -0.398 N 
HETATM   26  H23 UNL     1      28.515   2.436  52.050  1.00  0.00     0.156 HD
HETATM   27  H24 UNL     1      27.056   3.540  52.685  1.00  0.00     0.156 HD
ENDBRANCH   6  25
TORSDOF 5
ENDMDL
MODEL 5
REMARK VINA RESULT:      -8.5      2.803      5.938
REMARK  5 active torsions:
REMARK  status: ('A' for Active; 'I' for Inactive)
REMARK    1  A    between atoms: C2_2  and  C4_4 
REMARK    2  A    between atoms: C6_6  and  C7_7 
REMARK    3  A    between atoms: C7_7  and  C8_8 
REMARK    4  A    between atoms: C17_19  and  C18_20 
REMARK    5  A    between atoms: C21_23  and  N2_24 
ROOT
HETATM    1  C4  UNL     1      26.644   0.691  52.945  1.00  0.00    -0.027 A 
HETATM    2  C5  UNL     1      25.526  -0.106  53.071  1.00  0.00     0.021 A 
HETATM    3  C6  UNL     1      24.227   0.180  52.623  1.00  0.00    -0.034 A 
HETATM    4  C16 UNL     1      24.121   1.405  51.995  1.00  0.00     0.021 A 
HETATM    5  C17 UNL     1      25.187   2.261  51.827  1.00  0.00    -0.027 A 
HETATM    6  C21 UNL     1      26.428   1.894  52.302  1.00  0.00     0.039 A 
ENDROOT
BRANCH   3   7
HETATM    7  C7  UNL     1      23.200  -0.821  52.858  1.00  0.00     0.029 C 
BRANCH   7   8
HETATM    8  C8  UNL     1      21.930  -0.721  53.098  1.00  0.00     0.045 A 
HETATM    9  C9  UNL     1      21.141  -1.107  54.255  1.00  0.00     0.257 A 
HETATM   10  O1  UNL     1      21.549  -1.641  55.312  1.00  0.00    -0.267 OA
HETATM   11  N1  UNL     1      19.764  -0.804  54.070  1.00  0.00    -0.322 N 
HETATM   12  C10 UNL     1      19.707  -0.224  52.778  1.00  0.00     0.046 A 
HETATM   13  H10 UNL     1      18.972  -0.977  54.743  1.00  0.00     0.169 HD
HETATM   14  C11 UNL     1      18.621   0.257  52.076  1.00  0.00     0.030 A 
HETATM   15  C15 UNL     1      20.948  -0.165  52.195  1.00  0.00     0.006 A 
HETATM   16  C12 UNL     1      18.740   0.798  50.802  1.00  0.00     0.002 A 
HETATM   17  C13 UNL     1      19.979   0.868  50.196  1.00  0.00     0.001 A 
HETATM   18  C14 UNL     1      21.068   0.382  50.908  1.00  0.00     0.015 A 
ENDBRANCH   7   8
ENDBRANCH   3   7
BRANCH   1  19
HETATM   19  C2  UNL     1      27.950   0.253  53.481  1.00  0.00     0.013 C 
HETATM   20  C1  UNL     1      27.977   0.258  55.004  1.00  0.00     0.015 C 
HETATM   21  C3  UNL     1      28.252  -1.137  53.001  1.00  0.00     0.015 C 
ENDBRANCH   1  19
BRANCH   5  22
HETATM   22  C18 UNL     1      25.005   3.547  51.146  1.00  0.00     0.013 C 
HETATM   23  C19 UNL     1      23.842   4.359  51.658  1.00  0.00     0.015 C 
HETATM   24  C20 UNL     1      24.950   3.412  49.625  1.00  0.00     0.015 C 
ENDBRANCH   5  22
BRANCH   6  25
HETATM   25  N2  UNL     1      27.591   2.715  52.177  1.00  0.00    -0.398 N 
HETATM   26  H23 UNL     1      27.502   3.755  52.125  1.00  0.00     0.156 HD
HETATM   27  H24 UNL     1      28.350   2.013  52.161  1.00  0.00     0.156 HD
ENDBRANCH   6  25
TORSDOF 5
ENDMDL
MODEL 6
REMARK VINA RESULT:      -8.4      1.510      4.088
REMARK  5 active torsions:
REMARK  status: ('A' for Active; 'I' for Inactive)
REMARK    1  A    between atoms: C2_2  and  C4_4 
REMARK    2  A    between atoms: C6_6  and  C7_7 
REMARK    3  A    between atoms: C7_7  and  C8_8 
REMARK    4  A    between atoms: C17_19  and  C18_20 
REMARK    5  A    between atoms: C21_23  and  N2_24 
ROOT
HETATM    1  C4  UNL     1      23.387  -0.267  54.037  1.00  0.00    -0.027 A 
HETATM    2  C5  UNL     1      23.316   0.614  52.978  1.00  0.00     0.021 A 
HETATM    3  C6  UNL     1      24.390   1.155  52.254  1.00  0.00    -0.034 A 
HETATM    4  C16 UNL     1      25.624   0.719  52.694  1.00  0.00     0.021 A 
HETATM    5  C17 UNL     1      25.782  -0.159  53.743  1.00  0.00    -0.027 A 
HETATM    6  C21 UNL     1      24.667  -0.638  54.397  1.00  0.00     0.039 A 
ENDROOT
BRANCH   3   7
HETATM    7  C7  UNL     1      24.075   2.061  51.163  1.00  0.00     0.029 C 
BRANCH   7   8
HETATM    8  C8  UNL     1      24.505   3.249  50.869  1.00  0.00     0.045 A 
HETATM    9  C9  UNL     1      25.819   3.717  50.462  1.00  0.00     0.257 A 
HETATM   10  O1  UNL     1      26.856   3.034  50.304  1.00  0.00    -0.267 OA
HETATM   11  N1  UNL     1      25.826   5.123  50.247  1.00  0.00    -0.322 N 
HETATM   12  C10 UNL     1      24.495   5.523  50.524  1.00  0.00     0.046 A 
HETATM   13  H10 UNL     1      26.639   5.723  49.949  1.00  0.00     0.169 HD
HETATM   14  C11 UNL     1      23.926   6.779  50.481  1.00  0.00     0.030 A 
HETATM   15  C15 UNL     1      23.711   4.456  50.887  1.00  0.00     0.006 A 
HETATM   16  C12 UNL     1      22.590   7.001  50.790  1.00  0.00     0.002 A 
HETATM   17  C13 UNL     1      21.782   5.943  51.157  1.00  0.00     0.001 A 
HETATM   18  C14 UNL     1      22.362   4.681  51.199  1.00  0.00     0.015 A 
ENDBRANCH   7   8
ENDBRANCH   3   7
BRANCH   1  19
HETATM   19  C2  UNL     1      22.158  -0.742  54.708  1.00  0.00     0.013 C 
HETATM   20  C1  UNL     1      21.062   0.316  54.717  1.00  0.00     0.015 C 
HETATM   21  C3  UNL     1      21.640  -1.964  54.008  1.00  0.00     0.015 C 
ENDBRANCH   1  19
BRANCH   5  22
HETATM   22  C18 UNL     1      27.123  -0.586  54.158  1.00  0.00     0.013 C 
HETATM   23  C19 UNL     1      27.999   0.534  54.663  1.00  0.00     0.015 C 
HETATM   24  C20 UNL     1      27.845  -1.404  53.088  1.00  0.00     0.015 C 
ENDBRANCH   5  22
BRANCH   6  25
HETATM   25  N2  UNL     1      24.731  -1.549  55.496  1.00  0.00    -0.398 N 
HETATM   26  H23 UNL     1      23.859  -1.854  55.983  1.00  0.00     0.156 HD
HETATM   27  H24 UNL     1      25.747  -1.722  55.574  1.00  0.00     0.156 HD
ENDBRANCH   6  25
TORSDOF 5
ENDMDL
MODEL 7
REMARK VINA RESULT:      -8.3      2.157      6.700
REMARK  5 active torsions:
REMARK  status: ('A' for Active; 'I' for Inactive)
REMARK    1  A    between atoms: C2_2  and  C4_4 
REMARK    2  A    between atoms: C6_6  and  C7_7 
REMARK    3  A    between atoms: C7_7  and  C8_8 
REMARK    4  A    between atoms: C17_19  and  C18_20 
REMARK    5  A    between atoms: C21_23  and  N2_24 
ROOT
HETATM    1  C4  UNL     1      22.612   2.885  49.868  1.00  0.00    -0.027 A 
HETATM    2  C5  UNL     1      23.012   2.400  51.095  1.00  0.00     0.021 A 
HETATM    3  C6  UNL     1      24.212   2.679  51.766  1.00  0.00    -0.034 A 
HETATM    4  C16 UNL     1      25.040   3.541  51.074  1.00  0.00     0.021 A 
HETATM    5  C17 UNL     1      24.716   4.071  49.844  1.00  0.00    -0.027 A 
HETATM    6  C21 UNL     1      23.513   3.737  49.261  1.00  0.00     0.039 A 
ENDROOT
BRANCH   3   7
HETATM    7  C7  UNL     1      24.416   2.059  53.064  1.00  0.00     0.029 C 
BRANCH   7   8
HETATM    8  C8  UNL     1      25.200   1.103  53.456  1.00  0.00     0.045 A 
HETATM    9  C9  UNL     1      24.925  -0.283  53.792  1.00  0.00     0.257 A 
HETATM   10  O1  UNL     1      23.818  -0.867  53.772  1.00  0.00    -0.267 OA
HETATM   11  N1  UNL     1      26.110  -0.969  54.178  1.00  0.00    -0.322 N 
HETATM   12  C10 UNL     1      27.128   0.011  54.075  1.00  0.00     0.046 A 
HETATM   13  H10 UNL     1      26.202  -1.976  54.474  1.00  0.00     0.169 HD
HETATM   14  C11 UNL     1      28.479  -0.092  54.331  1.00  0.00     0.030 A 
HETATM   15  C15 UNL     1      26.626   1.219  53.659  1.00  0.00     0.006 A 
HETATM   16  C12 UNL     1      29.349   0.982  54.181  1.00  0.00     0.002 A 
HETATM   17  C13 UNL     1      28.867   2.206  53.763  1.00  0.00     0.001 A 
HETATM   18  C14 UNL     1      27.504   2.303  53.508  1.00  0.00     0.015 A 
ENDBRANCH   7   8
ENDBRANCH   3   7
BRANCH   1  19
HETATM   19  C2  UNL     1      21.314   2.487  49.283  1.00  0.00     0.013 C 
HETATM   20  C1  UNL     1      21.337   1.061  48.750  1.00  0.00     0.015 C 
HETATM   21  C3  UNL     1      20.238   2.592  50.325  1.00  0.00     0.015 C 
ENDBRANCH   1  19
BRANCH   5  22
HETATM   22  C18 UNL     1      25.640   4.985  49.165  1.00  0.00     0.013 C 
HETATM   23  C19 UNL     1      27.047   4.456  49.030  1.00  0.00     0.015 C 
HETATM   24  C20 UNL     1      25.641   6.389  49.768  1.00  0.00     0.015 C 
ENDBRANCH   5  22
BRANCH   6  25
HETATM   25  N2  UNL     1      23.092   4.235  47.989  1.00  0.00    -0.398 N 
HETATM   26  H23 UNL     1      23.377   5.189  47.672  1.00  0.00     0.156 HD
HETATM   27  H24 UNL     1      22.531   3.447  47.624  1.00  0.00     0.156 HD
ENDBRANCH   6  25
TORSDOF 5
ENDMDL
MODEL 8
REMARK VINA RESULT:      -8.3      1.508      3.734
REMARK  5 active torsions:
REMARK  status: ('A' for Active; 'I' for Inactive)
REMARK    1  A    between atoms: C2_2  and  C4_4 
REMARK    2  A    between atoms: C6_6  and  C7_7 
REMARK    3  A    between atoms: C7_7  and  C8_8 
REMARK    4  A    between atoms: C17_19  and  C18_20 
REMARK    5  A    between atoms: C21_23  and  N2_24 
ROOT
HETATM    1  C4  UNL     1      23.347   1.183  52.114  1.00  0.00    -0.027 A 
HETATM    2  C5  UNL     1      23.772   2.050  51.129  1.00  0.00     0.021 A 
HETATM    3  C6  UNL     1      25.097   2.357  50.784  1.00  0.00    -0.034 A 
HETATM    4  C16 UNL     1      26.032   1.685  51.548  1.00  0.00     0.021 A 
HETATM    5  C17 UNL     1      25.692   0.803  52.550  1.00  0.00    -0.027 A 
HETATM    6  C21 UNL     1      24.362   0.565  52.818  1.00  0.00     0.039 A 
ENDROOT
BRANCH   3   7
HETATM    7  C7  UNL     1      25.308   3.297  49.697  1.00  0.00     0.029 C 
BRANCH   7   8
HETATM    8  C8  UNL     1      25.426   4.588  49.677  1.00  0.00     0.045 A 
HETATM    9  C9  UNL     1      24.528   5.638  50.129  1.00  0.00     0.257 A 
HETATM   10  O1  UNL     1      23.401   5.502  50.656  1.00  0.00    -0.267 OA
HETATM   11  N1  UNL     1      25.081   6.928  49.900  1.00  0.00    -0.322 N 
HETATM   12  C10 UNL     1      26.338   6.666  49.300  1.00  0.00     0.046 A 
HETATM   13  H10 UNL     1      24.648   7.862  50.127  1.00  0.00     0.169 HD
HETATM   14  C11 UNL     1      27.306   7.546  48.862  1.00  0.00     0.030 A 
HETATM   15  C15 UNL     1      26.560   5.319  49.160  1.00  0.00     0.006 A 
HETATM   16  C12 UNL     1      28.495   7.117  48.286  1.00  0.00     0.002 A 
HETATM   17  C13 UNL     1      28.740   5.767  48.136  1.00  0.00     0.001 A 
HETATM   18  C14 UNL     1      27.761   4.886  48.579  1.00  0.00     0.015 A 
ENDBRANCH   7   8
ENDBRANCH   3   7
BRANCH   1  19
HETATM   19  C2  UNL     1      21.906   0.972  52.366  1.00  0.00     0.013 C 
HETATM   20  C1  UNL     1      21.150   2.286  52.513  1.00  0.00     0.015 C 
HETATM   21  C3  UNL     1      21.304   0.196  51.230  1.00  0.00     0.015 C 
ENDBRANCH   1  19
BRANCH   5  22
HETATM   22  C18 UNL     1      26.736   0.119  53.322  1.00  0.00     0.013 C 
HETATM   23  C19 UNL     1      27.968   0.955  53.571  1.00  0.00     0.015 C 
HETATM   24  C20 UNL     1      27.110  -1.243  52.740  1.00  0.00     0.015 C 
ENDBRANCH   5  22
BRANCH   6  25
HETATM   25  N2  UNL     1      23.913  -0.329  53.838  1.00  0.00    -0.398 N 
HETATM   26  H23 UNL     1      23.657  -1.315  53.603  1.00  0.00     0.156 HD
HETATM   27  H24 UNL     1      23.944   0.270  54.680  1.00  0.00     0.156 HD
ENDBRANCH   6  25
TORSDOF 5
ENDMDL
MODEL 9
REMARK VINA RESULT:      -8.2      2.203      6.009
REMARK  5 active torsions:
REMARK  status: ('A' for Active; 'I' for Inactive)
REMARK    1  A    between atoms: C2_2  and  C4_4 
REMARK    2  A    between atoms: C6_6  and  C7_7 
REMARK    3  A    between atoms: C7_7  and  C8_8 
REMARK    4  A    between atoms: C17_19  and  C18_20 
REMARK    5  A    between atoms: C21_23  and  N2_24 
ROOT
HETATM    1  C4  UNL     1      24.542   3.949  49.820  1.00  0.00    -0.027 A 
HETATM    2  C5  UNL     1      24.784   3.384  51.054  1.00  0.00     0.021 A 
HETATM    3  C6  UNL     1      23.920   2.564  51.795  1.00  0.00    -0.034 A 
HETATM    4  C16 UNL     1      22.712   2.331  51.166  1.00  0.00     0.021 A 
HETATM    5  C17 UNL     1      22.391   2.856  49.934  1.00  0.00    -0.027 A 
HETATM    6  C21 UNL     1      23.306   3.654  49.281  1.00  0.00     0.039 A 
ENDROOT
BRANCH   3   7
HETATM    7  C7  UNL     1      24.395   2.070  53.076  1.00  0.00     0.029 C 
BRANCH   7   8
HETATM    8  C8  UNL     1      25.182   1.088  53.390  1.00  0.00     0.045 A 
HETATM    9  C9  UNL     1      24.908  -0.316  53.638  1.00  0.00     0.257 A 
HETATM   10  O1  UNL     1      23.798  -0.895  53.597  1.00  0.00    -0.267 OA
HETATM   11  N1  UNL     1      26.096  -1.029  53.958  1.00  0.00    -0.322 N 
HETATM   12  C10 UNL     1      27.116  -0.047  53.903  1.00  0.00     0.046 A 
HETATM   13  H10 UNL     1      26.189  -2.055  54.184  1.00  0.00     0.169 HD
HETATM   14  C11 UNL     1      28.471  -0.171  54.129  1.00  0.00     0.030 A 
HETATM   15  C15 UNL     1      26.612   1.187  53.577  1.00  0.00     0.006 A 
HETATM   16  C12 UNL     1      29.342   0.908  54.036  1.00  0.00     0.002 A 
HETATM   17  C13 UNL     1      28.858   2.159  53.709  1.00  0.00     0.001 A 
HETATM   18  C14 UNL     1      27.491   2.276  53.484  1.00  0.00     0.015 A 
ENDBRANCH   7   8
ENDBRANCH   3   7
BRANCH   1  19
HETATM   19  C2  UNL     1      25.556   4.806  49.168  1.00  0.00     0.013 C 
HETATM   20  C1  UNL     1      25.649   6.180  49.816  1.00  0.00     0.015 C 
HETATM   21  C3  UNL     1      26.901   4.145  49.248  1.00  0.00     0.015 C 
ENDBRANCH   1  19
BRANCH   5  22
HETATM   22  C18 UNL     1      21.091   2.564  49.320  1.00  0.00     0.013 C 
HETATM   23  C19 UNL     1      19.936   3.317  49.933  1.00  0.00     0.015 C 
HETATM   24  C20 UNL     1      20.790   1.068  49.245  1.00  0.00     0.015 C 
ENDBRANCH   5  22
BRANCH   6  25
HETATM   25  N2  UNL     1      23.062   4.244  48.003  1.00  0.00    -0.398 N 
HETATM   26  H23 UNL     1      22.139   4.119  47.529  1.00  0.00     0.156 HD
HETATM   27  H24 UNL     1      23.960   4.716  47.808  1.00  0.00     0.156 HD
ENDBRANCH   6  25
TORSDOF 5
ENDMDL
