MODEL 1
REMARK VINA RESULT:      -8.1      0.000      0.000
REMARK  8 active torsions:
REMARK  status: ('A' for Active; 'I' for Inactive)
REMARK       I    between atoms: C2_2  and  N1_4 
REMARK    1  A    between atoms: N1_4  and  C3_5 
REMARK    2  A    between atoms: C5_7  and  N2_8 
REMARK    3  A    between atoms: C8_11  and  O2_12 
REMARK    4  A    between atoms: O2_12  and  C9_13 
REMARK    5  A    between atoms: C9_13  and  C10_14 
REMARK    6  A    between atoms: C18_24  and  N3_26 
REMARK    7  A    between atoms: N3_26  and  C20_27 
REMARK    8  A    between atoms: C20_27  and  N4_28 
ROOT
HETATM    1  N2  UNL     1      23.348  -0.045  53.337  1.00  0.00    -0.331 N 
HETATM    2  C6  UNL     1      22.369  -0.761  54.104  1.00  0.00     0.111 C 
HETATM    3  C7  UNL     1      21.360  -1.285  53.466  1.00  0.00     0.029 C 
HETATM    4  C8  UNL     1      20.720  -0.550  52.582  1.00  0.00     0.104 C 
HETATM    5  C16 UNL     1      21.638   0.200  51.706  1.00  0.00     0.084 C 
HETATM    6 CL2  UNL     1      21.145   0.817  50.150  1.00  0.00    -0.080 Cl
HETATM    7  C17 UNL     1      22.902   0.447  52.061  1.00  0.00     0.123 C 
ENDROOT
BRANCH   1   8
HETATM    8  C5  UNL     1      24.689   0.162  53.821  1.00  0.00     0.047 A 
HETATM    9  C4  UNL     1      25.384  -0.453  54.715  1.00  0.00     0.029 A 
HETATM   10  C3  UNL     1      26.538   0.387  54.542  1.00  0.00     0.146 A 
HETATM   11  C18 UNL     1      25.732   1.094  53.512  1.00  0.00     0.126 A 
HETATM   12  C19 UNL     1      25.393   2.520  53.932  1.00  0.00     0.051 C 
BRANCH  10  13
HETATM   13  N1  UNL     1      27.661  -0.391  54.036  1.00  0.00    -0.351 N 
HETATM   14  C2  UNL     1      29.028   0.014  54.168  1.00  0.00     0.214 C 
HETATM   15  C1  UNL     1      30.026  -0.936  53.575  1.00  0.00     0.117 C 
HETATM   16  O1  UNL     1      29.316   1.079  54.740  1.00  0.00    -0.274 OA
HETATM   17  H4  UNL     1      27.382  -1.283  53.559  1.00  0.00     0.163 HD
ENDBRANCH  10  13
BRANCH  11  18
HETATM   18  N3  UNL     1      26.326   1.052  52.200  1.00  0.00    -0.211 NA
BRANCH  18  19
HETATM   19  C20 UNL     1      26.658   2.072  51.533  1.00  0.00     0.089 C 
BRANCH  19  20
HETATM   20  N4  UNL     1      27.079   3.142  51.031  1.00  0.00    -0.241 NA
HETATM   21  H18 UNL     1      27.956   3.085  50.441  1.00  0.00     0.199 HD
ENDBRANCH  19  20
ENDBRANCH  18  19
ENDBRANCH  11  18
ENDBRANCH   1   8
BRANCH   4  22
HETATM   22  O2  UNL     1      19.385  -0.313  52.278  1.00  0.00    -0.344 OA
BRANCH  22  23
HETATM   23  C9  UNL     1      18.385  -0.365  53.277  1.00  0.00     0.214 C 
BRANCH  23  24
HETATM   24  C10 UNL     1      17.565  -1.600  53.175  1.00  0.00    -0.033 A 
HETATM   25  C11 UNL     1      17.882  -2.811  53.746  1.00  0.00     0.009 A 
HETATM   26  C12 UNL     1      17.010  -3.849  53.551  1.00  0.00     0.002 A 
HETATM   27  C13 UNL     1      15.834  -3.732  52.810  1.00  0.00     0.024 A 
HETATM   28  C14 UNL     1      15.507  -2.524  52.232  1.00  0.00     0.034 A 
HETATM   29 CL1  UNL     1      14.052  -2.302  51.289  1.00  0.00    -0.084 Cl
HETATM   30  C15 UNL     1      16.393  -1.475  52.432  1.00  0.00     0.033 A 
ENDBRANCH  23  24
ENDBRANCH  22  23
ENDBRANCH   4  22
TORSDOF 8
ENDMDL
MODEL 2
REMARK VINA RESULT:      -7.7      2.007      2.540
REMARK  8 active torsions:
REMARK  status: ('A' for Active; 'I' for Inactive)
REMARK       I    between atoms: C2_2  and  N1_4 
REMARK    1  A    between atoms: N1_4  and  C3_5 
REMARK    2  A    between atoms: C5_7  and  N2_8 
REMARK    3  A    between atoms: C8_11  and  O2_12 
REMARK    4  A    between atoms: O2_12  and  C9_13 
REMARK    5  A    between atoms: C9_13  and  C10_14 
REMARK    6  A    between atoms: C18_24  and  N3_26 
REMARK    7  A    between atoms: N3_26  and  C20_27 
REMARK    8  A    between atoms: C20_27  and  N4_28 
ROOT
HETATM    1  N2  UNL     1      23.186   0.351  52.822  1.00  0.00    -0.331 N 
HETATM    2  C6  UNL     1      22.941   1.038  51.587  1.00  0.00     0.111 C 
HETATM    3  C7  UNL     1      21.719   1.411  51.330  1.00  0.00     0.029 C 
HETATM    4  C8  UNL     1      20.743   0.546  51.510  1.00  0.00     0.104 C 
HETATM    5  C16 UNL     1      20.874  -0.192  52.779  1.00  0.00     0.084 C 
HETATM    6 CL2  UNL     1      19.519  -0.985  53.540  1.00  0.00    -0.080 Cl
HETATM    7  C17 UNL     1      22.044  -0.290  53.417  1.00  0.00     0.123 C 
ENDROOT
BRANCH   1   8
HETATM    8  C5  UNL     1      24.496   0.310  53.422  1.00  0.00     0.047 A 
HETATM    9  C4  UNL     1      25.019  -0.486  54.288  1.00  0.00     0.029 A 
HETATM   10  C3  UNL     1      26.289   0.189  54.293  1.00  0.00     0.146 A 
HETATM   11  C18 UNL     1      25.681   1.106  53.294  1.00  0.00     0.126 A 
HETATM   12  C19 UNL     1      25.507   2.517  53.845  1.00  0.00     0.051 C 
BRANCH  10  13
HETATM   13  N1  UNL     1      27.334  -0.690  53.786  1.00  0.00    -0.351 N 
HETATM   14  C2  UNL     1      28.731  -0.477  54.019  1.00  0.00     0.214 C 
HETATM   15  C1  UNL     1      29.635  -1.503  53.405  1.00  0.00     0.117 C 
HETATM   16  O1  UNL     1      29.115   0.498  54.685  1.00  0.00    -0.274 OA
HETATM   17  H4  UNL     1      26.975  -1.502  53.227  1.00  0.00     0.163 HD
ENDBRANCH  10  13
BRANCH  11  18
HETATM   18  N3  UNL     1      26.375   1.108  52.031  1.00  0.00    -0.211 NA
BRANCH  18  19
HETATM   19  C20 UNL     1      26.757   2.151  51.428  1.00  0.00     0.089 C 
BRANCH  19  20
HETATM   20  N4  UNL     1      26.983   3.272  50.910  1.00  0.00    -0.241 NA
HETATM   21  H18 UNL     1      26.478   3.496  50.007  1.00  0.00     0.199 HD
ENDBRANCH  19  20
ENDBRANCH  18  19
ENDBRANCH  11  18
ENDBRANCH   1   8
BRANCH   4  22
HETATM   22  O2  UNL     1      19.621   0.162  50.787  1.00  0.00    -0.344 OA
BRANCH  22  23
HETATM   23  C9  UNL     1      18.606   1.091  50.460  1.00  0.00     0.214 C 
BRANCH  23  24
HETATM   24  C10 UNL     1      17.325   0.774  51.144  1.00  0.00    -0.033 A 
HETATM   25  C11 UNL     1      16.840  -0.494  51.370  1.00  0.00     0.009 A 
HETATM   26  C12 UNL     1      15.638  -0.604  52.018  1.00  0.00     0.002 A 
HETATM   27  C13 UNL     1      14.897   0.496  52.449  1.00  0.00     0.024 A 
HETATM   28  C14 UNL     1      15.372   1.770  52.227  1.00  0.00     0.034 A 
HETATM   29 CL1  UNL     1      14.500   3.196  52.738  1.00  0.00    -0.084 Cl
HETATM   30  C15 UNL     1      16.590   1.878  51.571  1.00  0.00     0.033 A 
ENDBRANCH  23  24
ENDBRANCH  22  23
ENDBRANCH   4  22
TORSDOF 8
ENDMDL
MODEL 3
REMARK VINA RESULT:      -7.6      2.936      4.679
REMARK  8 active torsions:
REMARK  status: ('A' for Active; 'I' for Inactive)
REMARK       I    between atoms: C2_2  and  N1_4 
REMARK    1  A    between atoms: N1_4  and  C3_5 
REMARK    2  A    between atoms: C5_7  and  N2_8 
REMARK    3  A    between atoms: C8_11  and  O2_12 
REMARK    4  A    between atoms: O2_12  and  C9_13 
REMARK    5  A    between atoms: C9_13  and  C10_14 
REMARK    6  A    between atoms: C18_24  and  N3_26 
REMARK    7  A    between atoms: N3_26  and  C20_27 
REMARK    8  A    between atoms: C20_27  and  N4_28 
ROOT
HETATM    1  N2  UNL     1      23.059   0.453  52.712  1.00  0.00    -0.331 N 
HETATM    2  C6  UNL     1      21.855   0.190  53.446  1.00  0.00     0.111 C 
HETATM    3  C7  UNL     1      20.798  -0.166  52.774  1.00  0.00     0.029 C 
HETATM    4  C8  UNL     1      20.472   0.519  51.697  1.00  0.00     0.104 C 
HETATM    5  C16 UNL     1      21.637   0.809  50.843  1.00  0.00     0.084 C 
HETATM    6 CL2  UNL     1      21.475   1.209  49.152  1.00  0.00    -0.080 Cl
HETATM    7  C17 UNL     1      22.884   0.779  51.321  1.00  0.00     0.123 C 
ENDROOT
BRANCH   1   8
HETATM    8  C5  UNL     1      24.357   0.391  53.334  1.00  0.00     0.047 A 
HETATM    9  C4  UNL     1      24.865  -0.435  54.182  1.00  0.00     0.029 A 
HETATM   10  C3  UNL     1      26.134   0.240  54.235  1.00  0.00     0.146 A 
HETATM   11  C18 UNL     1      25.544   1.192  53.258  1.00  0.00     0.126 A 
HETATM   12  C19 UNL     1      25.357   2.582  53.855  1.00  0.00     0.051 C 
BRANCH  10  13
HETATM   13  N1  UNL     1      27.188  -0.620  53.717  1.00  0.00    -0.351 N 
HETATM   14  C2  UNL     1      28.574  -0.456  54.040  1.00  0.00     0.214 C 
HETATM   15  C1  UNL     1      29.492  -1.452  53.396  1.00  0.00     0.117 C 
HETATM   16  O1  UNL     1      28.939   0.456  54.800  1.00  0.00    -0.274 OA
HETATM   17  H4  UNL     1      26.846  -1.379  53.079  1.00  0.00     0.163 HD
ENDBRANCH  10  13
BRANCH  11  18
HETATM   18  N3  UNL     1      26.262   1.239  52.009  1.00  0.00    -0.211 NA
BRANCH  18  19
HETATM   19  C20 UNL     1      26.736   2.292  51.497  1.00  0.00     0.089 C 
BRANCH  19  20
HETATM   20  N4  UNL     1      27.087   3.303  50.842  1.00  0.00    -0.241 NA
HETATM   21  H18 UNL     1      26.362   3.742  50.207  1.00  0.00     0.199 HD
ENDBRANCH  19  20
ENDBRANCH  18  19
ENDBRANCH  11  18
ENDBRANCH   1   8
BRANCH   4  22
HETATM   22  O2  UNL     1      19.291   1.035  51.178  1.00  0.00    -0.344 OA
BRANCH  22  23
HETATM   23  C9  UNL     1      18.771   2.272  51.623  1.00  0.00     0.214 C 
BRANCH  23  24
HETATM   24  C10 UNL     1      19.174   3.393  50.735  1.00  0.00    -0.033 A 
HETATM   25  C11 UNL     1      18.633   3.659  49.497  1.00  0.00     0.009 A 
HETATM   26  C12 UNL     1      19.125   4.737  48.812  1.00  0.00     0.002 A 
HETATM   27  C13 UNL     1      20.134   5.564  49.306  1.00  0.00     0.024 A 
HETATM   28  C14 UNL     1      20.683   5.308  50.543  1.00  0.00     0.034 A 
HETATM   29 CL1  UNL     1      21.950   6.298  51.228  1.00  0.00    -0.084 Cl
HETATM   30  C15 UNL     1      20.183   4.214  51.235  1.00  0.00     0.033 A 
ENDBRANCH  23  24
ENDBRANCH  22  23
ENDBRANCH   4  22
TORSDOF 8
ENDMDL
MODEL 4
REMARK VINA RESULT:      -7.3      6.344      9.740
REMARK  8 active torsions:
REMARK  status: ('A' for Active; 'I' for Inactive)
REMARK       I    between atoms: C2_2  and  N1_4 
REMARK    1  A    between atoms: N1_4  and  C3_5 
REMARK    2  A    between atoms: C5_7  and  N2_8 
REMARK    3  A    between atoms: C8_11  and  O2_12 
REMARK    4  A    between atoms: O2_12  and  C9_13 
REMARK    5  A    between atoms: C9_13  and  C10_14 
REMARK    6  A    between atoms: C18_24  and  N3_26 
REMARK    7  A    between atoms: N3_26  and  C20_27 
REMARK    8  A    between atoms: C20_27  and  N4_28 
ROOT
HETATM    1  N2  UNL     1      27.930   6.382  48.455  1.00  0.00    -0.331 N 
HETATM    2  C6  UNL     1      27.963   4.963  48.665  1.00  0.00     0.111 C 
HETATM    3  C7  UNL     1      26.832   4.354  48.887  1.00  0.00     0.029 C 
HETATM    4  C8  UNL     1      25.997   4.872  49.764  1.00  0.00     0.104 C 
HETATM    5  C16 UNL     1      25.854   6.330  49.609  1.00  0.00     0.084 C 
HETATM    6 CL2  UNL     1      24.476   7.202  50.229  1.00  0.00    -0.080 Cl
HETATM    7  C17 UNL     1      26.778   7.064  48.982  1.00  0.00     0.123 C 
ENDROOT
BRANCH   1   8
HETATM    8  C5  UNL     1      28.988   7.071  47.761  1.00  0.00     0.047 A 
HETATM    9  C4  UNL     1      28.969   8.037  46.909  1.00  0.00     0.029 A 
HETATM   10  C3  UNL     1      30.399   8.073  46.764  1.00  0.00     0.146 A 
HETATM   11  C18 UNL     1      30.417   6.958  47.747  1.00  0.00     0.126 A 
HETATM   12  C19 UNL     1      30.900   5.653  47.123  1.00  0.00     0.051 C 
BRANCH  10  13
HETATM   13  N1  UNL     1      30.926   9.343  47.245  1.00  0.00    -0.351 N 
HETATM   14  C2  UNL     1      31.983  10.059  46.594  1.00  0.00     0.214 C 
HETATM   15  C1  UNL     1      32.371  11.346  47.258  1.00  0.00     0.117 C 
HETATM   16  O1  UNL     1      32.505   9.608  45.561  1.00  0.00    -0.274 OA
HETATM   17  H4  UNL     1      30.463   9.695  48.118  1.00  0.00     0.163 HD
ENDBRANCH  10  13
BRANCH  11  18
HETATM   18  N3  UNL     1      31.143   7.276  48.951  1.00  0.00    -0.211 NA
BRANCH  18  19
HETATM   19  C20 UNL     1      31.488   6.427  49.821  1.00  0.00     0.089 C 
BRANCH  19  20
HETATM   20  N4  UNL     1      31.644   5.536  50.691  1.00  0.00    -0.241 NA
HETATM   21  H18 UNL     1      32.586   5.056  50.727  1.00  0.00     0.199 HD
ENDBRANCH  19  20
ENDBRANCH  18  19
ENDBRANCH  11  18
ENDBRANCH   1   8
BRANCH   4  22
HETATM   22  O2  UNL     1      25.219   4.370  50.799  1.00  0.00    -0.344 OA
BRANCH  22  23
HETATM   23  C9  UNL     1      24.460   3.187  50.641  1.00  0.00     0.214 C 
BRANCH  23  24
HETATM   24  C10 UNL     1      25.030   2.056  51.418  1.00  0.00    -0.033 A 
HETATM   25  C11 UNL     1      26.356   1.689  51.427  1.00  0.00     0.009 A 
HETATM   26  C12 UNL     1      26.709   0.617  52.203  1.00  0.00     0.002 A 
HETATM   27  C13 UNL     1      25.796  -0.106  52.971  1.00  0.00     0.024 A 
HETATM   28  C14 UNL     1      24.466   0.252  52.969  1.00  0.00     0.034 A 
HETATM   29 CL1  UNL     1      23.265  -0.607  53.905  1.00  0.00    -0.084 Cl
HETATM   30  C15 UNL     1      24.112   1.338  52.181  1.00  0.00     0.033 A 
ENDBRANCH  23  24
ENDBRANCH  22  23
ENDBRANCH   4  22
TORSDOF 8
ENDMDL
MODEL 5
REMARK VINA RESULT:      -7.3      4.962      9.298
REMARK  8 active torsions:
REMARK  status: ('A' for Active; 'I' for Inactive)
REMARK       I    between atoms: C2_2  and  N1_4 
REMARK    1  A    between atoms: N1_4  and  C3_5 
REMARK    2  A    between atoms: C5_7  and  N2_8 
REMARK    3  A    between atoms: C8_11  and  O2_12 
REMARK    4  A    between atoms: O2_12  and  C9_13 
REMARK    5  A    between atoms: C9_13  and  C10_14 
REMARK    6  A    between atoms: C18_24  and  N3_26 
REMARK    7  A    between atoms: N3_26  and  C20_27 
REMARK    8  A    between atoms: C20_27  and  N4_28 
ROOT
HETATM    1  N2  UNL     1      23.234   3.578  51.012  1.00  0.00    -0.331 N 
HETATM    2  C6  UNL     1      24.652   3.536  51.219  1.00  0.00     0.111 C 
HETATM    3  C7  UNL     1      25.203   2.374  51.428  1.00  0.00     0.029 C 
HETATM    4  C8  UNL     1      24.645   1.557  52.296  1.00  0.00     0.104 C 
HETATM    5  C16 UNL     1      23.181   1.490  52.143  1.00  0.00     0.084 C 
HETATM    6 CL2  UNL     1      22.242   0.151  52.751  1.00  0.00    -0.080 Cl
HETATM    7  C17 UNL     1      22.495   2.456  51.527  1.00  0.00     0.123 C 
ENDROOT
BRANCH   1   8
HETATM    8  C5  UNL     1      22.597   4.676  50.330  1.00  0.00     0.047 A 
HETATM    9  C4  UNL     1      21.365   4.905  50.034  1.00  0.00     0.029 A 
HETATM   10  C3  UNL     1      21.645   6.163  49.396  1.00  0.00     0.146 A 
HETATM   11  C18 UNL     1      23.066   5.895  49.739  1.00  0.00     0.126 A 
HETATM   12  C19 UNL     1      23.919   5.658  48.497  1.00  0.00     0.051 C 
BRANCH  10  13
HETATM   13  N1  UNL     1      21.018   7.255  50.128  1.00  0.00    -0.351 N 
HETATM   14  C2  UNL     1      20.042   8.134  49.556  1.00  0.00     0.214 C 
HETATM   15  C1  UNL     1      19.525   9.190  50.486  1.00  0.00     0.117 C 
HETATM   16  O1  UNL     1      19.683   7.992  48.375  1.00  0.00    -0.274 OA
HETATM   17  H4  UNL     1      21.344   7.347  51.121  1.00  0.00     0.163 HD
ENDBRANCH  10  13
BRANCH  11  18
HETATM   18  N3  UNL     1      23.642   6.899  50.598  1.00  0.00    -0.211 NA
BRANCH  18  19
HETATM   19  C20 UNL     1      24.869   7.196  50.626  1.00  0.00     0.089 C 
BRANCH  19  20
HETATM   20  N4  UNL     1      26.058   7.539  50.839  1.00  0.00    -0.241 NA
HETATM   21  H18 UNL     1      26.333   8.523  50.564  1.00  0.00     0.199 HD
ENDBRANCH  19  20
ENDBRANCH  18  19
ENDBRANCH  11  18
ENDBRANCH   1   8
BRANCH   4  22
HETATM   22  O2  UNL     1      25.109   0.744  53.323  1.00  0.00    -0.344 OA
BRANCH  22  23
HETATM   23  C9  UNL     1      25.601  -0.557  53.065  1.00  0.00     0.214 C 
BRANCH  23  24
HETATM   24  C10 UNL     1      27.069  -0.645  53.273  1.00  0.00    -0.033 A 
HETATM   25  C11 UNL     1      27.837  -1.764  53.044  1.00  0.00     0.009 A 
HETATM   26  C12 UNL     1      29.181  -1.669  53.289  1.00  0.00     0.002 A 
HETATM   27  C13 UNL     1      29.794  -0.505  53.755  1.00  0.00     0.024 A 
HETATM   28  C14 UNL     1      29.035   0.621  53.989  1.00  0.00     0.034 A 
HETATM   29 CL1  UNL     1      29.732   2.114  54.572  1.00  0.00    -0.084 Cl
HETATM   30  C15 UNL     1      27.674   0.521  53.739  1.00  0.00     0.033 A 
ENDBRANCH  23  24
ENDBRANCH  22  23
ENDBRANCH   4  22
TORSDOF 8
ENDMDL
MODEL 6
REMARK VINA RESULT:      -7.3      6.176      9.827
REMARK  8 active torsions:
REMARK  status: ('A' for Active; 'I' for Inactive)
REMARK       I    between atoms: C2_2  and  N1_4 
REMARK    1  A    between atoms: N1_4  and  C3_5 
REMARK    2  A    between atoms: C5_7  and  N2_8 
REMARK    3  A    between atoms: C8_11  and  O2_12 
REMARK    4  A    between atoms: O2_12  and  C9_13 
REMARK    5  A    between atoms: C9_13  and  C10_14 
REMARK    6  A    between atoms: C18_24  and  N3_26 
REMARK    7  A    between atoms: N3_26  and  C20_27 
REMARK    8  A    between atoms: C20_27  and  N4_28 
ROOT
HETATM    1  N2  UNL     1      24.586   5.273  49.691  1.00  0.00    -0.331 N 
HETATM    2  C6  UNL     1      24.821   3.912  49.303  1.00  0.00     0.111 C 
HETATM    3  C7  UNL     1      24.236   2.973  49.990  1.00  0.00     0.029 C 
HETATM    4  C8  UNL     1      24.281   3.030  51.305  1.00  0.00     0.104 C 
HETATM    5  C16 UNL     1      24.009   4.385  51.818  1.00  0.00     0.084 C 
HETATM    6 CL2  UNL     1      23.482   4.672  53.455  1.00  0.00    -0.080 Cl
HETATM    7  C17 UNL     1      24.153   5.468  51.049  1.00  0.00     0.123 C 
ENDROOT
BRANCH   1   8
HETATM    8  C5  UNL     1      24.774   6.368  48.774  1.00  0.00     0.047 A 
HETATM    9  C4  UNL     1      24.139   6.714  47.707  1.00  0.00     0.029 A 
HETATM   10  C3  UNL     1      24.973   7.860  47.460  1.00  0.00     0.146 A 
HETATM   11  C18 UNL     1      25.703   7.456  48.690  1.00  0.00     0.126 A 
HETATM   12  C19 UNL     1      27.125   6.997  48.386  1.00  0.00     0.051 C 
BRANCH  10  13
HETATM   13  N1  UNL     1      24.194   9.086  47.566  1.00  0.00    -0.351 N 
HETATM   14  C2  UNL     1      24.498  10.282  46.839  1.00  0.00     0.214 C 
HETATM   15  C1  UNL     1      23.566  11.428  47.096  1.00  0.00     0.117 C 
HETATM   16  O1  UNL     1      25.469  10.318  46.065  1.00  0.00    -0.274 OA
HETATM   17  H4  UNL     1      23.382   9.021  48.227  1.00  0.00     0.163 HD
ENDBRANCH  10  13
BRANCH  11  18
HETATM   18  N3  UNL     1      25.676   8.463  49.721  1.00  0.00    -0.211 NA
BRANCH  18  19
HETATM   19  C20 UNL     1      26.697   8.886  50.333  1.00  0.00     0.089 C 
BRANCH  19  20
HETATM   20  N4  UNL     1      27.688   9.469  50.838  1.00  0.00    -0.241 NA
HETATM   21  H18 UNL     1      27.503  10.375  51.352  1.00  0.00     0.199 HD
ENDBRANCH  19  20
ENDBRANCH  18  19
ENDBRANCH  11  18
ENDBRANCH   1   8
BRANCH   4  22
HETATM   22  O2  UNL     1      24.525   2.117  52.323  1.00  0.00    -0.344 OA
BRANCH  22  23
HETATM   23  C9  UNL     1      25.252   0.927  52.084  1.00  0.00     0.214 C 
BRANCH  23  24
HETATM   24  C10 UNL     1      26.621   0.991  52.658  1.00  0.00    -0.033 A 
HETATM   25  C11 UNL     1      27.253   2.140  53.076  1.00  0.00     0.009 A 
HETATM   26  C12 UNL     1      28.519   2.015  53.583  1.00  0.00     0.002 A 
HETATM   27  C13 UNL     1      29.184   0.794  53.690  1.00  0.00     0.024 A 
HETATM   28  C14 UNL     1      28.562  -0.363  53.274  1.00  0.00     0.034 A 
HETATM   29 CL1  UNL     1      29.332  -1.929  53.377  1.00  0.00    -0.084 Cl
HETATM   30  C15 UNL     1      27.279  -0.233  52.761  1.00  0.00     0.033 A 
ENDBRANCH  23  24
ENDBRANCH  22  23
ENDBRANCH   4  22
TORSDOF 8
ENDMDL
MODEL 7
REMARK VINA RESULT:      -7.3      6.752     10.321
REMARK  8 active torsions:
REMARK  status: ('A' for Active; 'I' for Inactive)
REMARK       I    between atoms: C2_2  and  N1_4 
REMARK    1  A    between atoms: N1_4  and  C3_5 
REMARK    2  A    between atoms: C5_7  and  N2_8 
REMARK    3  A    between atoms: C8_11  and  O2_12 
REMARK    4  A    between atoms: O2_12  and  C9_13 
REMARK    5  A    between atoms: C9_13  and  C10_14 
REMARK    6  A    between atoms: C18_24  and  N3_26 
REMARK    7  A    between atoms: N3_26  and  C20_27 
REMARK    8  A    between atoms: C20_27  and  N4_28 
ROOT
HETATM    1  N2  UNL     1      27.515   6.575  48.199  1.00  0.00    -0.331 N 
HETATM    2  C6  UNL     1      28.224   5.366  48.504  1.00  0.00     0.111 C 
HETATM    3  C7  UNL     1      27.526   4.282  48.691  1.00  0.00     0.029 C 
HETATM    4  C8  UNL     1      26.469   4.338  49.475  1.00  0.00     0.104 C 
HETATM    5  C16 UNL     1      25.640   5.528  49.215  1.00  0.00     0.084 C 
HETATM    6 CL2  UNL     1      23.962   5.615  49.684  1.00  0.00    -0.080 Cl
HETATM    7  C17 UNL     1      26.134   6.608  48.602  1.00  0.00     0.123 C 
ENDROOT
BRANCH   1   8
HETATM    8  C5  UNL     1      28.152   7.681  47.531  1.00  0.00     0.047 A 
HETATM    9  C4  UNL     1      28.268   7.980  46.283  1.00  0.00     0.029 A 
HETATM   10  C3  UNL     1      29.013   9.185  46.536  1.00  0.00     0.146 A 
HETATM   11  C18 UNL     1      28.877   8.836  47.974  1.00  0.00     0.126 A 
HETATM   12  C19 UNL     1      30.220   8.483  48.606  1.00  0.00     0.051 C 
BRANCH  10  13
HETATM   13  N1  UNL     1      28.256  10.350  46.098  1.00  0.00    -0.351 N 
HETATM   14  C2  UNL     1      28.862  11.532  45.562  1.00  0.00     0.214 C 
HETATM   15  C1  UNL     1      27.898  12.613  45.174  1.00  0.00     0.117 C 
HETATM   16  O1  UNL     1      30.097  11.608  45.447  1.00  0.00    -0.274 OA
HETATM   17  H4  UNL     1      27.218  10.252  46.209  1.00  0.00     0.163 HD
ENDBRANCH  10  13
BRANCH  11  18
HETATM   18  N3  UNL     1      28.175   9.838  48.737  1.00  0.00    -0.211 NA
BRANCH  18  19
HETATM   19  C20 UNL     1      27.791   9.687  49.930  1.00  0.00     0.089 C 
BRANCH  19  20
HETATM   20  N4  UNL     1      27.597   9.527  51.160  1.00  0.00    -0.241 NA
HETATM   21  H18 UNL     1      27.040   8.676  51.454  1.00  0.00     0.199 HD
ENDBRANCH  19  20
ENDBRANCH  18  19
ENDBRANCH  11  18
ENDBRANCH   1   8
BRANCH   4  22
HETATM   22  O2  UNL     1      25.951   3.542  50.488  1.00  0.00    -0.344 OA
BRANCH  22  23
HETATM   23  C9  UNL     1      26.792   2.748  51.301  1.00  0.00     0.214 C 
BRANCH  23  24
HETATM   24  C10 UNL     1      26.040   1.660  51.980  1.00  0.00    -0.033 A 
HETATM   25  C11 UNL     1      24.799   1.796  52.559  1.00  0.00     0.009 A 
HETATM   26  C12 UNL     1      24.250   0.686  53.143  1.00  0.00     0.002 A 
HETATM   27  C13 UNL     1      24.885  -0.555  53.175  1.00  0.00     0.024 A 
HETATM   28  C14 UNL     1      26.128  -0.703  52.600  1.00  0.00     0.034 A 
HETATM   29 CL1  UNL     1      26.985  -2.227  52.602  1.00  0.00    -0.084 Cl
HETATM   30  C15 UNL     1      26.681   0.424  52.009  1.00  0.00     0.033 A 
ENDBRANCH  23  24
ENDBRANCH  22  23
ENDBRANCH   4  22
TORSDOF 8
ENDMDL
MODEL 8
REMARK VINA RESULT:      -7.3      3.707      9.764
REMARK  8 active torsions:
REMARK  status: ('A' for Active; 'I' for Inactive)
REMARK       I    between atoms: C2_2  and  N1_4 
REMARK    1  A    between atoms: N1_4  and  C3_5 
REMARK    2  A    between atoms: C5_7  and  N2_8 
REMARK    3  A    between atoms: C8_11  and  O2_12 
REMARK    4  A    between atoms: O2_12  and  C9_13 
REMARK    5  A    between atoms: C9_13  and  C10_14 
REMARK    6  A    between atoms: C18_24  and  N3_26 
REMARK    7  A    between atoms: N3_26  and  C20_27 
REMARK    8  A    between atoms: C20_27  and  N4_28 
ROOT
HETATM    1  N2  UNL     1      19.778  -0.496  52.774  1.00  0.00    -0.331 N 
HETATM    2  C6  UNL     1      20.412  -1.234  53.828  1.00  0.00     0.111 C 
HETATM    3  C7  UNL     1      21.557  -0.799  54.273  1.00  0.00     0.029 C 
HETATM    4  C8  UNL     1      22.486  -0.460  53.403  1.00  0.00     0.104 C 
HETATM    5  C16 UNL     1      21.947   0.344  52.292  1.00  0.00     0.084 C 
HETATM    6 CL2  UNL     1      22.960   1.365  51.304  1.00  0.00    -0.080 Cl
HETATM    7  C17 UNL     1      20.647   0.333  51.982  1.00  0.00     0.123 C 
ENDROOT
BRANCH   1   8
HETATM    8  C5  UNL     1      18.361  -0.586  52.530  1.00  0.00     0.047 A 
HETATM    9  C4  UNL     1      17.461  -1.392  52.978  1.00  0.00     0.029 A 
HETATM   10  C3  UNL     1      16.393  -0.771  52.243  1.00  0.00     0.146 A 
HETATM   11  C18 UNL     1      17.434   0.157  51.728  1.00  0.00     0.126 A 
HETATM   12  C19 UNL     1      17.671  -0.023  50.233  1.00  0.00     0.051 C 
BRANCH  10  13
HETATM   13  N1  UNL     1      15.423  -0.183  53.157  1.00  0.00    -0.351 N 
HETATM   14  C2  UNL     1      14.025  -0.070  52.864  1.00  0.00     0.214 C 
HETATM   15  C1  UNL     1      13.205   0.568  53.944  1.00  0.00     0.117 C 
HETATM   16  O1  UNL     1      13.575  -0.484  51.783  1.00  0.00    -0.274 OA
HETATM   17  H4  UNL     1      15.837   0.157  54.059  1.00  0.00     0.163 HD
ENDBRANCH  10  13
BRANCH  11  18
HETATM   18  N3  UNL     1      17.182   1.535  52.067  1.00  0.00    -0.211 NA
BRANCH  18  19
HETATM   19  C20 UNL     1      17.512   2.519  51.346  1.00  0.00     0.089 C 
BRANCH  19  20
HETATM   20  N4  UNL     1      17.816   3.602  50.790  1.00  0.00    -0.241 NA
HETATM   21  H18 UNL     1      17.550   3.713  49.772  1.00  0.00     0.199 HD
ENDBRANCH  19  20
ENDBRANCH  18  19
ENDBRANCH  11  18
ENDBRANCH   1   8
BRANCH   4  22
HETATM   22  O2  UNL     1      23.852  -0.681  53.284  1.00  0.00    -0.344 OA
BRANCH  22  23
HETATM   23  C9  UNL     1      24.726  -0.479  54.377  1.00  0.00     0.214 C 
BRANCH  23  24
HETATM   24  C10 UNL     1      25.934   0.292  53.984  1.00  0.00    -0.033 A 
HETATM   25  C11 UNL     1      25.962   1.642  53.718  1.00  0.00     0.009 A 
HETATM   26  C12 UNL     1      27.166   2.193  53.369  1.00  0.00     0.002 A 
HETATM   27  C13 UNL     1      28.346   1.455  53.272  1.00  0.00     0.024 A 
HETATM   28  C14 UNL     1      28.330   0.102  53.534  1.00  0.00     0.034 A 
HETATM   29 CL1  UNL     1      29.768  -0.887  53.433  1.00  0.00    -0.084 Cl
HETATM   30  C15 UNL     1      27.108  -0.452  53.888  1.00  0.00     0.033 A 
ENDBRANCH  23  24
ENDBRANCH  22  23
ENDBRANCH   4  22
TORSDOF 8
ENDMDL
MODEL 9
REMARK VINA RESULT:      -7.2      5.632      8.032
REMARK  8 active torsions:
REMARK  status: ('A' for Active; 'I' for Inactive)
REMARK       I    between atoms: C2_2  and  N1_4 
REMARK    1  A    between atoms: N1_4  and  C3_5 
REMARK    2  A    between atoms: C5_7  and  N2_8 
REMARK    3  A    between atoms: C8_11  and  O2_12 
REMARK    4  A    between atoms: O2_12  and  C9_13 
REMARK    5  A    between atoms: C9_13  and  C10_14 
REMARK    6  A    between atoms: C18_24  and  N3_26 
REMARK    7  A    between atoms: N3_26  and  C20_27 
REMARK    8  A    between atoms: C20_27  and  N4_28 
ROOT
HETATM    1  N2  UNL     1      24.535   5.312  49.659  1.00  0.00    -0.331 N 
HETATM    2  C6  UNL     1      25.366   4.144  49.710  1.00  0.00     0.111 C 
HETATM    3  C7  UNL     1      24.840   3.041  50.164  1.00  0.00     0.029 C 
HETATM    4  C8  UNL     1      24.139   3.086  51.277  1.00  0.00     0.104 C 
HETATM    5  C16 UNL     1      23.213   4.232  51.311  1.00  0.00     0.084 C 
HETATM    6 CL2  UNL     1      21.818   4.272  52.358  1.00  0.00    -0.080 Cl
HETATM    7  C17 UNL     1      23.396   5.306  50.537  1.00  0.00     0.123 C 
ENDROOT
BRANCH   1   8
HETATM    8  C5  UNL     1      24.829   6.415  48.780  1.00  0.00     0.047 A 
HETATM    9  C4  UNL     1      24.274   6.817  47.690  1.00  0.00     0.029 A 
HETATM   10  C3  UNL     1      25.176   7.923  47.517  1.00  0.00     0.146 A 
HETATM   11  C18 UNL     1      25.815   7.456  48.775  1.00  0.00     0.126 A 
HETATM   12  C19 UNL     1      27.227   6.931  48.539  1.00  0.00     0.051 C 
BRANCH  10  13
HETATM   13  N1  UNL     1      24.455   9.185  47.609  1.00  0.00    -0.351 N 
HETATM   14  C2  UNL     1      24.864  10.382  46.937  1.00  0.00     0.214 C 
HETATM   15  C1  UNL     1      23.978  11.569  47.170  1.00  0.00     0.117 C 
HETATM   16  O1  UNL     1      25.883  10.387  46.227  1.00  0.00    -0.274 OA
HETATM   17  H4  UNL     1      23.601   9.146  48.217  1.00  0.00     0.163 HD
ENDBRANCH  10  13
BRANCH  11  18
HETATM   18  N3  UNL     1      25.781   8.440  49.828  1.00  0.00    -0.211 NA
BRANCH  18  19
HETATM   19  C20 UNL     1      26.806   8.941  50.369  1.00  0.00     0.089 C 
BRANCH  19  20
HETATM   20  N4  UNL     1      27.701   9.517  51.035  1.00  0.00    -0.241 NA
HETATM   21  H18 UNL     1      28.704   9.338  50.749  1.00  0.00     0.199 HD
ENDBRANCH  19  20
ENDBRANCH  18  19
ENDBRANCH  11  18
ENDBRANCH   1   8
BRANCH   4  22
HETATM   22  O2  UNL     1      24.066   2.311  52.427  1.00  0.00    -0.344 OA
BRANCH  22  23
HETATM   23  C9  UNL     1      24.311   0.919  52.391  1.00  0.00     0.214 C 
BRANCH  23  24
HETATM   24  C10 UNL     1      23.263   0.153  53.115  1.00  0.00    -0.033 A 
HETATM   25  C11 UNL     1      23.482  -0.648  54.213  1.00  0.00     0.009 A 
HETATM   26  C12 UNL     1      22.398  -1.282  54.758  1.00  0.00     0.002 A 
HETATM   27  C13 UNL     1      21.103  -1.152  54.257  1.00  0.00     0.024 A 
HETATM   28  C14 UNL     1      20.871  -0.354  53.158  1.00  0.00     0.034 A 
HETATM   29 CL1  UNL     1      19.277  -0.144  52.474  1.00  0.00    -0.084 Cl
HETATM   30  C15 UNL     1      21.972   0.287  52.608  1.00  0.00     0.033 A 
ENDBRANCH  23  24
ENDBRANCH  22  23
ENDBRANCH   4  22
TORSDOF 8
ENDMDL
