MODEL 1
REMARK VINA RESULT:      -8.8      0.000      0.000
REMARK  5 active torsions:
REMARK  status: ('A' for Active; 'I' for Inactive)
REMARK    1  A    between atoms: C2_2  and  C3_3 
REMARK    2  A    between atoms: C4_4  and  C5_5 
REMARK    3  A    between atoms: C5_5  and  N1_6 
REMARK    4  A    between atoms: N1_6  and  C6_7 
REMARK    5  A    between atoms: C12_16  and  C13_17 
ROOT
HETATM    1  C6  UNL     1      25.604  -0.026  52.511  1.00  0.00     0.140 A 
HETATM    2  N2  UNL     1      24.586  -0.591  53.152  1.00  0.00    -0.204 NA
HETATM    3  C7  UNL     1      23.456   0.075  53.436  1.00  0.00     0.201 A 
HETATM    4 BR1  UNL     1      22.067  -0.871  54.368  1.00  0.00    -0.006 Br
HETATM    5  N3  UNL     1      23.274   1.362  53.091  1.00  0.00    -0.203 NA
HETATM    6  C8  UNL     1      24.245   2.001  52.447  1.00  0.00     0.154 A 
HETATM    7  C9  UNL     1      25.398   1.291  52.167  1.00  0.00     0.056 A 
HETATM    8  C10 UNL     1      26.559   1.835  51.479  1.00  0.00     0.017 C 
HETATM    9  C11 UNL     1      26.602   2.917  50.685  1.00  0.00    -0.000 C 
HETATM   10  C12 UNL     1      25.425   3.797  50.349  1.00  0.00     0.128 C 
HETATM   11  N4  UNL     1      24.793   4.297  51.551  1.00  0.00    -0.227 NA
HETATM   12  N5  UNL     1      23.918   3.373  52.136  1.00  0.00    -0.304 N 
HETATM   13  H19 UNL     1      25.578   4.478  52.246  1.00  0.00     0.147 HD
HETATM   14  H20 UNL     1      22.919   3.610  52.405  1.00  0.00     0.182 HD
ENDROOT
BRANCH   1  15
HETATM   15  N1  UNL     1      26.779  -0.769  52.228  1.00  0.00    -0.370 N 
HETATM   16  H8  UNL     1      27.278  -1.071  51.373  1.00  0.00     0.161 HD
BRANCH  15  17
HETATM   17  C5  UNL     1      27.535  -1.283  53.358  1.00  0.00     0.148 C 
BRANCH  17  18
HETATM   18  C4  UNL     1      28.996  -1.054  53.229  1.00  0.00    -0.007 C 
HETATM   19  C3  UNL     1      29.631   0.016  53.673  1.00  0.00    -0.003 C 
BRANCH  19  20
HETATM   20  C2  UNL     1      28.977   1.123  54.355  1.00  0.00    -0.011 C 
HETATM   21  C1  UNL     1      28.983   2.356  53.887  1.00  0.00     0.011 C 
ENDBRANCH  19  20
ENDBRANCH  17  18
ENDBRANCH  15  17
ENDBRANCH   1  15
BRANCH  10  22
HETATM   22  C13 UNL     1      25.844   4.914  49.499  1.00  0.00    -0.057 A 
HETATM   23  C14 UNL     1      25.005   5.885  49.174  1.00  0.00     0.004 A 
HETATM   24  C15 UNL     1      25.488   6.965  48.326  1.00  0.00    -0.004 A 
HETATM   25  C16 UNL     1      26.748   6.880  47.945  1.00  0.00    -0.026 A 
HETATM   26  C17 UNL     1      27.761   5.858  48.241  1.00  0.00     0.031 A 
HETATM   27  C18 UNL     1      27.268   4.735  49.121  1.00  0.00     0.040 A 
ENDBRANCH  10  22
TORSDOF 5
ENDMDL
MODEL 2
REMARK VINA RESULT:      -8.6      2.726      6.662
REMARK  5 active torsions:
REMARK  status: ('A' for Active; 'I' for Inactive)
REMARK    1  A    between atoms: C2_2  and  C3_3 
REMARK    2  A    between atoms: C4_4  and  C5_5 
REMARK    3  A    between atoms: C5_5  and  N1_6 
REMARK    4  A    between atoms: N1_6  and  C6_7 
REMARK    5  A    between atoms: C12_16  and  C13_17 
ROOT
HETATM    1  C6  UNL     1      26.647   1.762  52.517  1.00  0.00     0.140 A 
HETATM    2  N2  UNL     1      27.795   1.136  52.760  1.00  0.00    -0.204 NA
HETATM    3  C7  UNL     1      27.849  -0.053  53.380  1.00  0.00     0.201 A 
HETATM    4 BR1  UNL     1      29.578  -0.840  53.663  1.00  0.00    -0.006 Br
HETATM    5  N3  UNL     1      26.744  -0.695  53.800  1.00  0.00    -0.203 NA
HETATM    6  C8  UNL     1      25.556  -0.136  53.597  1.00  0.00     0.154 A 
HETATM    7  C9  UNL     1      25.529   1.088  52.956  1.00  0.00     0.056 A 
HETATM    8  C10 UNL     1      24.321   1.843  52.659  1.00  0.00     0.017 C 
HETATM    9  C11 UNL     1      23.065   1.373  52.589  1.00  0.00    -0.000 C 
HETATM   10  C12 UNL     1      22.658  -0.062  52.810  1.00  0.00     0.128 C 
HETATM   11  N4  UNL     1      23.114  -0.535  54.099  1.00  0.00    -0.227 NA
HETATM   12  N5  UNL     1      24.457  -0.931  54.095  1.00  0.00    -0.304 N 
HETATM   13  H19 UNL     1      23.024   0.288  54.767  1.00  0.00     0.147 HD
HETATM   14  H20 UNL     1      24.787  -1.869  54.466  1.00  0.00     0.182 HD
ENDROOT
BRANCH   1  15
HETATM   15  N1  UNL     1      26.637   3.016  51.854  1.00  0.00    -0.370 N 
HETATM   16  H8  UNL     1      26.635   4.009  52.145  1.00  0.00     0.161 HD
BRANCH  15  17
HETATM   17  C5  UNL     1      26.617   3.005  50.401  1.00  0.00     0.148 C 
BRANCH  17  18
HETATM   18  C4  UNL     1      25.891   4.164  49.823  1.00  0.00    -0.007 C 
HETATM   19  C3  UNL     1      26.428   5.059  49.013  1.00  0.00    -0.003 C 
BRANCH  19  20
HETATM   20  C2  UNL     1      27.816   5.027  48.574  1.00  0.00    -0.011 C 
HETATM   21  C1  UNL     1      28.464   6.104  48.174  1.00  0.00     0.011 C 
ENDBRANCH  19  20
ENDBRANCH  17  18
ENDBRANCH  15  17
ENDBRANCH   1  15
BRANCH  10  22
HETATM   22  C13 UNL     1      21.205  -0.207  52.705  1.00  0.00    -0.057 A 
HETATM   23  C14 UNL     1      20.503  -0.810  53.651  1.00  0.00     0.004 A 
HETATM   24  C15 UNL     1      19.060  -0.920  53.483  1.00  0.00    -0.004 A 
HETATM   25  C16 UNL     1      18.568  -0.397  52.376  1.00  0.00    -0.026 A 
HETATM   26  C17 UNL     1      19.245   0.289  51.268  1.00  0.00     0.031 A 
HETATM   27  C18 UNL     1      20.741   0.407  51.436  1.00  0.00     0.040 A 
ENDBRANCH  10  22
TORSDOF 5
ENDMDL
MODEL 3
REMARK VINA RESULT:      -8.4      2.970      6.497
REMARK  5 active torsions:
REMARK  status: ('A' for Active; 'I' for Inactive)
REMARK    1  A    between atoms: C2_2  and  C3_3 
REMARK    2  A    between atoms: C4_4  and  C5_5 
REMARK    3  A    between atoms: C5_5  and  N1_6 
REMARK    4  A    between atoms: N1_6  and  C6_7 
REMARK    5  A    between atoms: C12_16  and  C13_17 
ROOT
HETATM    1  C6  UNL     1      22.769   3.817  51.366  1.00  0.00     0.140 A 
HETATM    2  N2  UNL     1      22.481   4.551  50.295  1.00  0.00    -0.204 NA
HETATM    3  C7  UNL     1      23.418   4.943  49.418  1.00  0.00     0.201 A 
HETATM    4 BR1  UNL     1      22.855   6.000  47.916  1.00  0.00    -0.006 Br
HETATM    5  N3  UNL     1      24.716   4.621  49.562  1.00  0.00    -0.203 NA
HETATM    6  C8  UNL     1      25.088   3.889  50.606  1.00  0.00     0.154 A 
HETATM    7  C9  UNL     1      24.102   3.499  51.494  1.00  0.00     0.056 A 
HETATM    8  C10 UNL     1      24.332   2.704  52.691  1.00  0.00     0.017 C 
HETATM    9  C11 UNL     1      25.385   1.914  52.953  1.00  0.00    -0.000 C 
HETATM   10  C12 UNL     1      26.560   1.694  52.034  1.00  0.00     0.128 C 
HETATM   11  N4  UNL     1      27.176   2.953  51.673  1.00  0.00    -0.227 NA
HETATM   12  N5  UNL     1      26.506   3.615  50.637  1.00  0.00    -0.304 N 
HETATM   13  H19 UNL     1      27.119   3.570  52.537  1.00  0.00     0.147 HD
HETATM   14  H20 UNL     1      26.996   3.979  49.768  1.00  0.00     0.182 HD
ENDROOT
BRANCH   1  15
HETATM   15  N1  UNL     1      21.745   3.421  52.264  1.00  0.00    -0.370 N 
HETATM   16  H8  UNL     1      21.517   3.605  53.257  1.00  0.00     0.161 HD
BRANCH  15  17
HETATM   17  C5  UNL     1      20.717   2.527  51.756  1.00  0.00     0.148 C 
BRANCH  17  18
HETATM   18  C4  UNL     1      21.274   1.313  51.110  1.00  0.00    -0.007 C 
HETATM   19  C3  UNL     1      21.673   0.233  51.757  1.00  0.00    -0.003 C 
BRANCH  19  20
HETATM   20  C2  UNL     1      21.618   0.087  53.205  1.00  0.00    -0.011 C 
HETATM   21  C1  UNL     1      22.530  -0.572  53.893  1.00  0.00     0.011 C 
ENDBRANCH  19  20
ENDBRANCH  17  18
ENDBRANCH  15  17
ENDBRANCH   1  15
BRANCH  10  22
HETATM   22  C13 UNL     1      27.546   0.812  52.660  1.00  0.00    -0.057 A 
HETATM   23  C14 UNL     1      28.621   1.297  53.261  1.00  0.00     0.004 A 
HETATM   24  C15 UNL     1      29.562   0.363  53.863  1.00  0.00    -0.004 A 
HETATM   25  C16 UNL     1      29.254  -0.916  53.754  1.00  0.00    -0.026 A 
HETATM   26  C17 UNL     1      28.100  -1.563  53.116  1.00  0.00     0.031 A 
HETATM   27  C18 UNL     1      27.120  -0.600  52.489  1.00  0.00     0.040 A 
ENDBRANCH  10  22
TORSDOF 5
ENDMDL
MODEL 4
REMARK VINA RESULT:      -8.1      2.939      6.801
REMARK  5 active torsions:
REMARK  status: ('A' for Active; 'I' for Inactive)
REMARK    1  A    between atoms: C2_2  and  C3_3 
REMARK    2  A    between atoms: C4_4  and  C5_5 
REMARK    3  A    between atoms: C5_5  and  N1_6 
REMARK    4  A    between atoms: N1_6  and  C6_7 
REMARK    5  A    between atoms: C12_16  and  C13_17 
ROOT
HETATM    1  C6  UNL     1      26.241   1.896  52.360  1.00  0.00     0.140 A 
HETATM    2  N2  UNL     1      27.376   1.278  52.670  1.00  0.00    -0.204 NA
HETATM    3  C7  UNL     1      27.401   0.107  53.326  1.00  0.00     0.201 A 
HETATM    4 BR1  UNL     1      29.116  -0.673  53.705  1.00  0.00    -0.006 Br
HETATM    5  N3  UNL     1      26.278  -0.523  53.715  1.00  0.00    -0.203 NA
HETATM    6  C8  UNL     1      25.101   0.030  53.444  1.00  0.00     0.154 A 
HETATM    7  C9  UNL     1      25.105   1.236  52.767  1.00  0.00     0.056 A 
HETATM    8  C10 UNL     1      23.911   1.981  52.397  1.00  0.00     0.017 C 
HETATM    9  C11 UNL     1      22.659   1.510  52.285  1.00  0.00    -0.000 C 
HETATM   10  C12 UNL     1      22.241   0.082  52.528  1.00  0.00     0.128 C 
HETATM   11  N4  UNL     1      22.639  -0.355  53.849  1.00  0.00    -0.227 NA
HETATM   12  N5  UNL     1      23.981  -0.750  53.915  1.00  0.00    -0.304 N 
HETATM   13  H19 UNL     1      22.522   0.487  54.489  1.00  0.00     0.147 HD
HETATM   14  H20 UNL     1      24.293  -1.678  54.326  1.00  0.00     0.182 HD
ENDROOT
BRANCH   1  15
HETATM   15  N1  UNL     1      26.262   3.131  51.662  1.00  0.00    -0.370 N 
HETATM   16  H8  UNL     1      26.126   4.127  51.910  1.00  0.00     0.161 HD
BRANCH  15  17
HETATM   17  C5  UNL     1      26.525   3.088  50.233  1.00  0.00     0.148 C 
BRANCH  17  18
HETATM   18  C4  UNL     1      26.037   4.295  49.518  1.00  0.00    -0.007 C 
HETATM   19  C3  UNL     1      24.788   4.485  49.132  1.00  0.00    -0.003 C 
BRANCH  19  20
HETATM   20  C2  UNL     1      23.713   3.530  49.359  1.00  0.00    -0.011 C 
HETATM   21  C1  UNL     1      22.993   3.018  48.380  1.00  0.00     0.011 C 
ENDBRANCH  19  20
ENDBRANCH  17  18
ENDBRANCH  15  17
ENDBRANCH   1  15
BRANCH  10  22
HETATM   22  C13 UNL     1      20.793  -0.066  52.364  1.00  0.00    -0.057 A 
HETATM   23  C14 UNL     1      20.166   0.422  51.306  1.00  0.00     0.004 A 
HETATM   24  C15 UNL     1      18.725   0.239  51.207  1.00  0.00    -0.004 A 
HETATM   25  C16 UNL     1      18.156  -0.411  52.205  1.00  0.00    -0.026 A 
HETATM   26  C17 UNL     1      18.747  -0.991  53.418  1.00  0.00     0.031 A 
HETATM   27  C18 UNL     1      20.242  -0.805  53.528  1.00  0.00     0.040 A 
ENDBRANCH  10  22
TORSDOF 5
ENDMDL
MODEL 5
REMARK VINA RESULT:      -7.9      2.328      4.269
REMARK  5 active torsions:
REMARK  status: ('A' for Active; 'I' for Inactive)
REMARK    1  A    between atoms: C2_2  and  C3_3 
REMARK    2  A    between atoms: C4_4  and  C5_5 
REMARK    3  A    between atoms: C5_5  and  N1_6 
REMARK    4  A    between atoms: N1_6  and  C6_7 
REMARK    5  A    between atoms: C12_16  and  C13_17 
ROOT
HETATM    1  C6  UNL     1      23.728   1.488  51.655  1.00  0.00     0.140 A 
HETATM    2  N2  UNL     1      24.165   0.825  52.722  1.00  0.00    -0.204 NA
HETATM    3  C7  UNL     1      25.424   0.938  53.172  1.00  0.00     0.201 A 
HETATM    4 BR1  UNL     1      25.916  -0.079  54.726  1.00  0.00    -0.006 Br
HETATM    5  N3  UNL     1      26.332   1.731  52.575  1.00  0.00    -0.203 NA
HETATM    6  C8  UNL     1      25.976   2.428  51.502  1.00  0.00     0.154 A 
HETATM    7  C9  UNL     1      24.673   2.293  51.060  1.00  0.00     0.056 A 
HETATM    8  C10 UNL     1      24.117   2.973  49.900  1.00  0.00     0.017 C 
HETATM    9  C11 UNL     1      24.585   4.082  49.305  1.00  0.00    -0.000 C 
HETATM   10  C12 UNL     1      25.808   4.852  49.736  1.00  0.00     0.128 C 
HETATM   11  N4  UNL     1      26.969   3.990  49.786  1.00  0.00    -0.227 NA
HETATM   12  N5  UNL     1      27.044   3.236  50.964  1.00  0.00    -0.304 N 
HETATM   13  H19 UNL     1      26.869   3.308  48.976  1.00  0.00     0.147 HD
HETATM   14  H20 UNL     1      27.913   3.197  51.573  1.00  0.00     0.182 HD
ENDROOT
BRANCH   1  15
HETATM   15  N1  UNL     1      22.387   1.342  51.217  1.00  0.00    -0.370 N 
HETATM   16  H8  UNL     1      21.746   1.870  50.598  1.00  0.00     0.161 HD
BRANCH  15  17
HETATM   17  C5  UNL     1      21.641   0.197  51.712  1.00  0.00     0.148 C 
BRANCH  17  18
HETATM   18  C4  UNL     1      20.680   0.553  52.787  1.00  0.00    -0.007 C 
HETATM   19  C3  UNL     1      20.529  -0.122  53.913  1.00  0.00    -0.003 C 
BRANCH  19  20
HETATM   20  C2  UNL     1      21.291  -1.314  54.254  1.00  0.00    -0.011 C 
HETATM   21  C1  UNL     1      22.330  -1.291  55.067  1.00  0.00     0.011 C 
ENDBRANCH  19  20
ENDBRANCH  17  18
ENDBRANCH  15  17
ENDBRANCH   1  15
BRANCH  10  22
HETATM   22  C13 UNL     1      26.054   5.976  48.831  1.00  0.00    -0.057 A 
HETATM   23  C14 UNL     1      25.068   6.756  48.417  1.00  0.00     0.004 A 
HETATM   24  C15 UNL     1      25.384   7.857  47.518  1.00  0.00    -0.004 A 
HETATM   25  C16 UNL     1      26.655   7.983  47.185  1.00  0.00    -0.026 A 
HETATM   26  C17 UNL     1      27.822   7.184  47.580  1.00  0.00     0.031 A 
HETATM   27  C18 UNL     1      27.503   6.041  48.513  1.00  0.00     0.040 A 
ENDBRANCH  10  22
TORSDOF 5
ENDMDL
MODEL 6
REMARK VINA RESULT:      -7.7      3.669      6.613
REMARK  5 active torsions:
REMARK  status: ('A' for Active; 'I' for Inactive)
REMARK    1  A    between atoms: C2_2  and  C3_3 
REMARK    2  A    between atoms: C4_4  and  C5_5 
REMARK    3  A    between atoms: C5_5  and  N1_6 
REMARK    4  A    between atoms: N1_6  and  C6_7 
REMARK    5  A    between atoms: C12_16  and  C13_17 
ROOT
HETATM    1  C6  UNL     1      24.826   2.283  52.365  1.00  0.00     0.140 A 
HETATM    2  N2  UNL     1      25.461   3.133  51.564  1.00  0.00    -0.204 NA
HETATM    3  C7  UNL     1      25.019   3.428  50.332  1.00  0.00     0.201 A 
HETATM    4 BR1  UNL     1      26.039   4.675  49.287  1.00  0.00    -0.006 Br
HETATM    5  N3  UNL     1      23.901   2.882  49.821  1.00  0.00    -0.203 NA
HETATM    6  C8  UNL     1      23.207   2.022  50.557  1.00  0.00     0.154 A 
HETATM    7  C9  UNL     1      23.685   1.736  51.822  1.00  0.00     0.056 A 
HETATM    8  C10 UNL     1      23.058   0.814  52.757  1.00  0.00     0.017 C 
HETATM    9  C11 UNL     1      21.784   0.390  52.750  1.00  0.00    -0.000 C 
HETATM   10  C12 UNL     1      20.735   0.798  51.746  1.00  0.00     0.128 C 
HETATM   11  N4  UNL     1      21.179   0.526  50.396  1.00  0.00    -0.227 NA
HETATM   12  N5  UNL     1      22.031   1.515  49.889  1.00  0.00    -0.304 N 
HETATM   13  H19 UNL     1      21.734  -0.381  50.442  1.00  0.00     0.147 HD
HETATM   14  H20 UNL     1      21.879   1.986  48.949  1.00  0.00     0.182 HD
ENDROOT
BRANCH   1  15
HETATM   15  N1  UNL     1      25.328   2.004  53.663  1.00  0.00    -0.370 N 
HETATM   16  H8  UNL     1      25.002   2.157  54.633  1.00  0.00     0.161 HD
BRANCH  15  17
HETATM   17  C5  UNL     1      26.620   1.346  53.754  1.00  0.00     0.148 C 
BRANCH  17  18
HETATM   18  C4  UNL     1      26.673   0.067  53.001  1.00  0.00    -0.007 C 
HETATM   19  C3  UNL     1      27.658  -0.810  53.078  1.00  0.00    -0.003 C 
BRANCH  19  20
HETATM   20  C2  UNL     1      28.833  -0.638  53.920  1.00  0.00    -0.011 C 
HETATM   21  C1  UNL     1      30.065  -0.773  53.466  1.00  0.00     0.011 C 
ENDBRANCH  19  20
ENDBRANCH  17  18
ENDBRANCH  15  17
ENDBRANCH   1  15
BRANCH  10  22
HETATM   22  C13 UNL     1      19.472   0.105  52.010  1.00  0.00    -0.057 A 
HETATM   23  C14 UNL     1      19.299  -0.619  53.104  1.00  0.00     0.004 A 
HETATM   24  C15 UNL     1      18.018  -1.282  53.303  1.00  0.00    -0.004 A 
HETATM   25  C16 UNL     1      17.121  -1.099  52.352  1.00  0.00    -0.026 A 
HETATM   26  C17 UNL     1      17.203  -0.325  51.107  1.00  0.00     0.031 A 
HETATM   27  C18 UNL     1      18.528   0.366  50.894  1.00  0.00     0.040 A 
ENDBRANCH  10  22
TORSDOF 5
ENDMDL
MODEL 7
REMARK VINA RESULT:      -7.6      2.493      6.154
REMARK  5 active torsions:
REMARK  status: ('A' for Active; 'I' for Inactive)
REMARK    1  A    between atoms: C2_2  and  C3_3 
REMARK    2  A    between atoms: C4_4  and  C5_5 
REMARK    3  A    between atoms: C5_5  and  N1_6 
REMARK    4  A    between atoms: N1_6  and  C6_7 
REMARK    5  A    between atoms: C12_16  and  C13_17 
ROOT
HETATM    1  C6  UNL     1      21.272   1.374  51.347  1.00  0.00     0.140 A 
HETATM    2  N2  UNL     1      20.134   0.812  51.743  1.00  0.00    -0.204 NA
HETATM    3  C7  UNL     1      20.097  -0.168  52.660  1.00  0.00     0.201 A 
HETATM    4 BR1  UNL     1      18.381  -0.885  53.138  1.00  0.00    -0.006 Br
HETATM    5  N3  UNL     1      21.210  -0.650  53.241  1.00  0.00    -0.203 NA
HETATM    6  C8  UNL     1      22.389  -0.142  52.900  1.00  0.00     0.154 A 
HETATM    7  C9  UNL     1      22.398   0.866  51.954  1.00  0.00     0.056 A 
HETATM    8  C10 UNL     1      23.596   1.528  51.459  1.00  0.00     0.017 C 
HETATM    9  C11 UNL     1      24.800   1.579  52.050  1.00  0.00    -0.000 C 
HETATM   10  C12 UNL     1      25.149   0.944  53.372  1.00  0.00     0.128 C 
HETATM   11  N4  UNL     1      24.849  -0.471  53.361  1.00  0.00    -0.227 NA
HETATM   12  N5  UNL     1      23.497  -0.748  53.599  1.00  0.00    -0.304 N 
HETATM   13  H19 UNL     1      25.078  -0.816  52.380  1.00  0.00     0.147 HD
HETATM   14  H20 UNL     1      23.168  -1.442  54.332  1.00  0.00     0.182 HD
ENDROOT
BRANCH   1  15
HETATM   15  N1  UNL     1      21.263   2.411  50.378  1.00  0.00    -0.370 N 
HETATM   16  H8  UNL     1      21.639   2.536  49.422  1.00  0.00     0.161 HD
BRANCH  15  17
HETATM   17  C5  UNL     1      20.588   3.650  50.729  1.00  0.00     0.148 C 
BRANCH  17  18
HETATM   18  C4  UNL     1      21.139   4.282  51.954  1.00  0.00    -0.007 C 
HETATM   19  C3  UNL     1      22.238   5.014  51.993  1.00  0.00    -0.003 C 
BRANCH  19  20
HETATM   20  C2  UNL     1      23.062   5.303  50.828  1.00  0.00    -0.011 C 
HETATM   21  C1  UNL     1      24.371   5.140  50.820  1.00  0.00     0.011 C 
ENDBRANCH  19  20
ENDBRANCH  17  18
ENDBRANCH  15  17
ENDBRANCH   1  15
BRANCH  10  22
HETATM   22  C13 UNL     1      26.563   1.157  53.689  1.00  0.00    -0.057 A 
HETATM   23  C14 UNL     1      27.217   2.218  53.243  1.00  0.00     0.004 A 
HETATM   24  C15 UNL     1      28.622   2.366  53.595  1.00  0.00    -0.004 A 
HETATM   25  C16 UNL     1      29.133   1.407  54.345  1.00  0.00    -0.026 A 
HETATM   26  C17 UNL     1      28.508   0.196  54.891  1.00  0.00     0.031 A 
HETATM   27  C18 UNL     1      27.051   0.035  54.530  1.00  0.00     0.040 A 
ENDBRANCH  10  22
TORSDOF 5
ENDMDL
MODEL 8
REMARK VINA RESULT:      -7.5      2.291      4.474
REMARK  5 active torsions:
REMARK  status: ('A' for Active; 'I' for Inactive)
REMARK    1  A    between atoms: C2_2  and  C3_3 
REMARK    2  A    between atoms: C4_4  and  C5_5 
REMARK    3  A    between atoms: C5_5  and  N1_6 
REMARK    4  A    between atoms: N1_6  and  C6_7 
REMARK    5  A    between atoms: C12_16  and  C13_17 
ROOT
HETATM    1  C6  UNL     1      23.783   1.346  51.885  1.00  0.00     0.140 A 
HETATM    2  N2  UNL     1      24.238   0.716  52.963  1.00  0.00    -0.204 NA
HETATM    3  C7  UNL     1      25.497   0.866  53.406  1.00  0.00     0.201 A 
HETATM    4 BR1  UNL     1      26.016  -0.105  54.980  1.00  0.00    -0.006 Br
HETATM    5  N3  UNL     1      26.385   1.665  52.788  1.00  0.00    -0.203 NA
HETATM    6  C8  UNL     1      26.010   2.330  51.701  1.00  0.00     0.154 A 
HETATM    7  C9  UNL     1      24.708   2.157  51.268  1.00  0.00     0.056 A 
HETATM    8  C10 UNL     1      24.133   2.799  50.095  1.00  0.00     0.017 C 
HETATM    9  C11 UNL     1      24.575   3.905  49.474  1.00  0.00    -0.000 C 
HETATM   10  C12 UNL     1      25.783   4.710  49.882  1.00  0.00     0.128 C 
HETATM   11  N4  UNL     1      26.963   3.874  49.947  1.00  0.00    -0.227 NA
HETATM   12  N5  UNL     1      27.058   3.149  51.141  1.00  0.00    -0.304 N 
HETATM   13  H19 UNL     1      26.874   3.172  49.152  1.00  0.00     0.147 HD
HETATM   14  H20 UNL     1      27.930   3.142  51.747  1.00  0.00     0.182 HD
ENDROOT
BRANCH   1  15
HETATM   15  N1  UNL     1      22.444   1.161  51.455  1.00  0.00    -0.370 N 
HETATM   16  H8  UNL     1      21.980   0.817  50.595  1.00  0.00     0.161 HD
BRANCH  15  17
HETATM   17  C5  UNL     1      21.386   1.524  52.384  1.00  0.00     0.148 C 
BRANCH  17  18
HETATM   18  C4  UNL     1      20.371   2.424  51.781  1.00  0.00    -0.007 C 
HETATM   19  C3  UNL     1      20.503   3.733  51.662  1.00  0.00    -0.003 C 
BRANCH  19  20
HETATM   20  C2  UNL     1      21.673   4.474  52.108  1.00  0.00    -0.011 C 
HETATM   21  C1  UNL     1      22.050   5.614  51.561  1.00  0.00     0.011 C 
ENDBRANCH  19  20
ENDBRANCH  17  18
ENDBRANCH  15  17
ENDBRANCH   1  15
BRANCH  10  22
HETATM   22  C13 UNL     1      26.001   5.819  48.952  1.00  0.00    -0.057 A 
HETATM   23  C14 UNL     1      25.002   6.587  48.548  1.00  0.00     0.004 A 
HETATM   24  C15 UNL     1      25.290   7.672  47.621  1.00  0.00    -0.004 A 
HETATM   25  C16 UNL     1      26.552   7.799  47.256  1.00  0.00    -0.026 A 
HETATM   26  C17 UNL     1      27.733   7.012  47.637  1.00  0.00     0.031 A 
HETATM   27  C18 UNL     1      27.441   5.885  48.598  1.00  0.00     0.040 A 
ENDBRANCH  10  22
TORSDOF 5
ENDMDL
MODEL 9
REMARK VINA RESULT:      -7.4      2.890      5.109
REMARK  5 active torsions:
REMARK  status: ('A' for Active; 'I' for Inactive)
REMARK    1  A    between atoms: C2_2  and  C3_3 
REMARK    2  A    between atoms: C4_4  and  C5_5 
REMARK    3  A    between atoms: C5_5  and  N1_6 
REMARK    4  A    between atoms: N1_6  and  C6_7 
REMARK    5  A    between atoms: C12_16  and  C13_17 
ROOT
HETATM    1  C6  UNL     1      21.673   0.971  50.955  1.00  0.00     0.140 A 
HETATM    2  N2  UNL     1      21.434   0.312  52.085  1.00  0.00    -0.204 NA
HETATM    3  C7  UNL     1      22.359   0.179  53.049  1.00  0.00     0.201 A 
HETATM    4 BR1  UNL     1      21.873  -0.799  54.629  1.00  0.00    -0.006 Br
HETATM    5  N3  UNL     1      23.592   0.704  52.939  1.00  0.00    -0.203 NA
HETATM    6  C8  UNL     1      23.912   1.378  51.839  1.00  0.00     0.154 A 
HETATM    7  C9  UNL     1      22.941   1.499  50.863  1.00  0.00     0.056 A 
HETATM    8  C10 UNL     1      23.121   2.194  49.597  1.00  0.00     0.017 C 
HETATM    9  C11 UNL     1      24.044   3.124  49.303  1.00  0.00    -0.000 C 
HETATM   10  C12 UNL     1      25.098   3.636  50.252  1.00  0.00     0.128 C 
HETATM   11  N4  UNL     1      25.886   2.546  50.786  1.00  0.00    -0.227 NA
HETATM   12  N5  UNL     1      25.263   1.887  51.853  1.00  0.00    -0.304 N 
HETATM   13  H19 UNL     1      25.994   1.842  49.995  1.00  0.00     0.147 HD
HETATM   14  H20 UNL     1      25.743   1.705  52.782  1.00  0.00     0.182 HD
ENDROOT
BRANCH   1  15
HETATM   15  N1  UNL     1      20.664   1.090  49.964  1.00  0.00    -0.370 N 
HETATM   16  H8  UNL     1      20.514   0.720  49.010  1.00  0.00     0.161 HD
BRANCH  15  17
HETATM   17  C5  UNL     1      19.518   1.928  50.274  1.00  0.00     0.148 C 
BRANCH  17  18
HETATM   18  C4  UNL     1      19.567   3.249  49.598  1.00  0.00    -0.007 C 
HETATM   19  C3  UNL     1      20.066   4.349  50.134  1.00  0.00    -0.003 C 
BRANCH  19  20
HETATM   20  C2  UNL     1      20.641   4.412  51.470  1.00  0.00    -0.011 C 
HETATM   21  C1  UNL     1      21.810   4.969  51.720  1.00  0.00     0.011 C 
ENDBRANCH  19  20
ENDBRANCH  17  18
ENDBRANCH  15  17
ENDBRANCH   1  15
BRANCH  10  22
HETATM   22  C13 UNL     1      25.967   4.606  49.583  1.00  0.00    -0.057 A 
HETATM   23  C14 UNL     1      27.146   4.253  49.096  1.00  0.00     0.004 A 
HETATM   24  C15 UNL     1      27.960   5.269  48.443  1.00  0.00    -0.004 A 
HETATM   25  C16 UNL     1      27.439   6.480  48.393  1.00  0.00    -0.026 A 
HETATM   26  C17 UNL     1      26.153   6.981  48.895  1.00  0.00     0.031 A 
HETATM   27  C18 UNL     1      25.303   5.934  49.574  1.00  0.00     0.040 A 
ENDBRANCH  10  22
TORSDOF 5
ENDMDL
