MODEL 1
REMARK VINA RESULT:      -9.3      0.000      0.000
REMARK  1 active torsions:
REMARK  status: ('A' for Active; 'I' for Inactive)
REMARK    1  A    between atoms: C7_9  and  C8_10 
ROOT
HETATM    1  F1  UNL     1      25.769  -0.562  54.767  1.00  0.00    -0.206 F 
HETATM    2  C1  UNL     1      24.957   0.075  53.873  1.00  0.00     0.118 A 
HETATM    3  C2  UNL     1      23.772  -0.500  53.401  1.00  0.00     0.043 A 
HETATM    4  C3  UNL     1      23.034   0.259  52.489  1.00  0.00     0.014 A 
HETATM    5  C4  UNL     1      23.409   1.484  52.061  1.00  0.00    -0.007 A 
HETATM    6  C5  UNL     1      24.585   2.024  52.547  1.00  0.00     0.041 A 
HETATM    7  C6  UNL     1      25.355   1.327  53.445  1.00  0.00     0.072 A 
HETATM    8  N1  UNL     1      24.935   3.314  52.067  1.00  0.00    -0.358 N 
HETATM    9  C7  UNL     1      24.126   4.115  51.121  1.00  0.00     0.151 C 
HETATM   10  C14 UNL     1      23.347   5.149  51.855  1.00  0.00     0.062 C 
HETATM   11  C15 UNL     1      21.987   5.308  51.312  1.00  0.00    -0.015 C 
HETATM   12  C16 UNL     1      20.771   5.396  50.774  1.00  0.00     0.043 C 
HETATM   13  C17 UNL     1      20.032   4.692  49.712  1.00  0.00    -0.025 C 
HETATM   14  C18 UNL     1      19.811   3.788  48.742  1.00  0.00    -0.024 C 
HETATM   15  C19 UNL     1      20.617   2.694  48.170  1.00  0.00     0.083 C 
HETATM   16  C20 UNL     1      21.917   2.515  48.924  1.00  0.00     0.038 C 
HETATM   17  N2  UNL     1      23.079   3.049  49.068  1.00  0.00    -0.183 NA
HETATM   18  N3  UNL     1      23.297   3.182  50.447  1.00  0.00    -0.262 N 
HETATM   19  C21 UNL     1      22.522   2.118  51.120  1.00  0.00     0.148 C 
HETATM   20  C22 UNL     1      22.141   1.360  49.892  1.00  0.00     0.088 C 
HETATM   21  H4  UNL     1      25.838   3.714  52.419  1.00  0.00     0.162 HD
ENDROOT
BRANCH   9  22
HETATM   22  C8  UNL     1      25.149   4.712  50.198  1.00  0.00    -0.008 A 
HETATM   23  C9  UNL     1      25.311   5.922  49.563  1.00  0.00     0.011 A 
HETATM   24  C10 UNL     1      26.397   6.138  48.767  1.00  0.00     0.001 A 
HETATM   25  C11 UNL     1      27.371   5.210  48.543  1.00  0.00     0.000 A 
HETATM   26  C12 UNL     1      27.240   4.003  49.157  1.00  0.00     0.001 A 
HETATM   27  C13 UNL     1      26.140   3.742  49.982  1.00  0.00     0.011 A 
ENDBRANCH   9  22
TORSDOF 1
ENDMDL
MODEL 2
REMARK VINA RESULT:      -8.8      2.661      4.198
REMARK  1 active torsions:
REMARK  status: ('A' for Active; 'I' for Inactive)
REMARK    1  A    between atoms: C7_9  and  C8_10 
ROOT
HETATM    1  F1  UNL     1      18.300  -1.798  53.847  1.00  0.00    -0.206 F 
HETATM    2  C1  UNL     1      18.945  -0.878  53.072  1.00  0.00     0.118 A 
HETATM    3  C2  UNL     1      18.349  -0.306  51.942  1.00  0.00     0.043 A 
HETATM    4  C3  UNL     1      19.119   0.622  51.237  1.00  0.00     0.014 A 
HETATM    5  C4  UNL     1      20.374   0.975  51.593  1.00  0.00    -0.007 A 
HETATM    6  C5  UNL     1      20.933   0.392  52.714  1.00  0.00     0.041 A 
HETATM    7  C6  UNL     1      20.227  -0.528  53.449  1.00  0.00     0.072 A 
HETATM    8  N1  UNL     1      22.253   0.796  53.046  1.00  0.00    -0.358 N 
HETATM    9  C7  UNL     1      23.044   1.803  52.303  1.00  0.00     0.151 C 
HETATM   10  C14 UNL     1      23.002   3.114  53.005  1.00  0.00     0.062 C 
HETATM   11  C15 UNL     1      22.885   4.242  52.065  1.00  0.00    -0.015 C 
HETATM   12  C16 UNL     1      22.774   5.214  51.160  1.00  0.00     0.043 C 
HETATM   13  C17 UNL     1      22.624   5.283  49.696  1.00  0.00    -0.025 C 
HETATM   14  C18 UNL     1      22.491   4.827  48.439  1.00  0.00    -0.024 C 
HETATM   15  C19 UNL     1      22.405   3.478  47.850  1.00  0.00     0.083 C 
HETATM   16  C20 UNL     1      22.358   2.411  48.923  1.00  0.00     0.038 C 
HETATM   17  N2  UNL     1      23.112   1.797  49.764  1.00  0.00    -0.183 NA
HETATM   18  N3  UNL     1      22.467   1.856  51.008  1.00  0.00    -0.262 N 
HETATM   19  C21 UNL     1      21.015   1.948  50.747  1.00  0.00     0.148 C 
HETATM   20  C22 UNL     1      21.072   1.677  49.280  1.00  0.00     0.088 C 
HETATM   21  H4  UNL     1      22.685   0.338  53.884  1.00  0.00     0.162 HD
ENDROOT
BRANCH   9  22
HETATM   22  C8  UNL     1      24.424   1.212  52.267  1.00  0.00    -0.008 A 
HETATM   23  C9  UNL     1      25.628   1.562  51.697  1.00  0.00     0.011 A 
HETATM   24  C10 UNL     1      26.724   0.769  51.871  1.00  0.00     0.001 A 
HETATM   25  C11 UNL     1      26.718  -0.387  52.594  1.00  0.00     0.000 A 
HETATM   26  C12 UNL     1      25.543  -0.760  53.170  1.00  0.00     0.001 A 
HETATM   27  C13 UNL     1      24.395   0.025  53.015  1.00  0.00     0.011 A 
ENDBRANCH   9  22
TORSDOF 1
ENDMDL
MODEL 3
REMARK VINA RESULT:      -8.8      2.502      5.476
REMARK  1 active torsions:
REMARK  status: ('A' for Active; 'I' for Inactive)
REMARK    1  A    between atoms: C7_9  and  C8_10 
ROOT
HETATM    1  F1  UNL     1      29.853   5.734  47.869  1.00  0.00    -0.206 F 
HETATM    2  C1  UNL     1      28.533   5.846  48.204  1.00  0.00     0.118 A 
HETATM    3  C2  UNL     1      27.846   7.062  48.124  1.00  0.00     0.043 A 
HETATM    4  C3  UNL     1      26.499   7.038  48.496  1.00  0.00     0.014 A 
HETATM    5  C4  UNL     1      25.860   5.924  48.916  1.00  0.00    -0.007 A 
HETATM    6  C5  UNL     1      26.568   4.740  48.982  1.00  0.00     0.041 A 
HETATM    7  C6  UNL     1      27.894   4.698  48.631  1.00  0.00     0.072 A 
HETATM    8  N1  UNL     1      25.851   3.598  49.429  1.00  0.00    -0.358 N 
HETATM    9  C7  UNL     1      24.416   3.586  49.793  1.00  0.00     0.151 C 
HETATM   10  C14 UNL     1      23.604   3.038  48.673  1.00  0.00     0.062 C 
HETATM   11  C15 UNL     1      22.339   3.772  48.495  1.00  0.00    -0.015 C 
HETATM   12  C16 UNL     1      21.217   4.482  48.387  1.00  0.00     0.043 C 
HETATM   13  C17 UNL     1      20.651   5.670  49.048  1.00  0.00    -0.025 C 
HETATM   14  C18 UNL     1      20.598   6.715  49.892  1.00  0.00    -0.024 C 
HETATM   15  C19 UNL     1      21.535   7.265  50.889  1.00  0.00     0.083 C 
HETATM   16  C20 UNL     1      22.862   6.539  50.856  1.00  0.00     0.038 C 
HETATM   17  N2  UNL     1      23.414   5.434  51.217  1.00  0.00    -0.183 NA
HETATM   18  N3  UNL     1      24.092   4.934  50.096  1.00  0.00    -0.262 N 
HETATM   19  C21 UNL     1      24.470   6.090  49.257  1.00  0.00     0.148 C 
HETATM   20  C22 UNL     1      24.110   7.157  50.237  1.00  0.00     0.088 C 
HETATM   21  H4  UNL     1      26.394   2.704  49.500  1.00  0.00     0.162 HD
ENDROOT
BRANCH   9  22
HETATM   22  C8  UNL     1      24.369   2.719  51.017  1.00  0.00    -0.008 A 
HETATM   23  C9  UNL     1      23.387   2.040  51.703  1.00  0.00     0.011 A 
HETATM   24  C10 UNL     1      23.702   1.321  52.818  1.00  0.00     0.001 A 
HETATM   25  C11 UNL     1      24.964   1.221  53.326  1.00  0.00     0.000 A 
HETATM   26  C12 UNL     1      25.957   1.880  52.671  1.00  0.00     0.001 A 
HETATM   27  C13 UNL     1      25.676   2.630  51.523  1.00  0.00     0.011 A 
ENDBRANCH   9  22
TORSDOF 1
ENDMDL
MODEL 4
REMARK VINA RESULT:      -8.7      2.507      5.250
REMARK  1 active torsions:
REMARK  status: ('A' for Active; 'I' for Inactive)
REMARK    1  A    between atoms: C7_9  and  C8_10 
ROOT
HETATM    1  F1  UNL     1      26.155  -0.499  54.616  1.00  0.00    -0.206 F 
HETATM    2  C1  UNL     1      25.401   0.372  53.883  1.00  0.00     0.118 A 
HETATM    3  C2  UNL     1      25.714   1.733  53.791  1.00  0.00     0.043 A 
HETATM    4  C3  UNL     1      24.859   2.514  53.009  1.00  0.00     0.014 A 
HETATM    5  C4  UNL     1      23.780   2.022  52.362  1.00  0.00    -0.007 A 
HETATM    6  C5  UNL     1      23.500   0.673  52.473  1.00  0.00     0.041 A 
HETATM    7  C6  UNL     1      24.301  -0.147  53.227  1.00  0.00     0.072 A 
HETATM    8  N1  UNL     1      22.356   0.205  51.774  1.00  0.00    -0.358 N 
HETATM    9  C7  UNL     1      21.477   1.043  50.927  1.00  0.00     0.151 C 
HETATM   10  C14 UNL     1      21.814   0.855  49.490  1.00  0.00     0.062 C 
HETATM   11  C15 UNL     1      21.764   2.121  48.739  1.00  0.00    -0.015 C 
HETATM   12  C16 UNL     1      21.704   3.301  48.123  1.00  0.00     0.043 C 
HETATM   13  C17 UNL     1      21.457   4.695  48.532  1.00  0.00    -0.025 C 
HETATM   14  C18 UNL     1      21.208   5.719  49.366  1.00  0.00    -0.024 C 
HETATM   15  C19 UNL     1      21.022   5.820  50.825  1.00  0.00     0.083 C 
HETATM   16  C20 UNL     1      21.271   4.491  51.504  1.00  0.00     0.038 C 
HETATM   17  N2  UNL     1      20.725   3.342  51.698  1.00  0.00    -0.183 NA
HETATM   18  N3  UNL     1      21.686   2.375  51.369  1.00  0.00    -0.262 N 
HETATM   19  C21 UNL     1      23.015   2.976  51.602  1.00  0.00     0.148 C 
HETATM   20  C22 UNL     1      22.542   4.210  52.297  1.00  0.00     0.088 C 
HETATM   21  H4  UNL     1      22.131  -0.814  51.876  1.00  0.00     0.162 HD
ENDROOT
BRANCH   9  22
HETATM   22  C8  UNL     1      20.096   0.560  51.264  1.00  0.00    -0.008 A 
HETATM   23  C9  UNL     1      18.865   0.599  50.649  1.00  0.00     0.011 A 
HETATM   24  C10 UNL     1      17.778   0.042  51.256  1.00  0.00     0.001 A 
HETATM   25  C11 UNL     1      17.820  -0.573  52.472  1.00  0.00     0.000 A 
HETATM   26  C12 UNL     1      19.022  -0.629  53.106  1.00  0.00     0.001 A 
HETATM   27  C13 UNL     1      20.162  -0.069  52.517  1.00  0.00     0.011 A 
ENDBRANCH   9  22
TORSDOF 1
ENDMDL
MODEL 5
REMARK VINA RESULT:      -8.2      2.142      5.242
REMARK  1 active torsions:
REMARK  status: ('A' for Active; 'I' for Inactive)
REMARK    1  A    between atoms: C7_9  and  C8_10 
ROOT
HETATM    1  F1  UNL     1      28.358   5.123  48.888  1.00  0.00    -0.206 F 
HETATM    2  C1  UNL     1      26.992   5.117  48.905  1.00  0.00     0.118 A 
HETATM    3  C2  UNL     1      26.239   6.261  48.615  1.00  0.00     0.043 A 
HETATM    4  C3  UNL     1      24.850   6.119  48.668  1.00  0.00     0.014 A 
HETATM    5  C4  UNL     1      24.229   4.959  48.976  1.00  0.00    -0.007 A 
HETATM    6  C5  UNL     1      25.002   3.849  49.256  1.00  0.00     0.041 A 
HETATM    7  C6  UNL     1      26.373   3.924  49.221  1.00  0.00     0.072 A 
HETATM    8  N1  UNL     1      24.302   2.654  49.574  1.00  0.00    -0.358 N 
HETATM    9  C7  UNL     1      22.829   2.515  49.597  1.00  0.00     0.151 C 
HETATM   10  C14 UNL     1      22.352   1.869  48.345  1.00  0.00     0.062 C 
HETATM   11  C15 UNL     1      21.105   2.476  47.848  1.00  0.00    -0.015 C 
HETATM   12  C16 UNL     1      19.981   3.074  47.453  1.00  0.00     0.043 C 
HETATM   13  C17 UNL     1      19.176   4.218  47.914  1.00  0.00    -0.025 C 
HETATM   14  C18 UNL     1      18.837   5.271  48.677  1.00  0.00    -0.024 C 
HETATM   15  C19 UNL     1      19.464   5.929  49.838  1.00  0.00     0.083 C 
HETATM   16  C20 UNL     1      20.820   5.331  50.144  1.00  0.00     0.038 C 
HETATM   17  N2  UNL     1      21.366   4.291  50.669  1.00  0.00    -0.183 NA
HETATM   18  N3  UNL     1      22.328   3.832  49.758  1.00  0.00    -0.262 N 
HETATM   19  C21 UNL     1      22.790   5.000  48.980  1.00  0.00     0.148 C 
HETATM   20  C22 UNL     1      22.119   6.050  49.803  1.00  0.00     0.088 C 
HETATM   21  H4  UNL     1      24.889   1.817  49.807  1.00  0.00     0.162 HD
ENDROOT
BRANCH   9  22
HETATM   22  C8  UNL     1      22.572   1.674  50.814  1.00  0.00    -0.008 A 
HETATM   23  C9  UNL     1      21.578   0.814  51.221  1.00  0.00     0.011 A 
HETATM   24  C10 UNL     1      21.663   0.193  52.432  1.00  0.00     0.001 A 
HETATM   25  C11 UNL     1      22.697   0.367  53.304  1.00  0.00     0.000 A 
HETATM   26  C12 UNL     1      23.695   1.212  52.931  1.00  0.00     0.001 A 
HETATM   27  C13 UNL     1      23.646   1.869  51.696  1.00  0.00     0.011 A 
ENDBRANCH   9  22
TORSDOF 1
ENDMDL
MODEL 6
REMARK VINA RESULT:      -8.1      5.077      8.583
REMARK  1 active torsions:
REMARK  status: ('A' for Active; 'I' for Inactive)
REMARK    1  A    between atoms: C7_9  and  C8_10 
ROOT
HETATM    1  F1  UNL     1      25.212   3.586  49.497  1.00  0.00    -0.206 F 
HETATM    2  C1  UNL     1      25.923   4.663  49.050  1.00  0.00     0.118 A 
HETATM    3  C2  UNL     1      25.307   5.872  48.707  1.00  0.00     0.043 A 
HETATM    4  C3  UNL     1      26.151   6.893  48.264  1.00  0.00     0.014 A 
HETATM    5  C4  UNL     1      27.492   6.762  48.158  1.00  0.00    -0.007 A 
HETATM    6  C5  UNL     1      28.068   5.555  48.506  1.00  0.00     0.041 A 
HETATM    7  C6  UNL     1      27.292   4.512  48.948  1.00  0.00     0.072 A 
HETATM    8  N1  UNL     1      29.480   5.467  48.377  1.00  0.00    -0.358 N 
HETATM    9  C7  UNL     1      30.361   6.570  47.932  1.00  0.00     0.151 C 
HETATM   10  C14 UNL     1      31.009   7.217  49.104  1.00  0.00     0.062 C 
HETATM   11  C15 UNL     1      31.080   8.682  48.960  1.00  0.00    -0.015 C 
HETATM   12  C16 UNL     1      31.106  10.000  48.766  1.00  0.00     0.043 C 
HETATM   13  C17 UNL     1      30.605  10.926  47.736  1.00  0.00    -0.025 C 
HETATM   14  C18 UNL     1      29.976  11.313  46.613  1.00  0.00    -0.024 C 
HETATM   15  C19 UNL     1      29.230  10.590  45.566  1.00  0.00     0.083 C 
HETATM   16  C20 UNL     1      29.073   9.126  45.913  1.00  0.00     0.038 C 
HETATM   17  N2  UNL     1      29.735   8.023  45.946  1.00  0.00    -0.183 NA
HETATM   18  N3  UNL     1      29.521   7.458  47.212  1.00  0.00    -0.262 N 
HETATM   19  C21 UNL     1      28.201   7.922  47.684  1.00  0.00     0.148 C 
HETATM   20  C22 UNL     1      27.753   8.545  46.403  1.00  0.00     0.088 C 
HETATM   21  H4  UNL     1      29.914   4.544  48.620  1.00  0.00     0.162 HD
ENDROOT
BRANCH   9  22
HETATM   22  C8  UNL     1      31.349   5.890  47.029  1.00  0.00    -0.008 A 
HETATM   23  C9  UNL     1      32.241   6.301  46.064  1.00  0.00     0.011 A 
HETATM   24  C10 UNL     1      33.016   5.385  45.414  1.00  0.00     0.001 A 
HETATM   25  C11 UNL     1      32.972   4.044  45.656  1.00  0.00     0.000 A 
HETATM   26  C12 UNL     1      32.101   3.607  46.606  1.00  0.00     0.001 A 
HETATM   27  C13 UNL     1      31.288   4.514  47.295  1.00  0.00     0.011 A 
ENDBRANCH   9  22
TORSDOF 1
ENDMDL
MODEL 7
REMARK VINA RESULT:      -8.1      5.622      9.497
REMARK  1 active torsions:
REMARK  status: ('A' for Active; 'I' for Inactive)
REMARK    1  A    between atoms: C7_9  and  C8_10 
ROOT
HETATM    1  F1  UNL     1      24.614   5.790  49.230  1.00  0.00    -0.206 F 
HETATM    2  C1  UNL     1      25.930   5.874  48.874  1.00  0.00     0.118 A 
HETATM    3  C2  UNL     1      26.792   4.774  48.944  1.00  0.00     0.043 A 
HETATM    4  C3  UNL     1      28.114   4.996  48.551  1.00  0.00     0.014 A 
HETATM    5  C4  UNL     1      28.575   6.192  48.122  1.00  0.00    -0.007 A 
HETATM    6  C5  UNL     1      27.698   7.258  48.065  1.00  0.00     0.041 A 
HETATM    7  C6  UNL     1      26.386   7.103  48.438  1.00  0.00     0.072 A 
HETATM    8  N1  UNL     1      28.230   8.492  47.608  1.00  0.00    -0.358 N 
HETATM    9  C7  UNL     1      29.628   8.702  47.169  1.00  0.00     0.151 C 
HETATM   10  C14 UNL     1      29.710   8.690  45.684  1.00  0.00     0.062 C 
HETATM   11  C15 UNL     1      30.910   7.985  45.200  1.00  0.00    -0.015 C 
HETATM   12  C16 UNL     1      32.012   7.330  44.834  1.00  0.00     0.043 C 
HETATM   13  C17 UNL     1      33.083   6.593  45.527  1.00  0.00    -0.025 C 
HETATM   14  C18 UNL     1      33.753   6.057  46.561  1.00  0.00    -0.024 C 
HETATM   15  C19 UNL     1      33.510   6.008  48.014  1.00  0.00     0.083 C 
HETATM   16  C20 UNL     1      32.166   6.608  48.368  1.00  0.00     0.038 C 
HETATM   17  N2  UNL     1      31.571   7.742  48.492  1.00  0.00    -0.183 NA
HETATM   18  N3  UNL     1      30.374   7.654  47.767  1.00  0.00    -0.262 N 
HETATM   19  C21 UNL     1      29.968   6.233  47.757  1.00  0.00     0.148 C 
HETATM   20  C22 UNL     1      30.969   5.746  48.752  1.00  0.00     0.088 C 
HETATM   21  H4  UNL     1      27.570   9.306  47.585  1.00  0.00     0.162 HD
ENDROOT
BRANCH   9  22
HETATM   22  C8  UNL     1      29.986  10.037  47.755  1.00  0.00    -0.008 A 
HETATM   23  C9  UNL     1      31.145  10.767  47.902  1.00  0.00     0.011 A 
HETATM   24  C10 UNL     1      31.112  11.991  48.503  1.00  0.00     0.001 A 
HETATM   25  C11 UNL     1      29.976  12.569  48.988  1.00  0.00     0.000 A 
HETATM   26  C12 UNL     1      28.814  11.873  48.859  1.00  0.00     0.001 A 
HETATM   27  C13 UNL     1      28.805  10.613  48.248  1.00  0.00     0.011 A 
ENDBRANCH   9  22
TORSDOF 1
ENDMDL
MODEL 8
REMARK VINA RESULT:      -8.1      6.978     10.724
REMARK  1 active torsions:
REMARK  status: ('A' for Active; 'I' for Inactive)
REMARK    1  A    between atoms: C7_9  and  C8_10 
ROOT
HETATM    1  F1  UNL     1      25.973   6.640  48.283  1.00  0.00    -0.206 F 
HETATM    2  C1  UNL     1      27.210   6.989  47.821  1.00  0.00     0.118 A 
HETATM    3  C2  UNL     1      27.401   8.058  46.939  1.00  0.00     0.043 A 
HETATM    4  C3  UNL     1      28.718   8.308  46.544  1.00  0.00     0.014 A 
HETATM    5  C4  UNL     1      29.776   7.582  46.968  1.00  0.00    -0.007 A 
HETATM    6  C5  UNL     1      29.552   6.533  47.839  1.00  0.00     0.041 A 
HETATM    7  C6  UNL     1      28.281   6.237  48.264  1.00  0.00     0.072 A 
HETATM    8  N1  UNL     1      30.696   5.801  48.255  1.00  0.00    -0.358 N 
HETATM    9  C7  UNL     1      32.087   6.098  47.848  1.00  0.00     0.151 C 
HETATM   10  C14 UNL     1      32.792   6.844  48.925  1.00  0.00     0.062 C 
HETATM   11  C15 UNL     1      33.659   7.907  48.387  1.00  0.00    -0.015 C 
HETATM   12  C16 UNL     1      34.419   8.851  47.833  1.00  0.00     0.043 C 
HETATM   13  C17 UNL     1      34.659   9.348  46.467  1.00  0.00    -0.025 C 
HETATM   14  C18 UNL     1      34.517   9.431  45.133  1.00  0.00    -0.024 C 
HETATM   15  C19 UNL     1      33.672   8.722  44.155  1.00  0.00     0.083 C 
HETATM   16  C20 UNL     1      32.702   7.786  44.841  1.00  0.00     0.038 C 
HETATM   17  N2  UNL     1      32.654   6.645  45.434  1.00  0.00    -0.183 NA
HETATM   18  N3  UNL     1      31.978   6.844  46.646  1.00  0.00    -0.262 N 
HETATM   19  C21 UNL     1      31.060   7.986  46.456  1.00  0.00     0.148 C 
HETATM   20  C22 UNL     1      31.220   8.109  44.977  1.00  0.00     0.088 C 
HETATM   21  H4  UNL     1      30.523   4.992  48.899  1.00  0.00     0.162 HD
ENDROOT
BRANCH   9  22
HETATM   22  C8  UNL     1      32.682   4.741  47.602  1.00  0.00    -0.008 A 
HETATM   23  C9  UNL     1      33.915   4.161  47.791  1.00  0.00     0.011 A 
HETATM   24  C10 UNL     1      34.119   2.857  47.446  1.00  0.00     0.001 A 
HETATM   25  C11 UNL     1      33.157   2.055  46.907  1.00  0.00     0.000 A 
HETATM   26  C12 UNL     1      31.926   2.599  46.708  1.00  0.00     0.001 A 
HETATM   27  C13 UNL     1      31.676   3.934  47.048  1.00  0.00     0.011 A 
ENDBRANCH   9  22
TORSDOF 1
ENDMDL
MODEL 9
REMARK VINA RESULT:      -7.9      7.618     11.927
REMARK  1 active torsions:
REMARK  status: ('A' for Active; 'I' for Inactive)
REMARK    1  A    between atoms: C7_9  and  C8_10 
ROOT
HETATM    1  F1  UNL     1      31.913  10.144  41.622  1.00  0.00    -0.206 F 
HETATM    2  C1  UNL     1      32.286   9.166  42.499  1.00  0.00     0.118 A 
HETATM    3  C2  UNL     1      33.310   8.258  42.209  1.00  0.00     0.043 A 
HETATM    4  C3  UNL     1      33.592   7.307  43.194  1.00  0.00     0.014 A 
HETATM    5  C4  UNL     1      32.935   7.235  44.373  1.00  0.00    -0.007 A 
HETATM    6  C5  UNL     1      31.930   8.148  44.627  1.00  0.00     0.041 A 
HETATM    7  C6  UNL     1      31.605   9.107  43.699  1.00  0.00     0.072 A 
HETATM    8  N1  UNL     1      31.271   8.031  45.879  1.00  0.00    -0.358 N 
HETATM    9  C7  UNL     1      31.602   7.034  46.922  1.00  0.00     0.151 C 
HETATM   10  C14 UNL     1      32.436   7.656  47.985  1.00  0.00     0.062 C 
HETATM   11  C15 UNL     1      33.502   6.753  48.453  1.00  0.00    -0.015 C 
HETATM   12  C16 UNL     1      34.444   5.888  48.825  1.00  0.00     0.043 C 
HETATM   13  C17 UNL     1      34.871   4.543  48.400  1.00  0.00    -0.025 C 
HETATM   14  C18 UNL     1      34.873   3.412  47.674  1.00  0.00    -0.024 C 
HETATM   15  C19 UNL     1      34.075   2.939  46.528  1.00  0.00     0.083 C 
HETATM   16  C20 UNL     1      33.139   4.017  46.026  1.00  0.00     0.038 C 
HETATM   17  N2  UNL     1      32.033   4.606  46.318  1.00  0.00    -0.183 NA
HETATM   18  N3  UNL     1      32.273   5.985  46.243  1.00  0.00    -0.262 N 
HETATM   19  C21 UNL     1      33.363   6.190  45.266  1.00  0.00     0.148 C 
HETATM   20  C22 UNL     1      33.408   4.792  44.742  1.00  0.00     0.088 C 
HETATM   21  H4  UNL     1      30.493   8.710  46.063  1.00  0.00     0.162 HD
ENDROOT
BRANCH   9  22
HETATM   22  C8  UNL     1      30.259   6.593  47.428  1.00  0.00    -0.008 A 
HETATM   23  C9  UNL     1      29.775   5.489  48.095  1.00  0.00     0.011 A 
HETATM   24  C10 UNL     1      28.451   5.408  48.414  1.00  0.00     0.001 A 
HETATM   25  C11 UNL     1      27.536   6.373  48.111  1.00  0.00     0.000 A 
HETATM   26  C12 UNL     1      27.984   7.476  47.452  1.00  0.00     0.001 A 
HETATM   27  C13 UNL     1      29.334   7.598  47.106  1.00  0.00     0.011 A 
ENDBRANCH   9  22
TORSDOF 1
ENDMDL
