MODEL 1
REMARK VINA RESULT:      -7.2      0.000      0.000
REMARK  3 active torsions:
REMARK  status: ('A' for Active; 'I' for Inactive)
REMARK    1  A    between atoms: C4_6  and  S1_7 
REMARK    2  A    between atoms: S1_7  and  C5_8 
REMARK    3  A    between atoms: C6_9  and  C7_10 
ROOT
HETATM    1  C7  UNL     1      24.958   1.425  52.678  1.00  0.00     0.030 C 
HETATM    2  C8  UNL     1      24.124   2.395  52.382  1.00  0.00     0.034 A 
HETATM    3  C9  UNL     1      22.672   2.251  52.396  1.00  0.00     0.054 A 
HETATM    4  C10 UNL     1      21.808   3.211  52.102  1.00  0.00     0.049 A 
HETATM    5 CL1  UNL     1      20.072   2.977  52.137  1.00  0.00    -0.083 Cl
HETATM    6  C11 UNL     1      22.363   4.507  51.738  1.00  0.00     0.027 A 
HETATM    7  C12 UNL     1      23.662   4.750  51.691  1.00  0.00     0.043 A 
HETATM    8  C13 UNL     1      23.959   6.141  51.295  1.00  0.00     0.206 A 
HETATM    9  N3  UNL     1      22.643   6.707  51.106  1.00  0.00    -0.295 NA
HETATM   10  C14 UNL     1      21.780   5.786  51.357  1.00  0.00     0.126 A 
HETATM   11  N4  UNL     1      24.561   3.697  52.013  1.00  0.00    -0.357 N 
HETATM   12  H13 UNL     1      25.607   3.875  51.981  1.00  0.00     0.166 HD
ENDROOT
BRANCH   1  13
HETATM   13  C6  UNL     1      24.541   0.105  53.051  1.00  0.00     0.009 C 
HETATM   14  C5  UNL     1      25.148  -0.542  54.063  1.00  0.00     0.053 C 
BRANCH  14  15
HETATM   15  S1  UNL     1      26.417   0.554  54.697  1.00  0.00    -0.064 SA
BRANCH  15  16
HETATM   16  C4  UNL     1      28.004  -0.044  54.127  1.00  0.00     0.172 A 
HETATM   17  N1  UNL     1      29.187   0.578  53.958  1.00  0.00    -0.339 N 
HETATM   18  C1  UNL     1      29.347   1.990  54.252  1.00  0.00     0.158 C 
HETATM   19  C2  UNL     1      30.039  -0.356  53.505  1.00  0.00     0.112 A 
HETATM   20  C3  UNL     1      29.368  -1.565  53.398  1.00  0.00     0.136 A 
HETATM   21  N2  UNL     1      28.102  -1.345  53.790  1.00  0.00    -0.235 NA
ENDBRANCH  15  16
ENDBRANCH  14  15
ENDBRANCH   1  13
TORSDOF 3
ENDMDL
MODEL 2
REMARK VINA RESULT:      -7.1      2.814      4.012
REMARK  3 active torsions:
REMARK  status: ('A' for Active; 'I' for Inactive)
REMARK    1  A    between atoms: C4_6  and  S1_7 
REMARK    2  A    between atoms: S1_7  and  C5_8 
REMARK    3  A    between atoms: C6_9  and  C7_10 
ROOT
HETATM    1  C7  UNL     1      24.569   1.434  52.458  1.00  0.00     0.030 C 
HETATM    2  C8  UNL     1      23.324   1.133  52.166  1.00  0.00     0.034 A 
HETATM    3  C9  UNL     1      22.718   1.362  50.859  1.00  0.00     0.054 A 
HETATM    4  C10 UNL     1      21.467   1.070  50.537  1.00  0.00     0.049 A 
HETATM    5 CL1  UNL     1      20.794   1.370  48.948  1.00  0.00    -0.083 Cl
HETATM    6  C11 UNL     1      20.642   0.472  51.578  1.00  0.00     0.027 A 
HETATM    7  C12 UNL     1      21.087   0.220  52.798  1.00  0.00     0.043 A 
HETATM    8  C13 UNL     1      20.052  -0.387  53.659  1.00  0.00     0.206 A 
HETATM    9  N3  UNL     1      18.910  -0.464  52.778  1.00  0.00    -0.295 NA
HETATM   10  C14 UNL     1      19.261   0.016  51.637  1.00  0.00     0.126 A 
HETATM   11  N4  UNL     1      22.435   0.547  53.108  1.00  0.00    -0.357 N 
HETATM   12  H13 UNL     1      22.808   0.351  54.082  1.00  0.00     0.166 HD
ENDROOT
BRANCH   1  13
HETATM   13  C6  UNL     1      25.483   2.025  51.525  1.00  0.00     0.009 C 
HETATM   14  C5  UNL     1      26.776   2.201  51.854  1.00  0.00     0.053 C 
BRANCH  14  15
HETATM   15  S1  UNL     1      26.979   1.581  53.524  1.00  0.00    -0.064 SA
BRANCH  15  16
HETATM   16  C4  UNL     1      28.130   0.213  53.474  1.00  0.00     0.172 A 
HETATM   17  N1  UNL     1      27.977  -1.073  53.105  1.00  0.00    -0.339 N 
HETATM   18  C1  UNL     1      26.697  -1.579  52.642  1.00  0.00     0.158 C 
HETATM   19  C2  UNL     1      29.177  -1.655  53.269  1.00  0.00     0.112 A 
HETATM   20  C3  UNL     1      30.074  -0.711  53.744  1.00  0.00     0.136 A 
HETATM   21  N2  UNL     1      29.399   0.445  53.864  1.00  0.00    -0.235 NA
ENDBRANCH  15  16
ENDBRANCH  14  15
ENDBRANCH   1  13
TORSDOF 3
ENDMDL
MODEL 3
REMARK VINA RESULT:      -7.1      3.767      7.847
REMARK  3 active torsions:
REMARK  status: ('A' for Active; 'I' for Inactive)
REMARK    1  A    between atoms: C4_6  and  S1_7 
REMARK    2  A    between atoms: S1_7  and  C5_8 
REMARK    3  A    between atoms: C6_9  and  C7_10 
ROOT
HETATM    1  C7  UNL     1      24.090   0.632  52.733  1.00  0.00     0.030 C 
HETATM    2  C8  UNL     1      25.364   0.381  52.936  1.00  0.00     0.034 A 
HETATM    3  C9  UNL     1      26.350   1.400  53.278  1.00  0.00     0.054 A 
HETATM    4  C10 UNL     1      27.638   1.176  53.486  1.00  0.00     0.049 A 
HETATM    5 CL1  UNL     1      28.775   2.445  53.895  1.00  0.00    -0.083 Cl
HETATM    6  C11 UNL     1      28.095  -0.201  53.364  1.00  0.00     0.027 A 
HETATM    7  C12 UNL     1      27.289  -1.205  53.058  1.00  0.00     0.043 A 
HETATM    8  C13 UNL     1      28.001  -2.497  52.997  1.00  0.00     0.206 A 
HETATM    9  N3  UNL     1      29.362  -2.127  53.310  1.00  0.00    -0.295 NA
HETATM   10  C14 UNL     1      29.387  -0.855  53.508  1.00  0.00     0.126 A 
HETATM   11  N4  UNL     1      25.912  -0.928  52.840  1.00  0.00    -0.357 N 
HETATM   12  H13 UNL     1      25.252  -1.722  52.594  1.00  0.00     0.166 HD
ENDROOT
BRANCH   1  13
HETATM   13  C6  UNL     1      23.516   1.943  52.824  1.00  0.00     0.009 C 
HETATM   14  C5  UNL     1      22.395   2.245  52.144  1.00  0.00     0.053 C 
BRANCH  14  15
HETATM   15  S1  UNL     1      21.916   0.770  51.244  1.00  0.00    -0.064 SA
BRANCH  15  16
HETATM   16  C4  UNL     1      20.340   0.215  51.882  1.00  0.00     0.172 A 
HETATM   17  N1  UNL     1      19.995  -0.335  53.063  1.00  0.00    -0.339 N 
HETATM   18  C1  UNL     1      20.982  -0.579  54.099  1.00  0.00     0.158 C 
HETATM   19  C2  UNL     1      18.672  -0.555  53.001  1.00  0.00     0.112 A 
HETATM   20  C3  UNL     1      18.202  -0.134  51.766  1.00  0.00     0.136 A 
HETATM   21  N2  UNL     1      19.260   0.341  51.087  1.00  0.00    -0.235 NA
ENDBRANCH  15  16
ENDBRANCH  14  15
ENDBRANCH   1  13
TORSDOF 3
ENDMDL
MODEL 4
REMARK VINA RESULT:      -7.0      3.315      7.088
REMARK  3 active torsions:
REMARK  status: ('A' for Active; 'I' for Inactive)
REMARK    1  A    between atoms: C4_6  and  S1_7 
REMARK    2  A    between atoms: S1_7  and  C5_8 
REMARK    3  A    between atoms: C6_9  and  C7_10 
ROOT
HETATM    1  C7  UNL     1      24.377   1.711  52.803  1.00  0.00     0.030 C 
HETATM    2  C8  UNL     1      25.523   1.102  53.007  1.00  0.00     0.034 A 
HETATM    3  C9  UNL     1      26.696   1.750  53.584  1.00  0.00     0.054 A 
HETATM    4  C10 UNL     1      27.862   1.162  53.800  1.00  0.00     0.049 A 
HETATM    5 CL1  UNL     1      29.238   1.993  54.497  1.00  0.00    -0.083 Cl
HETATM    6  C11 UNL     1      27.971  -0.243  53.429  1.00  0.00     0.027 A 
HETATM    7  C12 UNL     1      26.972  -0.929  52.898  1.00  0.00     0.043 A 
HETATM    8  C13 UNL     1      27.342  -2.330  52.615  1.00  0.00     0.206 A 
HETATM    9  N3  UNL     1      28.717  -2.392  53.052  1.00  0.00    -0.295 NA
HETATM   10  C14 UNL     1      29.040  -1.228  53.497  1.00  0.00     0.126 A 
HETATM   11  N4  UNL     1      25.734  -0.265  52.680  1.00  0.00    -0.357 N 
HETATM   12  H13 UNL     1      24.922  -0.801  52.255  1.00  0.00     0.166 HD
ENDROOT
BRANCH   1  13
HETATM   13  C6  UNL     1      24.141   3.089  53.124  1.00  0.00     0.009 C 
HETATM   14  C5  UNL     1      24.192   4.031  52.166  1.00  0.00     0.053 C 
BRANCH  14  15
HETATM   15  S1  UNL     1      24.577   3.192  50.629  1.00  0.00    -0.064 SA
BRANCH  15  16
HETATM   16  C4  UNL     1      25.707   4.222  49.700  1.00  0.00     0.172 A 
HETATM   17  N1  UNL     1      25.558   5.440  49.145  1.00  0.00    -0.339 N 
HETATM   18  C1  UNL     1      24.304   6.166  49.240  1.00  0.00     0.158 C 
HETATM   19  C2  UNL     1      26.735   5.734  48.567  1.00  0.00     0.112 A 
HETATM   20  C3  UNL     1      27.614   4.682  48.773  1.00  0.00     0.136 A 
HETATM   21  N2  UNL     1      26.950   3.752  49.481  1.00  0.00    -0.235 NA
ENDBRANCH  15  16
ENDBRANCH  14  15
ENDBRANCH   1  13
TORSDOF 3
ENDMDL
MODEL 5
REMARK VINA RESULT:      -6.9      2.609      2.803
REMARK  3 active torsions:
REMARK  status: ('A' for Active; 'I' for Inactive)
REMARK    1  A    between atoms: C4_6  and  S1_7 
REMARK    2  A    between atoms: S1_7  and  C5_8 
REMARK    3  A    between atoms: C6_9  and  C7_10 
ROOT
HETATM    1  C7  UNL     1      24.321   0.907  52.569  1.00  0.00     0.030 C 
HETATM    2  C8  UNL     1      23.272   1.045  51.790  1.00  0.00     0.034 A 
HETATM    3  C9  UNL     1      21.948   0.525  52.112  1.00  0.00     0.054 A 
HETATM    4  C10 UNL     1      20.874   0.647  51.347  1.00  0.00     0.049 A 
HETATM    5 CL1  UNL     1      19.307   0.000  51.788  1.00  0.00    -0.083 Cl
HETATM    6  C11 UNL     1      21.041   1.360  50.088  1.00  0.00     0.027 A 
HETATM    7  C12 UNL     1      22.195   1.873  49.695  1.00  0.00     0.043 A 
HETATM    8  C13 UNL     1      22.094   2.544  48.383  1.00  0.00     0.206 A 
HETATM    9  N3  UNL     1      20.703   2.360  48.037  1.00  0.00    -0.295 NA
HETATM   10  C14 UNL     1      20.144   1.705  48.994  1.00  0.00     0.126 A 
HETATM   11  N4  UNL     1      23.327   1.722  50.541  1.00  0.00    -0.357 N 
HETATM   12  H13 UNL     1      24.261   2.127  50.241  1.00  0.00     0.166 HD
ENDROOT
BRANCH   1  13
HETATM   13  C6  UNL     1      24.290   0.228  53.831  1.00  0.00     0.009 C 
HETATM   14  C5  UNL     1      25.180  -0.742  54.107  1.00  0.00     0.053 C 
BRANCH  14  15
HETATM   15  S1  UNL     1      26.237  -0.904  52.668  1.00  0.00    -0.064 SA
BRANCH  15  16
HETATM   16  C4  UNL     1      27.916  -0.540  53.166  1.00  0.00     0.172 A 
HETATM   17  N1  UNL     1      28.556   0.628  53.370  1.00  0.00    -0.339 N 
HETATM   18  C1  UNL     1      27.882   1.900  53.189  1.00  0.00     0.158 C 
HETATM   19  C2  UNL     1      29.810   0.309  53.734  1.00  0.00     0.112 A 
HETATM   20  C3  UNL     1      29.936  -1.072  53.753  1.00  0.00     0.136 A 
HETATM   21  N2  UNL     1      28.744  -1.578  53.395  1.00  0.00    -0.235 NA
ENDBRANCH  15  16
ENDBRANCH  14  15
ENDBRANCH   1  13
TORSDOF 3
ENDMDL
MODEL 6
REMARK VINA RESULT:      -6.8      4.198      6.444
REMARK  3 active torsions:
REMARK  status: ('A' for Active; 'I' for Inactive)
REMARK    1  A    between atoms: C4_6  and  S1_7 
REMARK    2  A    between atoms: S1_7  and  C5_8 
REMARK    3  A    between atoms: C6_9  and  C7_10 
ROOT
HETATM    1  C7  UNL     1      23.614   1.995  50.899  1.00  0.00     0.030 C 
HETATM    2  C8  UNL     1      22.885   1.194  51.643  1.00  0.00     0.034 A 
HETATM    3  C9  UNL     1      21.477   0.908  51.390  1.00  0.00     0.054 A 
HETATM    4  C10 UNL     1      20.719   0.106  52.122  1.00  0.00     0.049 A 
HETATM    5 CL1  UNL     1      19.031  -0.199  51.768  1.00  0.00    -0.083 Cl
HETATM    6  C11 UNL     1      21.352  -0.535  53.266  1.00  0.00     0.027 A 
HETATM    7  C12 UNL     1      22.621  -0.348  53.589  1.00  0.00     0.043 A 
HETATM    8  C13 UNL     1      23.014  -1.113  54.789  1.00  0.00     0.206 A 
HETATM    9  N3  UNL     1      21.790  -1.793  55.149  1.00  0.00    -0.295 NA
HETATM   10  C14 UNL     1      20.889  -1.458  54.293  1.00  0.00     0.126 A 
HETATM   11  N4  UNL     1      23.405   0.520  52.781  1.00  0.00    -0.357 N 
HETATM   12  H13 UNL     1      24.425   0.680  53.026  1.00  0.00     0.166 HD
ENDROOT
BRANCH   1  13
HETATM   13  C6  UNL     1      23.111   2.686  49.748  1.00  0.00     0.009 C 
HETATM   14  C5  UNL     1      23.853   3.629  49.139  1.00  0.00     0.053 C 
BRANCH  14  15
HETATM   15  S1  UNL     1      25.396   3.743  50.045  1.00  0.00    -0.064 SA
BRANCH  15  16
HETATM   16  C4  UNL     1      26.327   5.123  49.388  1.00  0.00     0.172 A 
HETATM   17  N1  UNL     1      26.163   6.454  49.513  1.00  0.00    -0.339 N 
HETATM   18  C1  UNL     1      25.074   7.011  50.295  1.00  0.00     0.158 C 
HETATM   19  C2  UNL     1      27.155   7.021  48.807  1.00  0.00     0.112 A 
HETATM   20  C3  UNL     1      27.935   6.023  48.243  1.00  0.00     0.136 A 
HETATM   21  N2  UNL     1      27.399   4.849  48.619  1.00  0.00    -0.235 NA
ENDBRANCH  15  16
ENDBRANCH  14  15
ENDBRANCH   1  13
TORSDOF 3
ENDMDL
MODEL 7
REMARK VINA RESULT:      -6.8      2.651      7.142
REMARK  3 active torsions:
REMARK  status: ('A' for Active; 'I' for Inactive)
REMARK    1  A    between atoms: C4_6  and  S1_7 
REMARK    2  A    between atoms: S1_7  and  C5_8 
REMARK    3  A    between atoms: C6_9  and  C7_10 
ROOT
HETATM    1  C7  UNL     1      24.634   2.414  53.182  1.00  0.00     0.030 C 
HETATM    2  C8  UNL     1      25.657   1.590  53.207  1.00  0.00     0.034 A 
HETATM    3  C9  UNL     1      25.628   0.242  52.653  1.00  0.00     0.054 A 
HETATM    4  C10 UNL     1      26.642  -0.609  52.665  1.00  0.00     0.049 A 
HETATM    5 CL1  UNL     1      26.546  -2.220  51.982  1.00  0.00    -0.083 Cl
HETATM    6  C11 UNL     1      27.879  -0.151  53.282  1.00  0.00     0.027 A 
HETATM    7  C12 UNL     1      28.018   1.052  53.816  1.00  0.00     0.043 A 
HETATM    8  C13 UNL     1      29.369   1.265  54.373  1.00  0.00     0.206 A 
HETATM    9  N3  UNL     1      30.029   0.010  54.099  1.00  0.00    -0.295 NA
HETATM   10  C14 UNL     1      29.187  -0.753  53.496  1.00  0.00     0.126 A 
HETATM   11  N4  UNL     1      26.908   1.939  53.785  1.00  0.00    -0.357 N 
HETATM   12  H13 UNL     1      27.003   2.908  54.209  1.00  0.00     0.166 HD
ENDROOT
BRANCH   1  13
HETATM   13  C6  UNL     1      23.363   2.085  52.606  1.00  0.00     0.009 C 
HETATM   14  C5  UNL     1      22.535   3.056  52.179  1.00  0.00     0.053 C 
BRANCH  14  15
HETATM   15  S1  UNL     1      23.356   4.618  52.494  1.00  0.00    -0.064 SA
BRANCH  15  16
HETATM   16  C4  UNL     1      23.932   5.270  50.931  1.00  0.00     0.172 A 
HETATM   17  N1  UNL     1      23.518   6.317  50.190  1.00  0.00    -0.339 N 
HETATM   18  C1  UNL     1      22.415   7.157  50.619  1.00  0.00     0.158 C 
HETATM   19  C2  UNL     1      24.311   6.344  49.106  1.00  0.00     0.112 A 
HETATM   20  C3  UNL     1      25.220   5.300  49.186  1.00  0.00     0.136 A 
HETATM   21  N2  UNL     1      24.964   4.645  50.330  1.00  0.00    -0.235 NA
ENDBRANCH  15  16
ENDBRANCH  14  15
ENDBRANCH   1  13
TORSDOF 3
ENDMDL
MODEL 8
REMARK VINA RESULT:      -6.8      3.402      7.711
REMARK  3 active torsions:
REMARK  status: ('A' for Active; 'I' for Inactive)
REMARK    1  A    between atoms: C4_6  and  S1_7 
REMARK    2  A    between atoms: S1_7  and  C5_8 
REMARK    3  A    between atoms: C6_9  and  C7_10 
ROOT
HETATM    1  C7  UNL     1      24.464   1.819  52.741  1.00  0.00     0.030 C 
HETATM    2  C8  UNL     1      25.595   1.186  52.960  1.00  0.00     0.034 A 
HETATM    3  C9  UNL     1      26.796   1.825  53.485  1.00  0.00     0.054 A 
HETATM    4  C10 UNL     1      27.947   1.212  53.714  1.00  0.00     0.049 A 
HETATM    5 CL1  UNL     1      29.358   2.035  54.348  1.00  0.00    -0.083 Cl
HETATM    6  C11 UNL     1      28.007  -0.212  53.413  1.00  0.00     0.027 A 
HETATM    7  C12 UNL     1      26.979  -0.892  52.933  1.00  0.00     0.043 A 
HETATM    8  C13 UNL     1      27.302  -2.317  52.717  1.00  0.00     0.206 A 
HETATM    9  N3  UNL     1      28.682  -2.399  53.137  1.00  0.00    -0.295 NA
HETATM   10  C14 UNL     1      29.047  -1.225  53.517  1.00  0.00     0.126 A 
HETATM   11  N4  UNL     1      25.759  -0.202  52.700  1.00  0.00    -0.357 N 
HETATM   12  H13 UNL     1      24.924  -0.734  52.315  1.00  0.00     0.166 HD
ENDROOT
BRANCH   1  13
HETATM   13  C6  UNL     1      24.276   3.218  52.995  1.00  0.00     0.009 C 
HETATM   14  C5  UNL     1      23.213   3.867  52.486  1.00  0.00     0.053 C 
BRANCH  14  15
HETATM   15  S1  UNL     1      22.264   2.664  51.555  1.00  0.00    -0.064 SA
BRANCH  15  16
HETATM   16  C4  UNL     1      22.335   3.117  49.826  1.00  0.00     0.172 A 
HETATM   17  N1  UNL     1      21.997   2.444  48.709  1.00  0.00    -0.339 N 
HETATM   18  C1  UNL     1      21.467   1.094  48.772  1.00  0.00     0.158 C 
HETATM   19  C2  UNL     1      22.259   3.268  47.681  1.00  0.00     0.112 A 
HETATM   20  C3  UNL     1      22.763   4.461  48.177  1.00  0.00     0.136 A 
HETATM   21  N2  UNL     1      22.801   4.343  49.515  1.00  0.00    -0.235 NA
ENDBRANCH  15  16
ENDBRANCH  14  15
ENDBRANCH   1  13
TORSDOF 3
ENDMDL
MODEL 9
REMARK VINA RESULT:      -6.7      3.737      7.396
REMARK  3 active torsions:
REMARK  status: ('A' for Active; 'I' for Inactive)
REMARK    1  A    between atoms: C4_6  and  S1_7 
REMARK    2  A    between atoms: S1_7  and  C5_8 
REMARK    3  A    between atoms: C6_9  and  C7_10 
ROOT
HETATM    1  C7  UNL     1      26.173   3.488  50.261  1.00  0.00     0.030 C 
HETATM    2  C8  UNL     1      26.362   2.687  51.286  1.00  0.00     0.034 A 
HETATM    3  C9  UNL     1      25.390   1.695  51.731  1.00  0.00     0.054 A 
HETATM    4  C10 UNL     1      25.553   0.876  52.759  1.00  0.00     0.049 A 
HETATM    5 CL1  UNL     1      24.346  -0.297  53.246  1.00  0.00    -0.083 Cl
HETATM    6  C11 UNL     1      26.806   0.982  53.494  1.00  0.00     0.027 A 
HETATM    7  C12 UNL     1      27.757   1.846  53.178  1.00  0.00     0.043 A 
HETATM    8  C13 UNL     1      28.923   1.750  54.080  1.00  0.00     0.206 A 
HETATM    9  N3  UNL     1      28.535   0.699  54.992  1.00  0.00    -0.295 NA
HETATM   10  C14 UNL     1      27.364   0.292  54.647  1.00  0.00     0.126 A 
HETATM   11  N4  UNL     1      27.548   2.710  52.069  1.00  0.00    -0.357 N 
HETATM   12  H13 UNL     1      28.302   3.408  51.803  1.00  0.00     0.166 HD
ENDROOT
BRANCH   1  13
HETATM   13  C6  UNL     1      24.986   3.483  49.457  1.00  0.00     0.009 C 
HETATM   14  C5  UNL     1      24.358   4.635  49.162  1.00  0.00     0.053 C 
BRANCH  14  15
HETATM   15  S1  UNL     1      25.290   5.954  49.941  1.00  0.00    -0.064 SA
BRANCH  15  16
HETATM   16  C4  UNL     1      26.245   6.783  48.677  1.00  0.00     0.172 A 
HETATM   17  N1  UNL     1      25.891   7.662  47.719  1.00  0.00    -0.339 N 
HETATM   18  C1  UNL     1      24.517   8.104  47.570  1.00  0.00     0.158 C 
HETATM   19  C2  UNL     1      27.017   7.957  47.048  1.00  0.00     0.112 A 
HETATM   20  C3  UNL     1      28.072   7.251  47.604  1.00  0.00     0.136 A 
HETATM   21  N2  UNL     1      27.567   6.526  48.617  1.00  0.00    -0.235 NA
ENDBRANCH  15  16
ENDBRANCH  14  15
ENDBRANCH   1  13
TORSDOF 3
ENDMDL
