MODEL 1
REMARK VINA RESULT:      -8.4      0.000      0.000
REMARK  11 active torsions:
REMARK  status: ('A' for Active; 'I' for Inactive)
REMARK    1  A    between atoms: N1_5  and  C5_6 
REMARK    2  A    between atoms: C5_6  and  C6_7 
REMARK    3  A    between atoms: C6_7  and  C7_8 
REMARK    4  A    between atoms: C7_8  and  C8_9 
REMARK    5  A    between atoms: C8_9  and  N2_10 
REMARK    6  A    between atoms: C10_12  and  C11_13 
REMARK    7  A    between atoms: C11_13  and  C12_14 
REMARK    8  A    between atoms: C13_15  and  C14_16 
REMARK    9  A    between atoms: C14_16  and  C15_17 
REMARK   10  A    between atoms: C15_17  and  C16_18 
REMARK   11  A    between atoms: C25_28  and  N4_29 
ROOT
HETATM    1  N2  UNL     1      24.197   0.090  53.331  1.00  0.00    -0.361 N 
HETATM    2  C9  UNL     1      23.579   1.385  53.037  1.00  0.00     0.160 A 
HETATM    3  C10 UNL     1      24.724   2.299  53.069  1.00  0.00    -0.043 A 
HETATM    4  C22 UNL     1      25.948   1.523  53.338  1.00  0.00    -0.005 A 
HETATM    5  C23 UNL     1      25.586   0.269  53.479  1.00  0.00     0.132 A 
HETATM    6  N3  UNL     1      26.656  -0.595  53.757  1.00  0.00    -0.245 NA
HETATM    7  C24 UNL     1      27.853  -0.153  53.857  1.00  0.00     0.127 A 
HETATM    8  C25 UNL     1      28.326   1.225  53.716  1.00  0.00     0.262 A 
HETATM    9  C26 UNL     1      27.246   2.201  53.407  1.00  0.00     0.083 A 
ENDROOT
BRANCH   3  10
HETATM   10  C11 UNL     1      24.202   3.458  52.829  1.00  0.00     0.051 C 
BRANCH  10  11
HETATM   11  C12 UNL     1      23.385   4.624  52.971  1.00  0.00    -0.021 C 
HETATM   12  C13 UNL     1      22.705   4.703  51.795  1.00  0.00    -0.030 C 
BRANCH  12  13
HETATM   13  C14 UNL     1      22.480   4.083  50.465  1.00  0.00     0.031 C 
BRANCH  13  14
HETATM   14  C15 UNL     1      23.044   4.898  49.324  1.00  0.00     0.042 C 
BRANCH  14  15
HETATM   15  C16 UNL     1      24.505   4.662  49.253  1.00  0.00    -0.058 A 
HETATM   16  C17 UNL     1      25.296   5.735  48.848  1.00  0.00     0.007 A 
HETATM   17  C18 UNL     1      26.653   5.611  48.748  1.00  0.00     0.001 A 
HETATM   18  C19 UNL     1      27.289   4.423  49.041  1.00  0.00     0.000 A 
HETATM   19  C20 UNL     1      26.545   3.328  49.448  1.00  0.00     0.001 A 
HETATM   20  C21 UNL     1      25.161   3.471  49.546  1.00  0.00     0.007 A 
ENDBRANCH  14  15
ENDBRANCH  13  14
ENDBRANCH  12  13
ENDBRANCH  10  11
ENDBRANCH   3  10
BRANCH   1  21
HETATM   21  C8  UNL     1      23.341  -1.050  53.486  1.00  0.00     0.125 C 
BRANCH  21  22
HETATM   22  C7  UNL     1      22.496  -0.988  54.750  1.00  0.00     0.022 C 
BRANCH  22  23
HETATM   23  C6  UNL     1      21.049  -1.223  54.466  1.00  0.00     0.032 C 
BRANCH  23  24
HETATM   24  C5  UNL     1      20.324  -0.109  53.795  1.00  0.00     0.273 C 
BRANCH  24  25
HETATM   25  N1  UNL     1      19.670  -0.237  52.584  1.00  0.00     0.092 N 
HETATM   26  C2  UNL     1      19.427   0.835  51.660  1.00  0.00     0.220 C 
HETATM   27  C1  UNL     1      20.520   0.919  50.636  1.00  0.00     0.043 C 
HETATM   28  C3  UNL     1      18.238  -0.063  51.145  1.00  0.00     0.065 C 
HETATM   29  C4  UNL     1      18.228  -0.555  52.590  1.00  0.00     0.275 C 
ENDBRANCH  24  25
ENDBRANCH  23  24
ENDBRANCH  22  23
ENDBRANCH  21  22
ENDBRANCH   1  21
BRANCH   8  30
HETATM   30  N4  UNL     1      29.023   1.691  54.907  1.00  0.00     0.088 N 
HETATM   31  H33 UNL     1      29.476   2.611  54.763  1.00  0.00     0.313 HD
HETATM   32  H34 UNL     1      29.766   0.993  55.120  1.00  0.00     0.313 HD
ENDBRANCH   8  30
TORSDOF 11
ENDMDL
MODEL 2
REMARK VINA RESULT:      -8.1      1.448      2.327
REMARK  11 active torsions:
REMARK  status: ('A' for Active; 'I' for Inactive)
REMARK    1  A    between atoms: N1_5  and  C5_6 
REMARK    2  A    between atoms: C5_6  and  C6_7 
REMARK    3  A    between atoms: C6_7  and  C7_8 
REMARK    4  A    between atoms: C7_8  and  C8_9 
REMARK    5  A    between atoms: C8_9  and  N2_10 
REMARK    6  A    between atoms: C10_12  and  C11_13 
REMARK    7  A    between atoms: C11_13  and  C12_14 
REMARK    8  A    between atoms: C13_15  and  C14_16 
REMARK    9  A    between atoms: C14_16  and  C15_17 
REMARK   10  A    between atoms: C15_17  and  C16_18 
REMARK   11  A    between atoms: C25_28  and  N4_29 
ROOT
HETATM    1  N2  UNL     1      24.406  -0.077  53.661  1.00  0.00    -0.361 N 
HETATM    2  C9  UNL     1      23.886   0.751  52.571  1.00  0.00     0.160 A 
HETATM    3  C10 UNL     1      25.072   1.498  52.144  1.00  0.00    -0.043 A 
HETATM    4  C22 UNL     1      26.225   1.067  52.954  1.00  0.00    -0.005 A 
HETATM    5  C23 UNL     1      25.786   0.167  53.802  1.00  0.00     0.132 A 
HETATM    6  N3  UNL     1      26.781  -0.329  54.658  1.00  0.00    -0.245 NA
HETATM    7  C24 UNL     1      27.987   0.091  54.581  1.00  0.00     0.127 A 
HETATM    8  C25 UNL     1      28.544   1.088  53.666  1.00  0.00     0.262 A 
HETATM    9  C26 UNL     1      27.548   1.653  52.716  1.00  0.00     0.083 A 
ENDROOT
BRANCH   3  10
HETATM   10  C11 UNL     1      24.635   2.254  51.189  1.00  0.00     0.051 C 
BRANCH  10  11
HETATM   11  C12 UNL     1      23.820   2.736  50.118  1.00  0.00    -0.021 C 
HETATM   12  C13 UNL     1      24.468   3.849  49.677  1.00  0.00    -0.030 C 
BRANCH  12  13
HETATM   13  C14 UNL     1      25.644   4.735  49.859  1.00  0.00     0.031 C 
BRANCH  13  14
HETATM   14  C15 UNL     1      26.887   4.226  49.167  1.00  0.00     0.042 C 
BRANCH  14  15
HETATM   15  C16 UNL     1      27.589   5.377  48.551  1.00  0.00    -0.058 A 
HETATM   16  C17 UNL     1      26.811   6.484  48.220  1.00  0.00     0.007 A 
HETATM   17  C18 UNL     1      27.370   7.589  47.644  1.00  0.00     0.001 A 
HETATM   18  C19 UNL     1      28.720   7.650  47.367  1.00  0.00     0.000 A 
HETATM   19  C20 UNL     1      29.533   6.574  47.677  1.00  0.00     0.001 A 
HETATM   20  C21 UNL     1      28.948   5.453  48.266  1.00  0.00     0.007 A 
ENDBRANCH  14  15
ENDBRANCH  13  14
ENDBRANCH  12  13
ENDBRANCH  10  11
ENDBRANCH   3  10
BRANCH   1  21
HETATM   21  C8  UNL     1      23.480  -0.883  54.402  1.00  0.00     0.125 C 
BRANCH  21  22
HETATM   22  C7  UNL     1      22.161  -1.091  53.672  1.00  0.00     0.022 C 
BRANCH  22  23
HETATM   23  C6  UNL     1      21.048  -0.319  54.300  1.00  0.00     0.032 C 
BRANCH  23  24
HETATM   24  C5  UNL     1      19.985   0.166  53.378  1.00  0.00     0.273 C 
BRANCH  24  25
HETATM   25  N1  UNL     1      20.236   0.895  52.231  1.00  0.00     0.092 N 
HETATM   26  C2  UNL     1      19.780   2.235  51.989  1.00  0.00     0.220 C 
HETATM   27  C1  UNL     1      20.816   3.237  52.405  1.00  0.00     0.043 C 
HETATM   28  C3  UNL     1      19.934   1.864  50.464  1.00  0.00     0.065 C 
HETATM   29  C4  UNL     1      19.615   0.457  50.965  1.00  0.00     0.275 C 
ENDBRANCH  24  25
ENDBRANCH  23  24
ENDBRANCH  22  23
ENDBRANCH  21  22
ENDBRANCH   1  21
BRANCH   8  30
HETATM   30  N4  UNL     1      29.165   2.199  54.377  1.00  0.00     0.088 N 
HETATM   31  H33 UNL     1      29.035   3.102  53.886  1.00  0.00     0.313 HD
HETATM   32  H34 UNL     1      30.186   1.999  54.425  1.00  0.00     0.313 HD
ENDBRANCH   8  30
TORSDOF 11
ENDMDL
MODEL 3
REMARK VINA RESULT:      -8.1      1.465      2.611
REMARK  11 active torsions:
REMARK  status: ('A' for Active; 'I' for Inactive)
REMARK    1  A    between atoms: N1_5  and  C5_6 
REMARK    2  A    between atoms: C5_6  and  C6_7 
REMARK    3  A    between atoms: C6_7  and  C7_8 
REMARK    4  A    between atoms: C7_8  and  C8_9 
REMARK    5  A    between atoms: C8_9  and  N2_10 
REMARK    6  A    between atoms: C10_12  and  C11_13 
REMARK    7  A    between atoms: C11_13  and  C12_14 
REMARK    8  A    between atoms: C13_15  and  C14_16 
REMARK    9  A    between atoms: C14_16  and  C15_17 
REMARK   10  A    between atoms: C15_17  and  C16_18 
REMARK   11  A    between atoms: C25_28  and  N4_29 
ROOT
HETATM    1  N2  UNL     1      25.147   0.292  53.218  1.00  0.00    -0.361 N 
HETATM    2  C9  UNL     1      24.975   1.144  52.039  1.00  0.00     0.160 A 
HETATM    3  C10 UNL     1      26.291   1.775  51.908  1.00  0.00    -0.043 A 
HETATM    4  C22 UNL     1      27.177   1.258  52.966  1.00  0.00    -0.005 A 
HETATM    5  C23 UNL     1      26.471   0.415  53.682  1.00  0.00     0.132 A 
HETATM    6  N3  UNL     1      27.187  -0.153  54.747  1.00  0.00    -0.245 NA
HETATM    7  C24 UNL     1      28.411   0.156  54.959  1.00  0.00     0.127 A 
HETATM    8  C25 UNL     1      29.255   1.085  54.207  1.00  0.00     0.262 A 
HETATM    9  C26 UNL     1      28.567   1.719  53.050  1.00  0.00     0.083 A 
ENDROOT
BRANCH   3  10
HETATM   10  C11 UNL     1      26.162   2.551  50.881  1.00  0.00     0.051 C 
BRANCH  10  11
HETATM   11  C12 UNL     1      26.431   3.183  49.626  1.00  0.00    -0.021 C 
HETATM   12  C13 UNL     1      25.636   4.288  49.628  1.00  0.00    -0.030 C 
BRANCH  12  13
HETATM   13  C14 UNL     1      24.632   5.073  50.388  1.00  0.00     0.031 C 
BRANCH  13  14
HETATM   14  C15 UNL     1      23.322   5.235  49.652  1.00  0.00     0.042 C 
BRANCH  14  15
HETATM   15  C16 UNL     1      22.818   3.891  49.284  1.00  0.00    -0.058 A 
HETATM   16  C17 UNL     1      22.659   3.630  47.925  1.00  0.00     0.007 A 
HETATM   17  C18 UNL     1      22.196   2.420  47.490  1.00  0.00     0.001 A 
HETATM   18  C19 UNL     1      21.868   1.416  48.377  1.00  0.00     0.000 A 
HETATM   19  C20 UNL     1      22.008   1.629  49.738  1.00  0.00     0.001 A 
HETATM   20  C21 UNL     1      22.483   2.869  50.166  1.00  0.00     0.007 A 
ENDBRANCH  14  15
ENDBRANCH  13  14
ENDBRANCH  12  13
ENDBRANCH  10  11
ENDBRANCH   3  10
BRANCH   1  21
HETATM   21  C8  UNL     1      24.003  -0.416  53.715  1.00  0.00     0.125 C 
BRANCH  21  22
HETATM   22  C7  UNL     1      22.745  -0.154  52.900  1.00  0.00     0.022 C 
BRANCH  22  23
HETATM   23  C6  UNL     1      21.645   0.409  53.737  1.00  0.00     0.032 C 
BRANCH  23  24
HETATM   24  C5  UNL     1      20.455   0.916  53.001  1.00  0.00     0.273 C 
BRANCH  24  25
HETATM   25  N1  UNL     1      19.511   0.097  52.410  1.00  0.00     0.092 N 
HETATM   26  C2  UNL     1      18.296   0.552  51.793  1.00  0.00     0.220 C 
HETATM   27  C1  UNL     1      18.488   0.765  50.321  1.00  0.00     0.043 C 
HETATM   28  C3  UNL     1      17.765  -0.903  52.088  1.00  0.00     0.065 C 
HETATM   29  C4  UNL     1      18.731  -0.816  53.268  1.00  0.00     0.275 C 
ENDBRANCH  24  25
ENDBRANCH  23  24
ENDBRANCH  22  23
ENDBRANCH  21  22
ENDBRANCH   1  21
BRANCH   8  30
HETATM   30  N4  UNL     1      29.789   2.148  55.049  1.00  0.00     0.088 N 
HETATM   31  H33 UNL     1      29.127   2.937  55.152  1.00  0.00     0.313 HD
HETATM   32  H34 UNL     1      30.650   2.503  54.584  1.00  0.00     0.313 HD
ENDBRANCH   8  30
TORSDOF 11
ENDMDL
MODEL 4
REMARK VINA RESULT:      -7.9      2.124      6.245
REMARK  11 active torsions:
REMARK  status: ('A' for Active; 'I' for Inactive)
REMARK    1  A    between atoms: N1_5  and  C5_6 
REMARK    2  A    between atoms: C5_6  and  C6_7 
REMARK    3  A    between atoms: C6_7  and  C7_8 
REMARK    4  A    between atoms: C7_8  and  C8_9 
REMARK    5  A    between atoms: C8_9  and  N2_10 
REMARK    6  A    between atoms: C10_12  and  C11_13 
REMARK    7  A    between atoms: C11_13  and  C12_14 
REMARK    8  A    between atoms: C13_15  and  C14_16 
REMARK    9  A    between atoms: C14_16  and  C15_17 
REMARK   10  A    between atoms: C15_17  and  C16_18 
REMARK   11  A    between atoms: C25_28  and  N4_29 
ROOT
HETATM    1  N2  UNL     1      25.439   2.374  51.887  1.00  0.00    -0.361 N 
HETATM    2  C9  UNL     1      24.226   1.623  52.216  1.00  0.00     0.160 A 
HETATM    3  C10 UNL     1      24.709   0.655  53.205  1.00  0.00    -0.043 A 
HETATM    4  C22 UNL     1      26.144   0.889  53.441  1.00  0.00    -0.005 A 
HETATM    5  C23 UNL     1      26.507   1.882  52.662  1.00  0.00     0.132 A 
HETATM    6  N3  UNL     1      27.866   2.210  52.769  1.00  0.00    -0.245 NA
HETATM    7  C24 UNL     1      28.639   1.571  53.564  1.00  0.00     0.127 A 
HETATM    8  C25 UNL     1      28.306   0.459  54.454  1.00  0.00     0.262 A 
HETATM    9  C26 UNL     1      26.874   0.060  54.406  1.00  0.00     0.083 A 
ENDROOT
BRANCH   3  10
HETATM   10  C11 UNL     1      23.656  -0.037  53.501  1.00  0.00     0.051 C 
BRANCH  10  11
HETATM   11  C12 UNL     1      22.793  -0.954  54.178  1.00  0.00    -0.021 C 
HETATM   12  C13 UNL     1      21.568  -0.364  54.125  1.00  0.00    -0.030 C 
BRANCH  12  13
HETATM   13  C14 UNL     1      20.794   0.814  53.662  1.00  0.00     0.031 C 
BRANCH  13  14
HETATM   14  C15 UNL     1      20.082   0.581  52.349  1.00  0.00     0.042 C 
BRANCH  14  15
HETATM   15  C16 UNL     1      20.754   1.383  51.300  1.00  0.00    -0.058 A 
HETATM   16  C17 UNL     1      21.270   0.685  50.210  1.00  0.00     0.007 A 
HETATM   17  C18 UNL     1      21.911   1.339  49.195  1.00  0.00     0.001 A 
HETATM   18  C19 UNL     1      22.071   2.709  49.212  1.00  0.00     0.000 A 
HETATM   19  C20 UNL     1      21.576   3.445  50.275  1.00  0.00     0.001 A 
HETATM   20  C21 UNL     1      20.924   2.763  51.302  1.00  0.00     0.007 A 
ENDBRANCH  14  15
ENDBRANCH  13  14
ENDBRANCH  12  13
ENDBRANCH  10  11
ENDBRANCH   3  10
BRANCH   1  21
HETATM   21  C8  UNL     1      25.364   3.361  50.849  1.00  0.00     0.125 C 
BRANCH  21  22
HETATM   22  C7  UNL     1      26.272   3.049  49.668  1.00  0.00     0.022 C 
BRANCH  22  23
HETATM   23  C6  UNL     1      27.052   4.245  49.234  1.00  0.00     0.032 C 
BRANCH  23  24
HETATM   24  C5  UNL     1      26.256   5.443  48.849  1.00  0.00     0.273 C 
BRANCH  24  25
HETATM   25  N1  UNL     1      26.210   6.607  49.594  1.00  0.00     0.092 N 
HETATM   26  C2  UNL     1      25.056   7.451  49.734  1.00  0.00     0.220 C 
HETATM   27  C1  UNL     1      24.267   7.081  50.955  1.00  0.00     0.043 C 
HETATM   28  C3  UNL     1      26.100   8.587  50.061  1.00  0.00     0.065 C 
HETATM   29  C4  UNL     1      27.001   7.768  49.140  1.00  0.00     0.275 C 
ENDBRANCH  24  25
ENDBRANCH  23  24
ENDBRANCH  22  23
ENDBRANCH  21  22
ENDBRANCH   1  21
BRANCH   8  30
HETATM   30  N4  UNL     1      29.111  -0.725  54.180  1.00  0.00     0.088 N 
HETATM   31  H33 UNL     1      29.651  -1.034  55.008  1.00  0.00     0.313 HD
HETATM   32  H34 UNL     1      29.784  -0.470  53.428  1.00  0.00     0.313 HD
ENDBRANCH   8  30
TORSDOF 11
ENDMDL
MODEL 5
REMARK VINA RESULT:      -7.9      2.134      5.364
REMARK  11 active torsions:
REMARK  status: ('A' for Active; 'I' for Inactive)
REMARK    1  A    between atoms: N1_5  and  C5_6 
REMARK    2  A    between atoms: C5_6  and  C6_7 
REMARK    3  A    between atoms: C6_7  and  C7_8 
REMARK    4  A    between atoms: C7_8  and  C8_9 
REMARK    5  A    between atoms: C8_9  and  N2_10 
REMARK    6  A    between atoms: C10_12  and  C11_13 
REMARK    7  A    between atoms: C11_13  and  C12_14 
REMARK    8  A    between atoms: C13_15  and  C14_16 
REMARK    9  A    between atoms: C14_16  and  C15_17 
REMARK   10  A    between atoms: C15_17  and  C16_18 
REMARK   11  A    between atoms: C25_28  and  N4_29 
ROOT
HETATM    1  N2  UNL     1      25.921   2.445  51.598  1.00  0.00    -0.361 N 
HETATM    2  C9  UNL     1      24.633   1.779  51.801  1.00  0.00     0.160 A 
HETATM    3  C10 UNL     1      24.928   0.839  52.886  1.00  0.00    -0.043 A 
HETATM    4  C22 UNL     1      26.334   1.007  53.294  1.00  0.00    -0.005 A 
HETATM    5  C23 UNL     1      26.851   1.937  52.525  1.00  0.00     0.132 A 
HETATM    6  N3  UNL     1      28.203   2.197  52.792  1.00  0.00    -0.245 NA
HETATM    7  C24 UNL     1      28.830   1.559  53.708  1.00  0.00     0.127 A 
HETATM    8  C25 UNL     1      28.321   0.514  54.597  1.00  0.00     0.262 A 
HETATM    9  C26 UNL     1      26.884   0.191  54.381  1.00  0.00     0.083 A 
ENDROOT
BRANCH   3  10
HETATM   10  C11 UNL     1      23.807   0.221  53.074  1.00  0.00     0.051 C 
BRANCH  10  11
HETATM   11  C12 UNL     1      22.855  -0.721  53.576  1.00  0.00    -0.021 C 
HETATM   12  C13 UNL     1      21.647  -0.171  53.274  1.00  0.00    -0.030 C 
BRANCH  12  13
HETATM   13  C14 UNL     1      20.945   0.980  52.654  1.00  0.00     0.031 C 
BRANCH  13  14
HETATM   14  C15 UNL     1      19.999   0.575  51.547  1.00  0.00     0.042 C 
BRANCH  14  15
HETATM   15  C16 UNL     1      20.435   1.230  50.291  1.00  0.00    -0.058 A 
HETATM   16  C17 UNL     1      19.644   2.275  49.819  1.00  0.00     0.007 A 
HETATM   17  C18 UNL     1      19.963   2.935  48.667  1.00  0.00     0.001 A 
HETATM   18  C19 UNL     1      21.077   2.592  47.928  1.00  0.00     0.000 A 
HETATM   19  C20 UNL     1      21.894   1.560  48.357  1.00  0.00     0.001 A 
HETATM   20  C21 UNL     1      21.554   0.896  49.535  1.00  0.00     0.007 A 
ENDBRANCH  14  15
ENDBRANCH  13  14
ENDBRANCH  12  13
ENDBRANCH  10  11
ENDBRANCH   3  10
BRANCH   1  21
HETATM   21  C8  UNL     1      26.038   3.380  50.516  1.00  0.00     0.125 C 
BRANCH  21  22
HETATM   22  C7  UNL     1      24.841   3.350  49.577  1.00  0.00     0.022 C 
BRANCH  22  23
HETATM   23  C6  UNL     1      24.501   4.710  49.064  1.00  0.00     0.032 C 
BRANCH  23  24
HETATM   24  C5  UNL     1      24.438   5.797  50.080  1.00  0.00     0.273 C 
BRANCH  24  25
HETATM   25  N1  UNL     1      23.267   6.221  50.680  1.00  0.00     0.092 N 
HETATM   26  C2  UNL     1      22.005   5.540  50.597  1.00  0.00     0.220 C 
HETATM   27  C1  UNL     1      21.822   4.607  51.756  1.00  0.00     0.043 C 
HETATM   28  C3  UNL     1      21.380   6.954  50.906  1.00  0.00     0.065 C 
HETATM   29  C4  UNL     1      22.629   7.458  50.188  1.00  0.00     0.275 C 
ENDBRANCH  24  25
ENDBRANCH  23  24
ENDBRANCH  22  23
ENDBRANCH  21  22
ENDBRANCH   1  21
BRANCH   8  30
HETATM   30  N4  UNL     1      29.081  -0.724  54.481  1.00  0.00     0.088 N 
HETATM   31  H33 UNL     1      28.756  -1.448  55.147  1.00  0.00     0.313 HD
HETATM   32  H34 UNL     1      30.072  -0.497  54.704  1.00  0.00     0.313 HD
ENDBRANCH   8  30
TORSDOF 11
ENDMDL
MODEL 6
REMARK VINA RESULT:      -7.7      2.634      7.816
REMARK  11 active torsions:
REMARK  status: ('A' for Active; 'I' for Inactive)
REMARK    1  A    between atoms: N1_5  and  C5_6 
REMARK    2  A    between atoms: C5_6  and  C6_7 
REMARK    3  A    between atoms: C6_7  and  C7_8 
REMARK    4  A    between atoms: C7_8  and  C8_9 
REMARK    5  A    between atoms: C8_9  and  N2_10 
REMARK    6  A    between atoms: C10_12  and  C11_13 
REMARK    7  A    between atoms: C11_13  and  C12_14 
REMARK    8  A    between atoms: C13_15  and  C14_16 
REMARK    9  A    between atoms: C14_16  and  C15_17 
REMARK   10  A    between atoms: C15_17  and  C16_18 
REMARK   11  A    between atoms: C25_28  and  N4_29 
ROOT
HETATM    1  N2  UNL     1      26.064   3.338  50.678  1.00  0.00    -0.361 N 
HETATM    2  C9  UNL     1      24.637   3.646  50.801  1.00  0.00     0.160 A 
HETATM    3  C10 UNL     1      24.271   2.969  52.048  1.00  0.00    -0.043 A 
HETATM    4  C22 UNL     1      25.473   2.334  52.617  1.00  0.00    -0.005 A 
HETATM    5  C23 UNL     1      26.465   2.578  51.793  1.00  0.00     0.132 A 
HETATM    6  N3  UNL     1      27.685   2.016  52.202  1.00  0.00    -0.245 NA
HETATM    7  C24 UNL     1      27.768   1.336  53.283  1.00  0.00     0.127 A 
HETATM    8  C25 UNL     1      26.709   1.024  54.243  1.00  0.00     0.262 A 
HETATM    9  C26 UNL     1      25.385   1.598  53.882  1.00  0.00     0.083 A 
ENDROOT
BRANCH   3  10
HETATM   10  C11 UNL     1      23.006   3.210  52.172  1.00  0.00     0.051 C 
BRANCH  10  11
HETATM   11  C12 UNL     1      21.780   3.929  52.328  1.00  0.00    -0.021 C 
HETATM   12  C13 UNL     1      20.867   3.192  51.639  1.00  0.00    -0.030 C 
BRANCH  12  13
HETATM   13  C14 UNL     1      20.643   1.978  50.815  1.00  0.00     0.031 C 
BRANCH  13  14
HETATM   14  C15 UNL     1      19.922   0.877  51.559  1.00  0.00     0.042 C 
BRANCH  14  15
HETATM   15  C16 UNL     1      20.865   0.265  52.525  1.00  0.00    -0.058 A 
HETATM   16  C17 UNL     1      20.498   0.298  53.869  1.00  0.00     0.007 A 
HETATM   17  C18 UNL     1      21.305  -0.237  54.832  1.00  0.00     0.001 A 
HETATM   18  C19 UNL     1      22.510  -0.827  54.513  1.00  0.00     0.000 A 
HETATM   19  C20 UNL     1      22.918  -0.883  53.191  1.00  0.00     0.001 A 
HETATM   20  C21 UNL     1      22.083  -0.333  52.219  1.00  0.00     0.007 A 
ENDBRANCH  14  15
ENDBRANCH  13  14
ENDBRANCH  12  13
ENDBRANCH  10  11
ENDBRANCH   3  10
BRANCH   1  21
HETATM   21  C8  UNL     1      26.749   3.764  49.492  1.00  0.00     0.125 C 
BRANCH  21  22
HETATM   22  C7  UNL     1      26.232   5.089  48.952  1.00  0.00     0.022 C 
BRANCH  22  23
HETATM   23  C6  UNL     1      27.341   6.043  48.659  1.00  0.00     0.032 C 
BRANCH  23  24
HETATM   24  C5  UNL     1      28.640   5.434  48.257  1.00  0.00     0.273 C 
BRANCH  24  25
HETATM   25  N1  UNL     1      29.805   6.156  48.081  1.00  0.00     0.092 N 
HETATM   26  C2  UNL     1      30.999   5.999  48.864  1.00  0.00     0.220 C 
HETATM   27  C1  UNL     1      31.942   5.030  48.215  1.00  0.00     0.043 C 
HETATM   28  C3  UNL     1      31.317   7.479  48.423  1.00  0.00     0.065 C 
HETATM   29  C4  UNL     1      29.795   7.600  48.391  1.00  0.00     0.275 C 
ENDBRANCH  24  25
ENDBRANCH  23  24
ENDBRANCH  22  23
ENDBRANCH  21  22
ENDBRANCH   1  21
BRANCH   8  30
HETATM   30  N4  UNL     1      26.540  -0.412  54.426  1.00  0.00     0.088 N 
HETATM   31  H33 UNL     1      25.949  -0.637  55.246  1.00  0.00     0.313 HD
HETATM   32  H34 UNL     1      27.487  -0.814  54.587  1.00  0.00     0.313 HD
ENDBRANCH   8  30
TORSDOF 11
ENDMDL
MODEL 7
REMARK VINA RESULT:      -7.5      2.616      7.406
REMARK  11 active torsions:
REMARK  status: ('A' for Active; 'I' for Inactive)
REMARK    1  A    between atoms: N1_5  and  C5_6 
REMARK    2  A    between atoms: C5_6  and  C6_7 
REMARK    3  A    between atoms: C6_7  and  C7_8 
REMARK    4  A    between atoms: C7_8  and  C8_9 
REMARK    5  A    between atoms: C8_9  and  N2_10 
REMARK    6  A    between atoms: C10_12  and  C11_13 
REMARK    7  A    between atoms: C11_13  and  C12_14 
REMARK    8  A    between atoms: C13_15  and  C14_16 
REMARK    9  A    between atoms: C14_16  and  C15_17 
REMARK   10  A    between atoms: C15_17  and  C16_18 
REMARK   11  A    between atoms: C25_28  and  N4_29 
ROOT
HETATM    1  N2  UNL     1      25.958   3.247  50.615  1.00  0.00    -0.361 N 
HETATM    2  C9  UNL     1      24.529   3.535  50.756  1.00  0.00     0.160 A 
HETATM    3  C10 UNL     1      24.200   2.895  52.033  1.00  0.00    -0.043 A 
HETATM    4  C22 UNL     1      25.424   2.301  52.599  1.00  0.00    -0.005 A 
HETATM    5  C23 UNL     1      26.395   2.533  51.747  1.00  0.00     0.132 A 
HETATM    6  N3  UNL     1      27.632   2.007  52.150  1.00  0.00    -0.245 NA
HETATM    7  C24 UNL     1      27.750   1.367  53.252  1.00  0.00     0.127 A 
HETATM    8  C25 UNL     1      26.716   1.070  54.243  1.00  0.00     0.262 A 
HETATM    9  C26 UNL     1      25.374   1.608  53.891  1.00  0.00     0.083 A 
ENDROOT
BRANCH   3  10
HETATM   10  C11 UNL     1      22.934   3.118  52.175  1.00  0.00     0.051 C 
BRANCH  10  11
HETATM   11  C12 UNL     1      21.684   3.812  52.217  1.00  0.00    -0.021 C 
HETATM   12  C13 UNL     1      20.830   3.009  51.525  1.00  0.00    -0.030 C 
BRANCH  12  13
HETATM   13  C14 UNL     1      20.682   1.741  50.768  1.00  0.00     0.031 C 
BRANCH  13  14
HETATM   14  C15 UNL     1      19.937   0.673  51.533  1.00  0.00     0.042 C 
BRANCH  14  15
HETATM   15  C16 UNL     1      20.812   0.171  52.618  1.00  0.00    -0.058 A 
HETATM   16  C17 UNL     1      22.033  -0.381  52.236  1.00  0.00     0.007 A 
HETATM   17  C18 UNL     1      22.905  -0.874  53.165  1.00  0.00     0.001 A 
HETATM   18  C19 UNL     1      22.609  -0.846  54.512  1.00  0.00     0.000 A 
HETATM   19  C20 UNL     1      21.407  -0.309  54.940  1.00  0.00     0.001 A 
HETATM   20  C21 UNL     1      20.529   0.191  53.979  1.00  0.00     0.007 A 
ENDBRANCH  14  15
ENDBRANCH  13  14
ENDBRANCH  12  13
ENDBRANCH  10  11
ENDBRANCH   3  10
BRANCH   1  21
HETATM   21  C8  UNL     1      26.612   3.643  49.401  1.00  0.00     0.125 C 
BRANCH  21  22
HETATM   22  C7  UNL     1      26.564   5.145  49.166  1.00  0.00     0.022 C 
BRANCH  22  23
HETATM   23  C6  UNL     1      27.749   5.627  48.396  1.00  0.00     0.032 C 
BRANCH  23  24
HETATM   24  C5  UNL     1      28.065   7.077  48.519  1.00  0.00     0.273 C 
BRANCH  24  25
HETATM   25  N1  UNL     1      27.112   8.077  48.477  1.00  0.00     0.092 N 
HETATM   26  C2  UNL     1      26.654   8.730  47.283  1.00  0.00     0.220 C 
HETATM   27  C1  UNL     1      25.431   8.055  46.739  1.00  0.00     0.043 C 
HETATM   28  C3  UNL     1      26.264   9.915  48.247  1.00  0.00     0.065 C 
HETATM   29  C4  UNL     1      27.441   9.391  49.067  1.00  0.00     0.275 C 
ENDBRANCH  24  25
ENDBRANCH  23  24
ENDBRANCH  22  23
ENDBRANCH  21  22
ENDBRANCH   1  21
BRANCH   8  30
HETATM   30  N4  UNL     1      26.576  -0.361  54.480  1.00  0.00     0.088 N 
HETATM   31  H33 UNL     1      26.262  -0.572  55.444  1.00  0.00     0.313 HD
HETATM   32  H34 UNL     1      27.516  -0.788  54.343  1.00  0.00     0.313 HD
ENDBRANCH   8  30
TORSDOF 11
ENDMDL
MODEL 8
REMARK VINA RESULT:      -7.4      2.412      7.316
REMARK  11 active torsions:
REMARK  status: ('A' for Active; 'I' for Inactive)
REMARK    1  A    between atoms: N1_5  and  C5_6 
REMARK    2  A    between atoms: C5_6  and  C6_7 
REMARK    3  A    between atoms: C6_7  and  C7_8 
REMARK    4  A    between atoms: C7_8  and  C8_9 
REMARK    5  A    between atoms: C8_9  and  N2_10 
REMARK    6  A    between atoms: C10_12  and  C11_13 
REMARK    7  A    between atoms: C11_13  and  C12_14 
REMARK    8  A    between atoms: C13_15  and  C14_16 
REMARK    9  A    between atoms: C14_16  and  C15_17 
REMARK   10  A    between atoms: C15_17  and  C16_18 
REMARK   11  A    between atoms: C25_28  and  N4_29 
ROOT
HETATM    1  N2  UNL     1      24.841   3.165  50.771  1.00  0.00    -0.361 N 
HETATM    2  C9  UNL     1      23.852   2.155  50.386  1.00  0.00     0.160 A 
HETATM    3  C10 UNL     1      22.677   2.967  50.061  1.00  0.00    -0.043 A 
HETATM    4  C22 UNL     1      23.019   4.391  50.227  1.00  0.00    -0.005 A 
HETATM    5  C23 UNL     1      24.266   4.443  50.634  1.00  0.00     0.132 A 
HETATM    6  N3  UNL     1      24.731   5.749  50.851  1.00  0.00    -0.245 NA
HETATM    7  C24 UNL     1      23.970   6.760  50.659  1.00  0.00     0.127 A 
HETATM    8  C25 UNL     1      22.577   6.776  50.212  1.00  0.00     0.262 A 
HETATM    9  C26 UNL     1      22.016   5.424  49.948  1.00  0.00     0.083 A 
ENDROOT
BRANCH   3  10
HETATM   10  C11 UNL     1      21.778   2.096  49.734  1.00  0.00     0.051 C 
BRANCH  10  11
HETATM   11  C12 UNL     1      21.108   0.841  49.588  1.00  0.00    -0.021 C 
HETATM   12  C13 UNL     1      20.117   0.878  50.521  1.00  0.00    -0.030 C 
BRANCH  12  13
HETATM   13  C14 UNL     1      19.476   1.676  51.596  1.00  0.00     0.031 C 
BRANCH  13  14
HETATM   14  C15 UNL     1      20.419   2.024  52.724  1.00  0.00     0.042 C 
BRANCH  14  15
HETATM   15  C16 UNL     1      20.951   0.767  53.300  1.00  0.00    -0.058 A 
HETATM   16  C17 UNL     1      22.337   0.650  53.382  1.00  0.00     0.007 A 
HETATM   17  C18 UNL     1      22.919  -0.475  53.894  1.00  0.00     0.001 A 
HETATM   18  C19 UNL     1      22.160  -1.534  54.346  1.00  0.00     0.000 A 
HETATM   19  C20 UNL     1      20.779  -1.464  54.285  1.00  0.00     0.001 A 
HETATM   20  C21 UNL     1      20.199  -0.309  53.760  1.00  0.00     0.007 A 
ENDBRANCH  14  15
ENDBRANCH  13  14
ENDBRANCH  12  13
ENDBRANCH  10  11
ENDBRANCH   3  10
BRANCH   1  21
HETATM   21  C8  UNL     1      26.111   2.716  51.262  1.00  0.00     0.125 C 
BRANCH  21  22
HETATM   22  C7  UNL     1      26.042   1.346  51.920  1.00  0.00     0.022 C 
BRANCH  22  23
HETATM   23  C6  UNL     1      26.035   1.443  53.410  1.00  0.00     0.032 C 
BRANCH  23  24
HETATM   24  C5  UNL     1      26.681   0.318  54.142  1.00  0.00     0.273 C 
BRANCH  24  25
HETATM   25  N1  UNL     1      28.047   0.109  54.179  1.00  0.00     0.092 N 
HETATM   26  C2  UNL     1      29.030   0.976  53.591  1.00  0.00     0.220 C 
HETATM   27  C1  UNL     1      29.532   1.974  54.592  1.00  0.00     0.043 C 
HETATM   28  C3  UNL     1      29.945  -0.308  53.566  1.00  0.00     0.065 C 
HETATM   29  C4  UNL     1      28.607  -1.032  53.427  1.00  0.00     0.275 C 
ENDBRANCH  24  25
ENDBRANCH  23  24
ENDBRANCH  22  23
ENDBRANCH  21  22
ENDBRANCH   1  21
BRANCH   8  30
HETATM   30  N4  UNL     1      21.702   7.447  51.165  1.00  0.00     0.088 N 
HETATM   31  H33 UNL     1      21.065   6.786  51.645  1.00  0.00     0.313 HD
HETATM   32  H34 UNL     1      21.124   8.124  50.627  1.00  0.00     0.313 HD
ENDBRANCH   8  30
TORSDOF 11
ENDMDL
MODEL 9
REMARK VINA RESULT:      -7.4      2.596      6.169
REMARK  11 active torsions:
REMARK  status: ('A' for Active; 'I' for Inactive)
REMARK    1  A    between atoms: N1_5  and  C5_6 
REMARK    2  A    between atoms: C5_6  and  C6_7 
REMARK    3  A    between atoms: C6_7  and  C7_8 
REMARK    4  A    between atoms: C7_8  and  C8_9 
REMARK    5  A    between atoms: C8_9  and  N2_10 
REMARK    6  A    between atoms: C10_12  and  C11_13 
REMARK    7  A    between atoms: C11_13  and  C12_14 
REMARK    8  A    between atoms: C13_15  and  C14_16 
REMARK    9  A    between atoms: C14_16  and  C15_17 
REMARK   10  A    between atoms: C15_17  and  C16_18 
REMARK   11  A    between atoms: C25_28  and  N4_29 
ROOT
HETATM    1  N2  UNL     1      21.662   3.048  49.508  1.00  0.00    -0.361 N 
HETATM    2  C9  UNL     1      23.029   2.522  49.485  1.00  0.00     0.160 A 
HETATM    3  C10 UNL     1      23.827   3.693  49.858  1.00  0.00    -0.043 A 
HETATM    4  C22 UNL     1      22.921   4.826  50.115  1.00  0.00    -0.005 A 
HETATM    5  C23 UNL     1      21.698   4.400  49.900  1.00  0.00     0.132 A 
HETATM    6  N3  UNL     1      20.719   5.385  50.093  1.00  0.00    -0.245 NA
HETATM    7  C24 UNL     1      21.038   6.574  50.444  1.00  0.00     0.127 A 
HETATM    8  C25 UNL     1      22.373   7.117  50.697  1.00  0.00     0.262 A 
HETATM    9  C26 UNL     1      23.468   6.124  50.524  1.00  0.00     0.083 A 
ENDROOT
BRANCH   3  10
HETATM   10  C11 UNL     1      25.046   3.260  49.828  1.00  0.00     0.051 C 
BRANCH  10  11
HETATM   11  C12 UNL     1      26.475   3.259  49.779  1.00  0.00    -0.021 C 
HETATM   12  C13 UNL     1      26.852   2.704  50.963  1.00  0.00    -0.030 C 
BRANCH  12  13
HETATM   13  C14 UNL     1      26.388   2.118  52.244  1.00  0.00     0.031 C 
BRANCH  13  14
HETATM   14  C15 UNL     1      27.454   2.104  53.315  1.00  0.00     0.042 C 
BRANCH  14  15
HETATM   15  C16 UNL     1      28.106   0.773  53.316  1.00  0.00    -0.058 A 
HETATM   16  C17 UNL     1      27.310  -0.316  52.969  1.00  0.00     0.007 A 
HETATM   17  C18 UNL     1      27.822  -1.583  52.947  1.00  0.00     0.001 A 
HETATM   18  C19 UNL     1      29.141  -1.830  53.267  1.00  0.00     0.000 A 
HETATM   19  C20 UNL     1      29.971  -0.779  53.618  1.00  0.00     0.001 A 
HETATM   20  C21 UNL     1      29.433   0.508  53.635  1.00  0.00     0.007 A 
ENDBRANCH  14  15
ENDBRANCH  13  14
ENDBRANCH  12  13
ENDBRANCH  10  11
ENDBRANCH   3  10
BRANCH   1  21
HETATM   21  C8  UNL     1      20.597   2.186  49.083  1.00  0.00     0.125 C 
BRANCH  21  22
HETATM   22  C7  UNL     1      20.518   0.900  49.893  1.00  0.00     0.022 C 
BRANCH  22  23
HETATM   23  C6  UNL     1      20.027   1.145  51.281  1.00  0.00     0.032 C 
BRANCH  23  24
HETATM   24  C5  UNL     1      20.057  -0.025  52.202  1.00  0.00     0.273 C 
BRANCH  24  25
HETATM   25  N1  UNL     1      21.001  -0.194  53.198  1.00  0.00     0.092 N 
HETATM   26  C2  UNL     1      22.330  -0.701  52.997  1.00  0.00     0.220 C 
HETATM   27  C1  UNL     1      23.303   0.419  52.781  1.00  0.00     0.043 C 
HETATM   28  C3  UNL     1      22.258  -1.101  54.520  1.00  0.00     0.065 C 
HETATM   29  C4  UNL     1      20.765  -1.228  54.226  1.00  0.00     0.275 C 
ENDBRANCH  24  25
ENDBRANCH  23  24
ENDBRANCH  22  23
ENDBRANCH  21  22
ENDBRANCH   1  21
BRANCH   8  30
HETATM   30  N4  UNL     1      22.670   8.264  49.849  1.00  0.00     0.088 N 
HETATM   31  H33 UNL     1      22.532   8.055  48.844  1.00  0.00     0.313 HD
HETATM   32  H34 UNL     1      23.672   8.504  49.997  1.00  0.00     0.313 HD
ENDBRANCH   8  30
TORSDOF 11
ENDMDL
