MODEL 1
REMARK VINA RESULT:      -6.9      0.000      0.000
REMARK  7 active torsions:
REMARK  status: ('A' for Active; 'I' for Inactive)
REMARK    1  A    between atoms: O1_2  and  C2_3 
REMARK    2  A    between atoms: C2_3  and  C3_4 
REMARK    3  A    between atoms: C3_4  and  C4_5 
REMARK    4  A    between atoms: C4_5  and  C6_7 
REMARK    5  A    between atoms: C6_7  and  N1_8 
REMARK    6  A    between atoms: N1_8  and  C7_9 
REMARK    7  A    between atoms: C11_15  and  O2_16 
ROOT
HETATM    1  C7  UNL     1      26.900   2.155  52.306  1.00  0.00     0.224 A 
HETATM    2  N2  UNL     1      28.193   2.016  52.708  1.00  0.00    -0.218 NA
HETATM    3  C8  UNL     1      28.458   1.048  53.601  1.00  0.00     0.235 A 
HETATM    4  N3  UNL     1      27.530   0.198  54.130  1.00  0.00    -0.241 NA
HETATM    5  C9  UNL     1      26.212   0.348  53.712  1.00  0.00     0.074 A 
HETATM    6  C10 UNL     1      25.258  -0.483  54.246  1.00  0.00     0.069 A 
HETATM    7  C11 UNL     1      23.926  -0.280  53.812  1.00  0.00     0.070 A 
HETATM    8  C13 UNL     1      23.690   0.716  52.902  1.00  0.00     0.038 A 
HETATM    9  C14 UNL     1      24.624   1.551  52.358  1.00  0.00     0.020 A 
HETATM   10  C15 UNL     1      25.933   1.335  52.802  1.00  0.00     0.045 A 
ENDROOT
BRANCH   1  11
HETATM   11  N1  UNL     1      26.696   3.253  51.298  1.00  0.00    -0.068 N 
HETATM   12  H12 UNL     1      26.805   3.960  52.182  1.00  0.00     0.268 HD
BRANCH  11  13
HETATM   13  C6  UNL     1      26.458   3.085  49.740  1.00  0.00     0.601 C 
BRANCH  13  14
HETATM   14  C4  UNL     1      26.988   4.119  49.188  1.00  0.00     0.000 C 
HETATM   15  C5  UNL     1      27.708   5.278  48.535  1.00  0.00     0.018 C 
BRANCH  14  16
HETATM   16  C3  UNL     1      25.642   4.796  49.376  1.00  0.00     0.038 C 
BRANCH  16  17
HETATM   17  C2  UNL     1      25.701   6.228  49.765  1.00  0.00     0.167 C 
BRANCH  17  18
HETATM   18  O1  UNL     1      24.875   6.715  50.717  1.00  0.00    -0.396 OA
HETATM   19  C1  UNL     1      23.969   5.796  51.201  1.00  0.00     0.201 C 
ENDBRANCH  17  18
ENDBRANCH  16  17
ENDBRANCH  14  16
ENDBRANCH  13  14
ENDBRANCH  11  13
ENDBRANCH   1  11
BRANCH   7  20
HETATM   20  O2  UNL     1      23.056  -1.147  54.400  1.00  0.00    -0.356 OA
HETATM   21  C12 UNL     1      21.726  -0.955  54.752  1.00  0.00     0.210 C 
ENDBRANCH   7  20
TORSDOF 7
ENDMDL
MODEL 2
REMARK VINA RESULT:      -6.7      2.815      6.032
REMARK  7 active torsions:
REMARK  status: ('A' for Active; 'I' for Inactive)
REMARK    1  A    between atoms: O1_2  and  C2_3 
REMARK    2  A    between atoms: C2_3  and  C3_4 
REMARK    3  A    between atoms: C3_4  and  C4_5 
REMARK    4  A    between atoms: C4_5  and  C6_7 
REMARK    5  A    between atoms: C6_7  and  N1_8 
REMARK    6  A    between atoms: N1_8  and  C7_9 
REMARK    7  A    between atoms: C11_15  and  O2_16 
ROOT
HETATM    1  C7  UNL     1      24.423   1.690  51.550  1.00  0.00     0.224 A 
HETATM    2  N2  UNL     1      24.700   2.793  50.802  1.00  0.00    -0.218 NA
HETATM    3  C8  UNL     1      25.984   3.179  50.727  1.00  0.00     0.235 A 
HETATM    4  N3  UNL     1      27.026   2.549  51.345  1.00  0.00    -0.241 NA
HETATM    5  C9  UNL     1      26.732   1.422  52.106  1.00  0.00     0.074 A 
HETATM    6  C10 UNL     1      27.762   0.784  52.753  1.00  0.00     0.069 A 
HETATM    7  C11 UNL     1      27.417  -0.342  53.537  1.00  0.00     0.070 A 
HETATM    8  C13 UNL     1      26.098  -0.709  53.592  1.00  0.00     0.038 A 
HETATM    9  C14 UNL     1      25.061  -0.089  52.956  1.00  0.00     0.020 A 
HETATM   10  C15 UNL     1      25.424   1.023  52.188  1.00  0.00     0.045 A 
ENDROOT
BRANCH   1  11
HETATM   11  N1  UNL     1      22.964   1.322  51.567  1.00  0.00    -0.068 N 
HETATM   12  H12 UNL     1      23.198   0.726  50.627  1.00  0.00     0.268 HD
BRANCH  11  13
HETATM   13  C6  UNL     1      21.879   1.781  52.627  1.00  0.00     0.601 C 
BRANCH  13  14
HETATM   14  C4  UNL     1      20.908   0.942  52.523  1.00  0.00     0.000 C 
HETATM   15  C5  UNL     1      19.733   0.014  52.310  1.00  0.00     0.018 C 
BRANCH  14  16
HETATM   16  C3  UNL     1      21.436   0.313  53.800  1.00  0.00     0.038 C 
BRANCH  16  17
HETATM   17  C2  UNL     1      21.019  -1.092  54.034  1.00  0.00     0.167 C 
BRANCH  17  18
HETATM   18  O1  UNL     1      21.561  -1.810  55.043  1.00  0.00    -0.396 OA
HETATM   19  C1  UNL     1      22.832  -1.412  55.398  1.00  0.00     0.201 C 
ENDBRANCH  17  18
ENDBRANCH  16  17
ENDBRANCH  14  16
ENDBRANCH  13  14
ENDBRANCH  11  13
ENDBRANCH   1  11
BRANCH   7  20
HETATM   20  O2  UNL     1      28.502  -0.902  54.139  1.00  0.00    -0.356 OA
HETATM   21  C12 UNL     1      29.813  -0.989  53.687  1.00  0.00     0.210 C 
ENDBRANCH   7  20
TORSDOF 7
ENDMDL
MODEL 3
REMARK VINA RESULT:      -6.3      3.327      5.399
REMARK  7 active torsions:
REMARK  status: ('A' for Active; 'I' for Inactive)
REMARK    1  A    between atoms: O1_2  and  C2_3 
REMARK    2  A    between atoms: C2_3  and  C3_4 
REMARK    3  A    between atoms: C3_4  and  C4_5 
REMARK    4  A    between atoms: C4_5  and  C6_7 
REMARK    5  A    between atoms: C6_7  and  N1_8 
REMARK    6  A    between atoms: N1_8  and  C7_9 
REMARK    7  A    between atoms: C11_15  and  O2_16 
ROOT
HETATM    1  C7  UNL     1      24.068   1.937  51.515  1.00  0.00     0.224 A 
HETATM    2  N2  UNL     1      23.925   2.507  50.287  1.00  0.00    -0.218 NA
HETATM    3  C8  UNL     1      22.752   2.323  49.657  1.00  0.00     0.235 A 
HETATM    4  N3  UNL     1      21.702   1.608  50.156  1.00  0.00    -0.241 NA
HETATM    5  C9  UNL     1      21.859   1.030  51.411  1.00  0.00     0.074 A 
HETATM    6  C10 UNL     1      20.822   0.290  51.924  1.00  0.00     0.069 A 
HETATM    7  C11 UNL     1      21.033  -0.301  53.192  1.00  0.00     0.070 A 
HETATM    8  C13 UNL     1      22.239  -0.094  53.807  1.00  0.00     0.038 A 
HETATM    9  C14 UNL     1      23.281   0.639  53.315  1.00  0.00     0.020 A 
HETATM   10  C15 UNL     1      23.052   1.213  52.060  1.00  0.00     0.045 A 
ENDROOT
BRANCH   1  11
HETATM   11  N1  UNL     1      25.405   2.204  52.152  1.00  0.00    -0.068 N 
HETATM   12  H12 UNL     1      24.840   2.943  52.809  1.00  0.00     0.268 HD
BRANCH  11  13
HETATM   13  C6  UNL     1      26.790   1.532  51.779  1.00  0.00     0.601 C 
BRANCH  13  14
HETATM   14  C4  UNL     1      26.688   0.297  52.123  1.00  0.00     0.000 C 
HETATM   15  C5  UNL     1      26.542  -1.179  52.419  1.00  0.00     0.018 C 
BRANCH  14  16
HETATM   16  C3  UNL     1      26.943   0.766  53.544  1.00  0.00     0.038 C 
BRANCH  16  17
HETATM   17  C2  UNL     1      27.944  -0.025  54.303  1.00  0.00     0.167 C 
BRANCH  17  18
HETATM   18  O1  UNL     1      29.264   0.244  54.183  1.00  0.00    -0.396 OA
HETATM   19  C1  UNL     1      30.009  -0.800  53.680  1.00  0.00     0.201 C 
ENDBRANCH  17  18
ENDBRANCH  16  17
ENDBRANCH  14  16
ENDBRANCH  13  14
ENDBRANCH  11  13
ENDBRANCH   1  11
BRANCH   7  20
HETATM   20  O2  UNL     1      19.952  -1.016  53.612  1.00  0.00    -0.356 OA
HETATM   21  C12 UNL     1      18.637  -0.967  53.167  1.00  0.00     0.210 C 
ENDBRANCH   7  20
TORSDOF 7
ENDMDL
MODEL 4
REMARK VINA RESULT:      -6.3      2.159      3.403
REMARK  7 active torsions:
REMARK  status: ('A' for Active; 'I' for Inactive)
REMARK    1  A    between atoms: O1_2  and  C2_3 
REMARK    2  A    between atoms: C2_3  and  C3_4 
REMARK    3  A    between atoms: C3_4  and  C4_5 
REMARK    4  A    between atoms: C4_5  and  C6_7 
REMARK    5  A    between atoms: C6_7  and  N1_8 
REMARK    6  A    between atoms: N1_8  and  C7_9 
REMARK    7  A    between atoms: C11_15  and  O2_16 
ROOT
HETATM    1  C7  UNL     1      24.029   1.846  52.019  1.00  0.00     0.224 A 
HETATM    2  N2  UNL     1      22.750   1.438  52.244  1.00  0.00    -0.218 NA
HETATM    3  C8  UNL     1      22.580   0.289  52.920  1.00  0.00     0.235 A 
HETATM    4  N3  UNL     1      23.593  -0.494  53.393  1.00  0.00    -0.241 NA
HETATM    5  C9  UNL     1      24.896  -0.068  53.158  1.00  0.00     0.074 A 
HETATM    6  C10 UNL     1      25.932  -0.850  53.608  1.00  0.00     0.069 A 
HETATM    7  C11 UNL     1      27.240  -0.393  53.326  1.00  0.00     0.070 A 
HETATM    8  C13 UNL     1      27.377   0.782  52.635  1.00  0.00     0.038 A 
HETATM    9  C14 UNL     1      26.362   1.574  52.180  1.00  0.00     0.020 A 
HETATM   10  C15 UNL     1      25.077   1.103  52.468  1.00  0.00     0.045 A 
ENDROOT
BRANCH   1  11
HETATM   11  N1  UNL     1      24.124   3.146  51.268  1.00  0.00    -0.068 N 
HETATM   12  H12 UNL     1      24.065   3.637  52.294  1.00  0.00     0.268 HD
BRANCH  11  13
HETATM   13  C6  UNL     1      24.243   3.334  49.699  1.00  0.00     0.601 C 
BRANCH  13  14
HETATM   14  C4  UNL     1      25.460   3.687  49.477  1.00  0.00     0.000 C 
HETATM   15  C5  UNL     1      26.922   3.996  49.244  1.00  0.00     0.018 C 
BRANCH  14  16
HETATM   16  C3  UNL     1      24.913   5.078  49.209  1.00  0.00     0.038 C 
BRANCH  16  17
HETATM   17  C2  UNL     1      25.792   6.197  49.628  1.00  0.00     0.167 C 
BRANCH  17  18
HETATM   18  O1  UNL     1      25.328   7.162  50.454  1.00  0.00    -0.396 OA
HETATM   19  C1  UNL     1      24.210   6.799  51.173  1.00  0.00     0.201 C 
ENDBRANCH  17  18
ENDBRANCH  16  17
ENDBRANCH  14  16
ENDBRANCH  13  14
ENDBRANCH  11  13
ENDBRANCH   1  11
BRANCH   7  20
HETATM   20  O2  UNL     1      28.195  -1.237  53.807  1.00  0.00    -0.356 OA
HETATM   21  C12 UNL     1      29.563  -1.248  53.564  1.00  0.00     0.210 C 
ENDBRANCH   7  20
TORSDOF 7
ENDMDL
MODEL 5
REMARK VINA RESULT:      -6.3      2.983      5.759
REMARK  7 active torsions:
REMARK  status: ('A' for Active; 'I' for Inactive)
REMARK    1  A    between atoms: O1_2  and  C2_3 
REMARK    2  A    between atoms: C2_3  and  C3_4 
REMARK    3  A    between atoms: C3_4  and  C4_5 
REMARK    4  A    between atoms: C4_5  and  C6_7 
REMARK    5  A    between atoms: C6_7  and  N1_8 
REMARK    6  A    between atoms: N1_8  and  C7_9 
REMARK    7  A    between atoms: C11_15  and  O2_16 
ROOT
HETATM    1  C7  UNL     1      24.415   1.656  51.543  1.00  0.00     0.224 A 
HETATM    2  N2  UNL     1      24.695   2.767  50.807  1.00  0.00    -0.218 NA
HETATM    3  C8  UNL     1      25.980   3.156  50.746  1.00  0.00     0.235 A 
HETATM    4  N3  UNL     1      27.018   2.522  51.366  1.00  0.00    -0.241 NA
HETATM    5  C9  UNL     1      26.720   1.389  52.116  1.00  0.00     0.074 A 
HETATM    6  C10 UNL     1      27.746   0.746  52.764  1.00  0.00     0.069 A 
HETATM    7  C11 UNL     1      27.397  -0.387  53.536  1.00  0.00     0.070 A 
HETATM    8  C13 UNL     1      26.079  -0.757  53.577  1.00  0.00     0.038 A 
HETATM    9  C14 UNL     1      25.045  -0.133  52.939  1.00  0.00     0.020 A 
HETATM   10  C15 UNL     1      25.412   0.986  52.183  1.00  0.00     0.045 A 
ENDROOT
BRANCH   1  11
HETATM   11  N1  UNL     1      22.957   1.286  51.546  1.00  0.00    -0.068 N 
HETATM   12  H12 UNL     1      23.224   0.600  50.678  1.00  0.00     0.268 HD
BRANCH  11  13
HETATM   13  C6  UNL     1      21.834   1.842  52.516  1.00  0.00     0.601 C 
BRANCH  13  14
HETATM   14  C4  UNL     1      21.541   0.873  53.310  1.00  0.00     0.000 C 
HETATM   15  C5  UNL     1      21.254  -0.211  54.324  1.00  0.00     0.018 C 
BRANCH  14  16
HETATM   16  C3  UNL     1      20.885   0.210  52.112  1.00  0.00     0.038 C 
BRANCH  16  17
HETATM   17  C2  UNL     1      19.419   0.004  52.224  1.00  0.00     0.167 C 
BRANCH  17  18
HETATM   18  O1  UNL     1      18.561   0.825  51.580  1.00  0.00    -0.396 OA
HETATM   19  C1  UNL     1      18.771   0.907  50.220  1.00  0.00     0.201 C 
ENDBRANCH  17  18
ENDBRANCH  16  17
ENDBRANCH  14  16
ENDBRANCH  13  14
ENDBRANCH  11  13
ENDBRANCH   1  11
BRANCH   7  20
HETATM   20  O2  UNL     1      28.479  -0.950  54.142  1.00  0.00    -0.356 OA
HETATM   21  C12 UNL     1      29.809  -0.954  53.741  1.00  0.00     0.210 C 
ENDBRANCH   7  20
TORSDOF 7
ENDMDL
MODEL 6
REMARK VINA RESULT:      -6.3      2.477      6.744
REMARK  7 active torsions:
REMARK  status: ('A' for Active; 'I' for Inactive)
REMARK    1  A    between atoms: O1_2  and  C2_3 
REMARK    2  A    between atoms: C2_3  and  C3_4 
REMARK    3  A    between atoms: C3_4  and  C4_5 
REMARK    4  A    between atoms: C4_5  and  C6_7 
REMARK    5  A    between atoms: C6_7  and  N1_8 
REMARK    6  A    between atoms: N1_8  and  C7_9 
REMARK    7  A    between atoms: C11_15  and  O2_16 
ROOT
HETATM    1  C7  UNL     1      24.362   2.646  51.679  1.00  0.00     0.224 A 
HETATM    2  N2  UNL     1      23.323   3.147  52.401  1.00  0.00    -0.218 NA
HETATM    3  C8  UNL     1      23.028   4.447  52.234  1.00  0.00     0.235 A 
HETATM    4  N3  UNL     1      23.692   5.297  51.397  1.00  0.00    -0.241 NA
HETATM    5  C9  UNL     1      24.752   4.775  50.663  1.00  0.00     0.074 A 
HETATM    6  C10 UNL     1      25.446   5.616  49.829  1.00  0.00     0.069 A 
HETATM    7  C11 UNL     1      26.532   5.051  49.120  1.00  0.00     0.070 A 
HETATM    8  C13 UNL     1      26.807   3.723  49.314  1.00  0.00     0.038 A 
HETATM    9  C14 UNL     1      26.128   2.870  50.136  1.00  0.00     0.020 A 
HETATM   10  C15 UNL     1      25.059   3.450  50.829  1.00  0.00     0.045 A 
ENDROOT
BRANCH   1  11
HETATM   11  N1  UNL     1      24.614   1.183  51.918  1.00  0.00    -0.068 N 
HETATM   12  H12 UNL     1      24.271   1.042  50.842  1.00  0.00     0.268 HD
BRANCH  11  13
HETATM   13  C6  UNL     1      25.138   0.512  53.255  1.00  0.00     0.601 C 
BRANCH  13  14
HETATM   14  C4  UNL     1      25.926  -0.437  52.888  1.00  0.00     0.000 C 
HETATM   15  C5  UNL     1      26.759  -1.617  52.440  1.00  0.00     0.018 C 
BRANCH  14  16
HETATM   16  C3  UNL     1      27.069   0.501  53.231  1.00  0.00     0.038 C 
BRANCH  16  17
HETATM   17  C2  UNL     1      27.907   0.085  54.383  1.00  0.00     0.167 C 
BRANCH  17  18
HETATM   18  O1  UNL     1      28.599   1.003  55.095  1.00  0.00    -0.396 OA
HETATM   19  C1  UNL     1      29.273   1.924  54.322  1.00  0.00     0.201 C 
ENDBRANCH  17  18
ENDBRANCH  16  17
ENDBRANCH  14  16
ENDBRANCH  13  14
ENDBRANCH  11  13
ENDBRANCH   1  11
BRANCH   7  20
HETATM   20  O2  UNL     1      27.159   5.962  48.326  1.00  0.00    -0.356 OA
HETATM   21  C12 UNL     1      28.517   6.224  48.188  1.00  0.00     0.210 C 
ENDBRANCH   7  20
TORSDOF 7
ENDMDL
MODEL 7
REMARK VINA RESULT:      -6.2      2.558      3.756
REMARK  7 active torsions:
REMARK  status: ('A' for Active; 'I' for Inactive)
REMARK    1  A    between atoms: O1_2  and  C2_3 
REMARK    2  A    between atoms: C2_3  and  C3_4 
REMARK    3  A    between atoms: C3_4  and  C4_5 
REMARK    4  A    between atoms: C4_5  and  C6_7 
REMARK    5  A    between atoms: C6_7  and  N1_8 
REMARK    6  A    between atoms: N1_8  and  C7_9 
REMARK    7  A    between atoms: C11_15  and  O2_16 
ROOT
HETATM    1  C7  UNL     1      24.321   2.369  52.765  1.00  0.00     0.224 A 
HETATM    2  N2  UNL     1      23.030   1.938  52.777  1.00  0.00    -0.218 NA
HETATM    3  C8  UNL     1      22.814   0.650  53.094  1.00  0.00     0.235 A 
HETATM    4  N3  UNL     1      23.792  -0.252  53.402  1.00  0.00    -0.241 NA
HETATM    5  C9  UNL     1      25.108   0.199  53.388  1.00  0.00     0.074 A 
HETATM    6  C10 UNL     1      26.109  -0.696  53.676  1.00  0.00     0.069 A 
HETATM    7  C11 UNL     1      27.434  -0.202  53.625  1.00  0.00     0.070 A 
HETATM    8  C13 UNL     1      27.618   1.116  53.298  1.00  0.00     0.038 A 
HETATM    9  C14 UNL     1      26.637   2.021  53.010  1.00  0.00     0.020 A 
HETATM   10  C15 UNL     1      25.335   1.512  53.064  1.00  0.00     0.045 A 
ENDROOT
BRANCH   1  11
HETATM   11  N1  UNL     1      24.468   3.824  52.413  1.00  0.00    -0.068 N 
HETATM   12  H12 UNL     1      24.662   3.979  53.524  1.00  0.00     0.268 HD
BRANCH  11  13
HETATM   13  C6  UNL     1      24.333   4.475  50.975  1.00  0.00     0.601 C 
BRANCH  13  14
HETATM   14  C4  UNL     1      25.325   4.026  50.290  1.00  0.00     0.000 C 
HETATM   15  C5  UNL     1      26.560   3.540  49.564  1.00  0.00     0.018 C 
BRANCH  14  16
HETATM   16  C3  UNL     1      24.297   3.571  49.269  1.00  0.00     0.038 C 
BRANCH  16  17
HETATM   17  C2  UNL     1      23.481   4.654  48.666  1.00  0.00     0.167 C 
BRANCH  17  18
HETATM   18  O1  UNL     1      22.452   4.358  47.840  1.00  0.00    -0.396 OA
HETATM   19  C1  UNL     1      21.243   4.195  48.482  1.00  0.00     0.201 C 
ENDBRANCH  17  18
ENDBRANCH  16  17
ENDBRANCH  14  16
ENDBRANCH  13  14
ENDBRANCH  11  13
ENDBRANCH   1  11
BRANCH   7  20
HETATM   20  O2  UNL     1      28.352  -1.163  53.920  1.00  0.00    -0.356 OA
HETATM   21  C12 UNL     1      29.666  -1.288  53.484  1.00  0.00     0.210 C 
ENDBRANCH   7  20
TORSDOF 7
ENDMDL
MODEL 8
REMARK VINA RESULT:      -6.1      3.505      5.407
REMARK  7 active torsions:
REMARK  status: ('A' for Active; 'I' for Inactive)
REMARK    1  A    between atoms: O1_2  and  C2_3 
REMARK    2  A    between atoms: C2_3  and  C3_4 
REMARK    3  A    between atoms: C3_4  and  C4_5 
REMARK    4  A    between atoms: C4_5  and  C6_7 
REMARK    5  A    between atoms: C6_7  and  N1_8 
REMARK    6  A    between atoms: N1_8  and  C7_9 
REMARK    7  A    between atoms: C11_15  and  O2_16 
ROOT
HETATM    1  C7  UNL     1      22.916   0.022  53.066  1.00  0.00     0.224 A 
HETATM    2  N2  UNL     1      23.453  -0.548  54.180  1.00  0.00    -0.218 NA
HETATM    3  C8  UNL     1      22.621  -1.232  54.983  1.00  0.00     0.235 A 
HETATM    4  N3  UNL     1      21.284  -1.395  54.764  1.00  0.00    -0.241 NA
HETATM    5  C9  UNL     1      20.746  -0.810  53.623  1.00  0.00     0.074 A 
HETATM    6  C10 UNL     1      19.398  -0.945  53.392  1.00  0.00     0.069 A 
HETATM    7  C11 UNL     1      18.887  -0.313  52.234  1.00  0.00     0.070 A 
HETATM    8  C13 UNL     1      19.763   0.377  51.437  1.00  0.00     0.038 A 
HETATM    9  C14 UNL     1      21.104   0.522  51.648  1.00  0.00     0.020 A 
HETATM   10  C15 UNL     1      21.588  -0.109  52.799  1.00  0.00     0.045 A 
ENDROOT
BRANCH   1  11
HETATM   11  N1  UNL     1      23.921   0.756  52.220  1.00  0.00    -0.068 N 
HETATM   12  H12 UNL     1      23.121   0.728  51.411  1.00  0.00     0.268 HD
BRANCH  11  13
HETATM   13  C6  UNL     1      25.381   1.201  52.644  1.00  0.00     0.601 C 
BRANCH  13  14
HETATM   14  C4  UNL     1      25.829   1.915  51.673  1.00  0.00     0.000 C 
HETATM   15  C5  UNL     1      26.249   2.759  50.490  1.00  0.00     0.018 C 
BRANCH  14  16
HETATM   16  C3  UNL     1      27.205   1.721  52.283  1.00  0.00     0.038 C 
BRANCH  16  17
HETATM   17  C2  UNL     1      27.255   1.781  53.766  1.00  0.00     0.167 C 
BRANCH  17  18
HETATM   18  O1  UNL     1      28.412   1.540  54.423  1.00  0.00    -0.396 OA
HETATM   19  C1  UNL     1      28.565   0.234  54.834  1.00  0.00     0.201 C 
ENDBRANCH  17  18
ENDBRANCH  16  17
ENDBRANCH  14  16
ENDBRANCH  13  14
ENDBRANCH  11  13
ENDBRANCH   1  11
BRANCH   7  20
HETATM   20  O2  UNL     1      17.546  -0.500  52.095  1.00  0.00    -0.356 OA
HETATM   21  C12 UNL     1      16.539   0.443  51.928  1.00  0.00     0.210 C 
ENDBRANCH   7  20
TORSDOF 7
ENDMDL
MODEL 9
REMARK VINA RESULT:      -6.0      1.723      2.017
REMARK  7 active torsions:
REMARK  status: ('A' for Active; 'I' for Inactive)
REMARK    1  A    between atoms: O1_2  and  C2_3 
REMARK    2  A    between atoms: C2_3  and  C3_4 
REMARK    3  A    between atoms: C3_4  and  C4_5 
REMARK    4  A    between atoms: C4_5  and  C6_7 
REMARK    5  A    between atoms: C6_7  and  N1_8 
REMARK    6  A    between atoms: N1_8  and  C7_9 
REMARK    7  A    between atoms: C11_15  and  O2_16 
ROOT
HETATM    1  C7  UNL     1      26.070   1.781  52.078  1.00  0.00     0.224 A 
HETATM    2  N2  UNL     1      27.212   1.065  52.269  1.00  0.00    -0.218 NA
HETATM    3  C8  UNL     1      27.095  -0.133  52.866  1.00  0.00     0.235 A 
HETATM    4  N3  UNL     1      25.919  -0.680  53.294  1.00  0.00    -0.241 NA
HETATM    5  C9  UNL     1      24.758   0.059  53.093  1.00  0.00     0.074 A 
HETATM    6  C10 UNL     1      23.566  -0.463  53.533  1.00  0.00     0.069 A 
HETATM    7  C11 UNL     1      22.413   0.332  53.331  1.00  0.00     0.070 A 
HETATM    8  C13 UNL     1      22.568   1.548  52.720  1.00  0.00     0.038 A 
HETATM    9  C14 UNL     1      23.742   2.084  52.275  1.00  0.00     0.020 A 
HETATM   10  C15 UNL     1      24.870   1.283  52.485  1.00  0.00     0.045 A 
ENDROOT
BRANCH   1  11
HETATM   11  N1  UNL     1      26.292   3.101  51.392  1.00  0.00    -0.068 N 
HETATM   12  H12 UNL     1      26.115   3.560  52.418  1.00  0.00     0.268 HD
BRANCH  11  13
HETATM   13  C6  UNL     1      26.615   3.336  49.858  1.00  0.00     0.601 C 
BRANCH  13  14
HETATM   14  C4  UNL     1      26.150   4.500  49.573  1.00  0.00     0.000 C 
HETATM   15  C5  UNL     1      25.704   5.912  49.264  1.00  0.00     0.018 C 
BRANCH  14  16
HETATM   16  C3  UNL     1      24.818   3.811  49.338  1.00  0.00     0.038 C 
BRANCH  16  17
HETATM   17  C2  UNL     1      23.702   4.706  48.940  1.00  0.00     0.167 C 
BRANCH  17  18
HETATM   18  O1  UNL     1      22.811   4.315  48.003  1.00  0.00    -0.396 OA
HETATM   19  C1  UNL     1      22.495   2.974  48.049  1.00  0.00     0.201 C 
ENDBRANCH  17  18
ENDBRANCH  16  17
ENDBRANCH  14  16
ENDBRANCH  13  14
ENDBRANCH  11  13
ENDBRANCH   1  11
BRANCH   7  20
HETATM   20  O2  UNL     1      21.286  -0.268  53.804  1.00  0.00    -0.356 OA
HETATM   21  C12 UNL     1      21.134  -1.521  54.386  1.00  0.00     0.210 C 
ENDBRANCH   7  20
TORSDOF 7
ENDMDL
