MODEL 1
REMARK VINA RESULT:      -8.3      0.000      0.000
REMARK  4 active torsions:
REMARK  status: ('A' for Active; 'I' for Inactive)
REMARK    1  A    between atoms: C6_7  and  C7_8 
REMARK    2  A    between atoms: N3_10  and  C8_11 
REMARK    3  A    between atoms: C10_13  and  N4_14 
REMARK    4  A    between atoms: C11_15  and  C12_16 
ROOT
HETATM    1  C7  UNL     1      24.643  -0.353  54.261  1.00  0.00     0.087 A 
HETATM    2  N2  UNL     1      23.714  -0.059  53.402  1.00  0.00    -0.169 NA
HETATM    3  N3  UNL     1      22.433  -0.555  53.660  1.00  0.00    -0.231 N 
HETATM    4  C16 UNL     1      22.288  -1.331  54.839  1.00  0.00     0.228 A 
HETATM    5  N5  UNL     1      23.212  -1.610  55.672  1.00  0.00    -0.277 NA
HETATM    6  C17 UNL     1      24.569  -1.151  55.505  1.00  0.00     0.212 A 
ENDROOT
BRANCH   3   7
HETATM    7  C8  UNL     1      21.211  -0.431  52.951  1.00  0.00     0.043 C 
HETATM    8  C9  UNL     1      20.189  -0.881  53.663  1.00  0.00     0.057 C 
HETATM    9  C10 UNL     1      18.829  -0.860  53.147  1.00  0.00     0.041 C 
HETATM   10  C11 UNL     1      18.298  -0.329  52.059  1.00  0.00     0.028 C 
HETATM   11  C13 UNL     1      18.971   0.425  51.012  1.00  0.00     0.013 C 
HETATM   12  C14 UNL     1      20.279   0.590  50.892  1.00  0.00    -0.020 C 
HETATM   13  C15 UNL     1      21.474   0.168  51.626  1.00  0.00     0.086 C 
BRANCH   9  14
HETATM   14  N4  UNL     1      17.882  -1.536  53.964  1.00  0.00    -0.398 N 
HETATM   15  H8  UNL     1      18.303  -2.275  54.582  1.00  0.00     0.156 HD
HETATM   16  H9  UNL     1      16.829  -1.468  54.100  1.00  0.00     0.156 HD
ENDBRANCH   9  14
BRANCH  10  17
HETATM   17  C12 UNL     1      16.863  -0.530  51.895  1.00  0.00     0.272 C 
HETATM   18  O1  UNL     1      16.065   0.286  52.420  1.00  0.00    -0.301 OA
ENDBRANCH  10  17
ENDBRANCH   3   7
BRANCH   1  19
HETATM   19  C6  UNL     1      25.967   0.174  53.973  1.00  0.00     0.015 A 
HETATM   20  C2  UNL     1      26.821  -0.619  53.205  1.00  0.00    -0.047 A 
HETATM   21  C1  UNL     1      26.409  -1.953  52.690  1.00  0.00     0.049 C 
HETATM   22  C3  UNL     1      28.103  -0.185  52.889  1.00  0.00     0.027 A 
HETATM   23  C4  UNL     1      28.447   1.055  53.383  1.00  0.00     0.116 A 
HETATM   24  N1  UNL     1      27.641   1.841  54.129  1.00  0.00    -0.272 NA
HETATM   25  C5  UNL     1      26.381   1.418  54.441  1.00  0.00     0.130 A 
ENDBRANCH   1  19
TORSDOF 4
ENDMDL
MODEL 2
REMARK VINA RESULT:      -8.1      4.279      5.841
REMARK  4 active torsions:
REMARK  status: ('A' for Active; 'I' for Inactive)
REMARK    1  A    between atoms: C6_7  and  C7_8 
REMARK    2  A    between atoms: N3_10  and  C8_11 
REMARK    3  A    between atoms: C10_13  and  N4_14 
REMARK    4  A    between atoms: C11_15  and  C12_16 
ROOT
HETATM    1  C7  UNL     1      25.803  -0.133  52.829  1.00  0.00     0.087 A 
HETATM    2  N2  UNL     1      25.800   0.765  51.891  1.00  0.00    -0.169 NA
HETATM    3  N3  UNL     1      24.623   1.502  51.725  1.00  0.00    -0.231 N 
HETATM    4  C16 UNL     1      23.556   1.185  52.604  1.00  0.00     0.228 A 
HETATM    5  N5  UNL     1      23.578   0.299  53.521  1.00  0.00    -0.277 NA
HETATM    6  C17 UNL     1      24.737  -0.518  53.781  1.00  0.00     0.212 A 
ENDROOT
BRANCH   3   7
HETATM    7  C8  UNL     1      24.277   2.538  50.819  1.00  0.00     0.043 C 
HETATM    8  C9  UNL     1      25.214   3.472  50.770  1.00  0.00     0.057 C 
HETATM    9  C10 UNL     1      25.086   4.640  49.912  1.00  0.00     0.041 C 
HETATM   10  C11 UNL     1      24.210   4.965  48.976  1.00  0.00     0.028 C 
HETATM   11  C13 UNL     1      23.061   4.197  48.522  1.00  0.00     0.013 C 
HETATM   12  C14 UNL     1      22.601   3.086  49.075  1.00  0.00    -0.020 C 
HETATM   13  C15 UNL     1      22.962   2.238  50.214  1.00  0.00     0.086 C 
BRANCH   9  14
HETATM   14  N4  UNL     1      26.093   5.624  50.108  1.00  0.00    -0.398 N 
HETATM   15  H8  UNL     1      25.797   6.416  50.735  1.00  0.00     0.156 HD
HETATM   16  H9  UNL     1      27.092   5.750  49.765  1.00  0.00     0.156 HD
ENDBRANCH   9  14
BRANCH  10  17
HETATM   17  C12 UNL     1      24.430   6.252  48.328  1.00  0.00     0.272 C 
HETATM   18  O1  UNL     1      23.901   7.283  48.815  1.00  0.00    -0.301 OA
ENDBRANCH  10  17
ENDBRANCH   3   7
BRANCH   1  19
HETATM   19  C6  UNL     1      27.036  -0.887  52.985  1.00  0.00     0.015 A 
HETATM   20  C2  UNL     1      28.143  -0.210  53.498  1.00  0.00    -0.047 A 
HETATM   21  C1  UNL     1      28.083   1.228  53.879  1.00  0.00     0.049 C 
HETATM   22  C3  UNL     1      29.358  -0.862  53.676  1.00  0.00     0.027 A 
HETATM   23  C4  UNL     1      29.374  -2.192  53.312  1.00  0.00     0.116 A 
HETATM   24  N1  UNL     1      28.319  -2.870  52.812  1.00  0.00    -0.272 NA
HETATM   25  C5  UNL     1      27.124  -2.232  52.637  1.00  0.00     0.130 A 
ENDBRANCH   1  19
TORSDOF 4
ENDMDL
MODEL 3
REMARK VINA RESULT:      -8.0      1.799      2.784
REMARK  4 active torsions:
REMARK  status: ('A' for Active; 'I' for Inactive)
REMARK    1  A    between atoms: C6_7  and  C7_8 
REMARK    2  A    between atoms: N3_10  and  C8_11 
REMARK    3  A    between atoms: C10_13  and  N4_14 
REMARK    4  A    between atoms: C11_15  and  C12_16 
ROOT
HETATM    1  C7  UNL     1      25.807   1.511  52.247  1.00  0.00     0.087 A 
HETATM    2  N2  UNL     1      24.732   0.871  52.592  1.00  0.00    -0.169 NA
HETATM    3  N3  UNL     1      23.565   1.164  51.879  1.00  0.00    -0.231 N 
HETATM    4  C16 UNL     1      23.685   2.136  50.853  1.00  0.00     0.228 A 
HETATM    5  N5  UNL     1      24.751   2.755  50.528  1.00  0.00    -0.277 NA
HETATM    6  C17 UNL     1      26.010   2.531  51.194  1.00  0.00     0.212 A 
ENDROOT
BRANCH   3   7
HETATM    7  C8  UNL     1      22.242   0.664  51.987  1.00  0.00     0.043 C 
HETATM    8  C9  UNL     1      22.057   0.024  53.131  1.00  0.00     0.057 C 
HETATM    9  C10 UNL     1      20.778  -0.581  53.472  1.00  0.00     0.041 C 
HETATM   10  C11 UNL     1      19.590  -0.534  52.893  1.00  0.00     0.028 C 
HETATM   11  C13 UNL     1      19.212   0.177  51.682  1.00  0.00     0.013 C 
HETATM   12  C14 UNL     1      20.040   0.795  50.853  1.00  0.00    -0.020 C 
HETATM   13  C15 UNL     1      21.484   1.022  50.769  1.00  0.00     0.086 C 
BRANCH   9  14
HETATM   14  N4  UNL     1      20.801  -1.374  54.651  1.00  0.00    -0.398 N 
HETATM   15  H8  UNL     1      21.060  -0.840  55.519  1.00  0.00     0.156 HD
HETATM   16  H9  UNL     1      20.612  -2.399  54.865  1.00  0.00     0.156 HD
ENDBRANCH   9  14
BRANCH  10  17
HETATM   17  C12 UNL     1      18.536  -1.292  53.558  1.00  0.00     0.272 C 
HETATM   18  O1  UNL     1      17.346  -0.900  53.465  1.00  0.00    -0.301 OA
ENDBRANCH  10  17
ENDBRANCH   3   7
BRANCH   1  19
HETATM   19  C6  UNL     1      27.009   1.191  53.000  1.00  0.00     0.015 A 
HETATM   20  C2  UNL     1      27.456  -0.130  52.966  1.00  0.00    -0.047 A 
HETATM   21  C1  UNL     1      26.745  -1.184  52.191  1.00  0.00     0.049 C 
HETATM   22  C3  UNL     1      28.597  -0.515  53.660  1.00  0.00     0.027 A 
HETATM   23  C4  UNL     1      29.227   0.489  54.365  1.00  0.00     0.116 A 
HETATM   24  N1  UNL     1      28.816   1.774  54.416  1.00  0.00    -0.272 NA
HETATM   25  C5  UNL     1      27.696   2.155  53.735  1.00  0.00     0.130 A 
ENDBRANCH   1  19
TORSDOF 4
ENDMDL
MODEL 4
REMARK VINA RESULT:      -8.0      1.801      2.876
REMARK  4 active torsions:
REMARK  status: ('A' for Active; 'I' for Inactive)
REMARK    1  A    between atoms: C6_7  and  C7_8 
REMARK    2  A    between atoms: N3_10  and  C8_11 
REMARK    3  A    between atoms: C10_13  and  N4_14 
REMARK    4  A    between atoms: C11_15  and  C12_16 
ROOT
HETATM    1  C7  UNL     1      25.715   1.339  52.455  1.00  0.00     0.087 A 
HETATM    2  N2  UNL     1      24.725   0.692  52.990  1.00  0.00    -0.169 NA
HETATM    3  N3  UNL     1      23.462   0.884  52.421  1.00  0.00    -0.231 N 
HETATM    4  C16 UNL     1      23.402   1.770  51.314  1.00  0.00     0.228 A 
HETATM    5  N5  UNL     1      24.387   2.397  50.802  1.00  0.00    -0.277 NA
HETATM    6  C17 UNL     1      25.731   2.274  51.307  1.00  0.00     0.212 A 
ENDROOT
BRANCH   3   7
HETATM    7  C8  UNL     1      22.189   0.349  52.744  1.00  0.00     0.043 C 
HETATM    8  C9  UNL     1      21.290   0.644  51.818  1.00  0.00     0.057 C 
HETATM    9  C10 UNL     1      19.907   0.204  51.926  1.00  0.00     0.041 C 
HETATM   10  C11 UNL     1      19.296  -0.612  52.769  1.00  0.00     0.028 C 
HETATM   11  C13 UNL     1      19.874  -1.337  53.889  1.00  0.00     0.013 C 
HETATM   12  C14 UNL     1      21.105  -1.193  54.356  1.00  0.00    -0.020 C 
HETATM   13  C15 UNL     1      22.275  -0.375  54.029  1.00  0.00     0.086 C 
BRANCH   9  14
HETATM   14  N4  UNL     1      19.040   0.750  50.941  1.00  0.00    -0.398 N 
HETATM   15  H8  UNL     1      18.258   0.106  50.658  1.00  0.00     0.156 HD
HETATM   16  H9  UNL     1      18.994   1.674  50.415  1.00  0.00     0.156 HD
ENDBRANCH   9  14
BRANCH  10  17
HETATM   17  C12 UNL     1      17.868  -0.799  52.540  1.00  0.00     0.272 C 
HETATM   18  O1  UNL     1      17.099  -0.920  53.526  1.00  0.00    -0.301 OA
ENDBRANCH  10  17
ENDBRANCH   3   7
BRANCH   1  19
HETATM   19  C6  UNL     1      27.018   1.125  53.062  1.00  0.00     0.015 A 
HETATM   20  C2  UNL     1      27.546  -0.166  53.013  1.00  0.00    -0.047 A 
HETATM   21  C1  UNL     1      26.818  -1.293  52.367  1.00  0.00     0.049 C 
HETATM   22  C3  UNL     1      28.787  -0.451  53.572  1.00  0.00     0.027 A 
HETATM   23  C4  UNL     1      29.430   0.618  54.160  1.00  0.00     0.116 A 
HETATM   24  N1  UNL     1      28.942   1.875  54.222  1.00  0.00    -0.272 NA
HETATM   25  C5  UNL     1      27.724   2.158  53.674  1.00  0.00     0.130 A 
ENDBRANCH   1  19
TORSDOF 4
ENDMDL
MODEL 5
REMARK VINA RESULT:      -7.6      3.645      4.712
REMARK  4 active torsions:
REMARK  status: ('A' for Active; 'I' for Inactive)
REMARK    1  A    between atoms: C6_7  and  C7_8 
REMARK    2  A    between atoms: N3_10  and  C8_11 
REMARK    3  A    between atoms: C10_13  and  N4_14 
REMARK    4  A    between atoms: C11_15  and  C12_16 
ROOT
HETATM    1  C7  UNL     1      25.784   0.174  52.856  1.00  0.00     0.087 A 
HETATM    2  N2  UNL     1      25.620   0.892  51.786  1.00  0.00    -0.169 NA
HETATM    3  N3  UNL     1      24.329   1.367  51.534  1.00  0.00    -0.231 N 
HETATM    4  C16 UNL     1      23.334   1.008  52.480  1.00  0.00     0.228 A 
HETATM    5  N5  UNL     1      23.514   0.301  53.526  1.00  0.00    -0.277 NA
HETATM    6  C17 UNL     1      24.802  -0.239  53.884  1.00  0.00     0.212 A 
ENDROOT
BRANCH   3   7
HETATM    7  C8  UNL     1      23.803   2.161  50.484  1.00  0.00     0.043 C 
HETATM    8  C9  UNL     1      22.625   1.712  50.079  1.00  0.00     0.057 C 
HETATM    9  C10 UNL     1      21.885   2.362  49.008  1.00  0.00     0.041 C 
HETATM   10  C11 UNL     1      22.080   3.493  48.350  1.00  0.00     0.028 C 
HETATM   11  C13 UNL     1      23.157   4.455  48.526  1.00  0.00     0.013 C 
HETATM   12  C14 UNL     1      24.227   4.294  49.290  1.00  0.00    -0.020 C 
HETATM   13  C15 UNL     1      24.753   3.250  50.172  1.00  0.00     0.086 C 
BRANCH   9  14
HETATM   14  N4  UNL     1      20.728   1.655  48.582  1.00  0.00    -0.398 N 
HETATM   15  H8  UNL     1      20.490   0.825  49.183  1.00  0.00     0.156 HD
HETATM   16  H9  UNL     1      20.034   1.770  47.784  1.00  0.00     0.156 HD
ENDBRANCH   9  14
BRANCH  10  17
HETATM   17  C12 UNL     1      21.092   3.803  47.324  1.00  0.00     0.272 C 
HETATM   18  O1  UNL     1      21.328   3.490  46.130  1.00  0.00    -0.301 OA
ENDBRANCH  10  17
ENDBRANCH   3   7
BRANCH   1  19
HETATM   19  C6  UNL     1      27.133  -0.308  53.099  1.00  0.00     0.015 A 
HETATM   20  C2  UNL     1      28.101   0.635  53.445  1.00  0.00    -0.047 A 
HETATM   21  C1  UNL     1      27.782   2.084  53.569  1.00  0.00     0.049 C 
HETATM   22  C3  UNL     1      29.414   0.252  53.693  1.00  0.00     0.027 A 
HETATM   23  C4  UNL     1      29.670  -1.097  53.569  1.00  0.00     0.116 A 
HETATM   24  N1  UNL     1      28.753  -2.031  53.234  1.00  0.00    -0.272 NA
HETATM   25  C5  UNL     1      27.463  -1.657  52.991  1.00  0.00     0.130 A 
ENDBRANCH   1  19
TORSDOF 4
ENDMDL
MODEL 6
REMARK VINA RESULT:      -7.5      3.907      7.686
REMARK  4 active torsions:
REMARK  status: ('A' for Active; 'I' for Inactive)
REMARK    1  A    between atoms: C6_7  and  C7_8 
REMARK    2  A    between atoms: N3_10  and  C8_11 
REMARK    3  A    between atoms: C10_13  and  N4_14 
REMARK    4  A    between atoms: C11_15  and  C12_16 
ROOT
HETATM    1  C7  UNL     1      22.270   1.632  52.174  1.00  0.00     0.087 A 
HETATM    2  N2  UNL     1      23.567   1.701  52.202  1.00  0.00    -0.169 NA
HETATM    3  N3  UNL     1      24.237   0.705  52.919  1.00  0.00    -0.231 N 
HETATM    4  C16 UNL     1      23.422  -0.276  53.542  1.00  0.00     0.228 A 
HETATM    5  N5  UNL     1      22.149  -0.326  53.504  1.00  0.00    -0.277 NA
HETATM    6  C17 UNL     1      21.356   0.647  52.794  1.00  0.00     0.212 A 
ENDROOT
BRANCH   3   7
HETATM    7  C8  UNL     1      25.618   0.476  53.152  1.00  0.00     0.043 C 
HETATM    8  C9  UNL     1      25.955  -0.775  52.881  1.00  0.00     0.057 C 
HETATM    9  C10 UNL     1      27.320  -1.252  53.044  1.00  0.00     0.041 C 
HETATM   10  C11 UNL     1      28.453  -0.629  53.318  1.00  0.00     0.028 C 
HETATM   11  C13 UNL     1      28.660   0.792  53.548  1.00  0.00     0.013 C 
HETATM   12  C14 UNL     1      27.709   1.706  53.667  1.00  0.00    -0.020 C 
HETATM   13  C15 UNL     1      26.245   1.726  53.632  1.00  0.00     0.086 C 
BRANCH   9  14
HETATM   14  N4  UNL     1      27.474  -2.655  52.877  1.00  0.00    -0.398 N 
HETATM   15  H8  UNL     1      28.475  -2.968  52.801  1.00  0.00     0.156 HD
HETATM   16  H9  UNL     1      26.802  -3.478  52.810  1.00  0.00     0.156 HD
ENDBRANCH   9  14
BRANCH  10  17
HETATM   17  C12 UNL     1      29.635  -1.480  53.399  1.00  0.00     0.272 C 
HETATM   18  O1  UNL     1      30.575  -1.153  54.167  1.00  0.00    -0.301 OA
ENDBRANCH  10  17
ENDBRANCH   3   7
BRANCH   1  19
HETATM   19  C6  UNL     1      21.593   2.676  51.423  1.00  0.00     0.015 A 
HETATM   20  C2  UNL     1      21.235   2.392  50.105  1.00  0.00    -0.047 A 
HETATM   21  C1  UNL     1      21.525   1.075  49.476  1.00  0.00     0.049 C 
HETATM   22  C3  UNL     1      20.586   3.339  49.322  1.00  0.00     0.027 A 
HETATM   23  C4  UNL     1      20.334   4.546  49.940  1.00  0.00     0.116 A 
HETATM   24  N1  UNL     1      20.670   4.848  51.212  1.00  0.00    -0.272 NA
HETATM   25  C5  UNL     1      21.308   3.919  51.984  1.00  0.00     0.130 A 
ENDBRANCH   1  19
TORSDOF 4
ENDMDL
MODEL 7
REMARK VINA RESULT:      -7.2      5.106      6.520
REMARK  4 active torsions:
REMARK  status: ('A' for Active; 'I' for Inactive)
REMARK    1  A    between atoms: C6_7  and  C7_8 
REMARK    2  A    between atoms: N3_10  and  C8_11 
REMARK    3  A    between atoms: C10_13  and  N4_14 
REMARK    4  A    between atoms: C11_15  and  C12_16 
ROOT
HETATM    1  C7  UNL     1      24.124   4.771  49.859  1.00  0.00     0.087 A 
HETATM    2  N2  UNL     1      24.329   4.064  50.928  1.00  0.00    -0.169 NA
HETATM    3  N3  UNL     1      23.755   2.789  50.964  1.00  0.00    -0.231 N 
HETATM    4  C16 UNL     1      23.006   2.407  49.821  1.00  0.00     0.228 A 
HETATM    5  N5  UNL     1      22.815   3.116  48.779  1.00  0.00    -0.277 NA
HETATM    6  C17 UNL     1      23.359   4.443  48.634  1.00  0.00     0.212 A 
ENDROOT
BRANCH   3   7
HETATM    7  C8  UNL     1      23.776   1.771  51.951  1.00  0.00     0.043 C 
HETATM    8  C9  UNL     1      22.570   1.558  52.454  1.00  0.00     0.057 C 
HETATM    9  C10 UNL     1      22.336   0.560  53.486  1.00  0.00     0.041 C 
HETATM   10  C11 UNL     1      23.112  -0.371  54.015  1.00  0.00     0.028 C 
HETATM   11  C13 UNL     1      24.499  -0.669  53.693  1.00  0.00     0.013 C 
HETATM   12  C14 UNL     1      25.284   0.045  52.901  1.00  0.00    -0.020 C 
HETATM   13  C15 UNL     1      25.158   1.269  52.106  1.00  0.00     0.086 C 
BRANCH   9  14
HETATM   14  N4  UNL     1      21.025   0.580  54.035  1.00  0.00    -0.398 N 
HETATM   15  H8  UNL     1      21.001   0.751  55.072  1.00  0.00     0.156 HD
HETATM   16  H9  UNL     1      20.046   0.463  53.635  1.00  0.00     0.156 HD
ENDBRANCH   9  14
BRANCH  10  17
HETATM   17  C12 UNL     1      22.494  -1.192  55.050  1.00  0.00     0.272 C 
HETATM   18  O1  UNL     1      21.689  -2.097  54.715  1.00  0.00    -0.301 OA
ENDBRANCH  10  17
ENDBRANCH   3   7
BRANCH   1  19
HETATM   19  C6  UNL     1      24.730   6.092  49.842  1.00  0.00     0.015 A 
HETATM   20  C2  UNL     1      26.043   6.192  49.381  1.00  0.00    -0.047 A 
HETATM   21  C1  UNL     1      26.809   5.003  48.918  1.00  0.00     0.049 C 
HETATM   22  C3  UNL     1      26.691   7.420  49.335  1.00  0.00     0.027 A 
HETATM   23  C4  UNL     1      25.949   8.497  49.772  1.00  0.00     0.116 A 
HETATM   24  N1  UNL     1      24.679   8.429  50.224  1.00  0.00    -0.272 NA
HETATM   25  C5  UNL     1      24.039   7.224  50.269  1.00  0.00     0.130 A 
ENDBRANCH   1  19
TORSDOF 4
ENDMDL
MODEL 8
REMARK VINA RESULT:      -7.1      5.150      7.035
REMARK  4 active torsions:
REMARK  status: ('A' for Active; 'I' for Inactive)
REMARK    1  A    between atoms: C6_7  and  C7_8 
REMARK    2  A    between atoms: N3_10  and  C8_11 
REMARK    3  A    between atoms: C10_13  and  N4_14 
REMARK    4  A    between atoms: C11_15  and  C12_16 
ROOT
HETATM    1  C7  UNL     1      25.130   4.897  50.088  1.00  0.00     0.087 A 
HETATM    2  N2  UNL     1      24.548   4.083  50.915  1.00  0.00    -0.169 NA
HETATM    3  N3  UNL     1      25.190   2.865  51.161  1.00  0.00    -0.231 N 
HETATM    4  C16 UNL     1      26.413   2.651  50.475  1.00  0.00     0.228 A 
HETATM    5  N5  UNL     1      26.970   3.463  49.666  1.00  0.00    -0.277 NA
HETATM    6  C17 UNL     1      26.398   4.746  49.339  1.00  0.00     0.212 A 
ENDROOT
BRANCH   3   7
HETATM    7  C8  UNL     1      24.845   1.766  51.990  1.00  0.00     0.043 C 
HETATM    8  C9  UNL     1      23.541   1.722  52.218  1.00  0.00     0.057 C 
HETATM    9  C10 UNL     1      22.944   0.683  53.043  1.00  0.00     0.041 C 
HETATM   10  C11 UNL     1      23.438  -0.418  53.583  1.00  0.00     0.028 C 
HETATM   11  C13 UNL     1      24.799  -0.924  53.496  1.00  0.00     0.013 C 
HETATM   12  C14 UNL     1      25.833  -0.285  52.972  1.00  0.00    -0.020 C 
HETATM   13  C15 UNL     1      26.068   1.014  52.338  1.00  0.00     0.086 C 
BRANCH   9  14
HETATM   14  N4  UNL     1      21.565   0.882  53.328  1.00  0.00    -0.398 N 
HETATM   15  H8  UNL     1      21.332   0.845  54.353  1.00  0.00     0.156 HD
HETATM   16  H9  UNL     1      20.699   1.063  52.737  1.00  0.00     0.156 HD
ENDBRANCH   9  14
BRANCH  10  17
HETATM   17  C12 UNL     1      22.496  -1.215  54.360  1.00  0.00     0.272 C 
HETATM   18  O1  UNL     1      22.627  -1.277  55.608  1.00  0.00    -0.301 OA
ENDBRANCH  10  17
ENDBRANCH   3   7
BRANCH   1  19
HETATM   19  C6  UNL     1      24.447   6.157  49.846  1.00  0.00     0.015 A 
HETATM   20  C2  UNL     1      23.440   6.168  48.880  1.00  0.00    -0.047 A 
HETATM   21  C1  UNL     1      23.065   4.946  48.118  1.00  0.00     0.049 C 
HETATM   22  C3  UNL     1      22.741   7.334  48.592  1.00  0.00     0.027 A 
HETATM   23  C4  UNL     1      23.117   8.444  49.318  1.00  0.00     0.116 A 
HETATM   24  N1  UNL     1      24.088   8.462  50.257  1.00  0.00    -0.272 NA
HETATM   25  C5  UNL     1      24.776   7.318  50.543  1.00  0.00     0.130 A 
ENDBRANCH   1  19
TORSDOF 4
ENDMDL
MODEL 9
REMARK VINA RESULT:      -7.1      3.818      7.788
REMARK  4 active torsions:
REMARK  status: ('A' for Active; 'I' for Inactive)
REMARK    1  A    between atoms: C6_7  and  C7_8 
REMARK    2  A    between atoms: N3_10  and  C8_11 
REMARK    3  A    between atoms: C10_13  and  N4_14 
REMARK    4  A    between atoms: C11_15  and  C12_16 
ROOT
HETATM    1  C7  UNL     1      21.158   1.763  51.391  1.00  0.00     0.087 A 
HETATM    2  N2  UNL     1      22.427   1.914  51.626  1.00  0.00    -0.169 NA
HETATM    3  N3  UNL     1      23.026   0.985  52.483  1.00  0.00    -0.231 N 
HETATM    4  C16 UNL     1      22.177  -0.025  53.005  1.00  0.00     0.228 A 
HETATM    5  N5  UNL     1      20.932  -0.156  52.763  1.00  0.00    -0.277 NA
HETATM    6  C17 UNL     1      20.212   0.742  51.895  1.00  0.00     0.212 A 
ENDROOT
BRANCH   3   7
HETATM    7  C8  UNL     1      24.360   0.852  52.946  1.00  0.00     0.043 C 
HETATM    8  C9  UNL     1      25.144   1.793  52.445  1.00  0.00     0.057 C 
HETATM    9  C10 UNL     1      26.559   1.866  52.774  1.00  0.00     0.041 C 
HETATM   10  C11 UNL     1      27.305   1.209  53.646  1.00  0.00     0.028 C 
HETATM   11  C13 UNL     1      26.890   0.166  54.572  1.00  0.00     0.013 C 
HETATM   12  C14 UNL     1      25.701  -0.417  54.603  1.00  0.00    -0.020 C 
HETATM   13  C15 UNL     1      24.448  -0.313  53.852  1.00  0.00     0.086 C 
BRANCH   9  14
HETATM   14  N4  UNL     1      27.288   2.826  52.019  1.00  0.00    -0.398 N 
HETATM   15  H8  UNL     1      26.953   2.931  51.028  1.00  0.00     0.156 HD
HETATM   16  H9  UNL     1      28.106   3.474  52.226  1.00  0.00     0.156 HD
ENDBRANCH   9  14
BRANCH  10  17
HETATM   17  C12 UNL     1      28.715   1.579  53.674  1.00  0.00     0.272 C 
HETATM   18  O1  UNL     1      29.104   2.454  54.488  1.00  0.00    -0.301 OA
ENDBRANCH  10  17
ENDBRANCH   3   7
BRANCH   1  19
HETATM   19  C6  UNL     1      20.556   2.739  50.498  1.00  0.00     0.015 A 
HETATM   20  C2  UNL     1      20.691   2.524  49.126  1.00  0.00    -0.047 A 
HETATM   21  C1  UNL     1      21.419   1.347  48.579  1.00  0.00     0.049 C 
HETATM   22  C3  UNL     1      20.143   3.412  48.207  1.00  0.00     0.027 A 
HETATM   23  C4  UNL     1      19.477   4.490  48.752  1.00  0.00     0.116 A 
HETATM   24  N1  UNL     1      19.332   4.722  50.074  1.00  0.00    -0.272 NA
HETATM   25  C5  UNL     1      19.869   3.851  50.978  1.00  0.00     0.130 A 
ENDBRANCH   1  19
TORSDOF 4
ENDMDL
