MODEL 1
REMARK VINA RESULT:      -7.4      0.000      0.000
REMARK  5 active torsions:
REMARK  status: ('A' for Active; 'I' for Inactive)
REMARK    1  A    between atoms: N1_2  and  C2_3 
REMARK    2  A    between atoms: C2_3  and  C11_15 
REMARK    3  A    between atoms: C5_6  and  O1_7 
REMARK    4  A    between atoms: C7_9  and  C8_10 
REMARK    5  A    between atoms: C8_10  and  N2_11 
ROOT
HETATM    1  C2  UNL     1      25.999   0.151  52.812  1.00  0.00     0.078 C 
HETATM    2  C3  UNL     1      24.799  -0.022  53.299  1.00  0.00     0.024 A 
HETATM    3  C4  UNL     1      23.710   0.544  52.513  1.00  0.00     0.053 A 
HETATM    4  C5  UNL     1      22.449   0.432  52.956  1.00  0.00     0.077 A 
HETATM    5  C7  UNL     1      22.083  -0.237  54.202  1.00  0.00     0.005 A 
HETATM    6  C9  UNL     1      23.024  -0.768  54.956  1.00  0.00     0.043 A 
HETATM    7  C10 UNL     1      24.416  -0.684  54.538  1.00  0.00     0.061 A 
HETATM    8  N3  UNL     1      25.367  -1.181  55.247  1.00  0.00    -0.299 NA
HETATM    9  H12 UNL     1      25.114  -1.660  56.137  1.00  0.00     0.187 HD
ENDROOT
BRANCH   1  10
HETATM   10  N1  UNL     1      26.154   0.862  51.587  1.00  0.00    -0.270 NA
HETATM   11  C1  UNL     1      26.614   2.079  51.652  1.00  0.00     0.149 C 
ENDBRANCH   1  10
BRANCH   1  12
HETATM   12  C11 UNL     1      27.340  -0.240  53.152  1.00  0.00    -0.006 A 
HETATM   13  C12 UNL     1      27.710  -1.504  52.746  1.00  0.00     0.014 A 
HETATM   14  C13 UNL     1      28.990  -1.965  53.073  1.00  0.00     0.001 A 
HETATM   15  C14 UNL     1      29.873  -1.192  53.782  1.00  0.00     0.000 A 
HETATM   16  C15 UNL     1      29.502   0.073  54.187  1.00  0.00     0.001 A 
HETATM   17  C16 UNL     1      28.241   0.546  53.873  1.00  0.00     0.014 A 
ENDBRANCH   1  12
BRANCH   4  18
HETATM   18  O1  UNL     1      21.356   0.955  52.249  1.00  0.00    -0.355 OA
HETATM   19  C6  UNL     1      21.238   0.451  50.911  1.00  0.00     0.210 C 
ENDBRANCH   4  18
BRANCH   5  20
HETATM   20  C8  UNL     1      20.665  -0.328  54.648  1.00  0.00     0.308 C 
BRANCH  20  21
HETATM   21  N2  UNL     1      19.941  -1.352  53.934  1.00  0.00     0.082 N 
HETATM   22  H9  UNL     1      19.843  -1.140  52.940  1.00  0.00     0.313 HD
HETATM   23  H10 UNL     1      20.284  -2.306  54.163  1.00  0.00     0.313 HD
ENDBRANCH  20  21
ENDBRANCH   5  20
TORSDOF 5
ENDMDL
MODEL 2
REMARK VINA RESULT:      -7.1      1.549      2.935
REMARK  5 active torsions:
REMARK  status: ('A' for Active; 'I' for Inactive)
REMARK    1  A    between atoms: N1_2  and  C2_3 
REMARK    2  A    between atoms: C2_3  and  C11_15 
REMARK    3  A    between atoms: C5_6  and  O1_7 
REMARK    4  A    between atoms: C7_9  and  C8_10 
REMARK    5  A    between atoms: C8_10  and  N2_11 
ROOT
HETATM    1  C2  UNL     1      25.751  -0.267  53.608  1.00  0.00     0.078 C 
HETATM    2  C3  UNL     1      24.824   0.398  52.972  1.00  0.00     0.024 A 
HETATM    3  C4  UNL     1      23.452   0.116  53.378  1.00  0.00     0.053 A 
HETATM    4  C5  UNL     1      22.440   0.738  52.757  1.00  0.00     0.077 A 
HETATM    5  C7  UNL     1      22.620   1.704  51.676  1.00  0.00     0.005 A 
HETATM    6  C9  UNL     1      23.837   2.000  51.266  1.00  0.00     0.043 A 
HETATM    7  C10 UNL     1      24.985   1.362  51.893  1.00  0.00     0.061 A 
HETATM    8  N3  UNL     1      26.189   1.615  51.518  1.00  0.00    -0.299 NA
HETATM    9  H12 UNL     1      26.326   2.303  50.748  1.00  0.00     0.187 HD
ENDROOT
BRANCH   1  10
HETATM   10  N1  UNL     1      25.369  -1.195  54.620  1.00  0.00    -0.270 NA
HETATM   11  C1  UNL     1      25.383  -0.777  55.854  1.00  0.00     0.149 C 
ENDBRANCH   1  10
BRANCH   1  12
HETATM   12  C11 UNL     1      27.188  -0.314  53.628  1.00  0.00    -0.006 A 
HETATM   13  C12 UNL     1      27.750  -1.456  53.099  1.00  0.00     0.014 A 
HETATM   14  C13 UNL     1      29.143  -1.587  53.118  1.00  0.00     0.001 A 
HETATM   15  C14 UNL     1      29.950  -0.612  53.645  1.00  0.00     0.000 A 
HETATM   16  C15 UNL     1      29.386   0.530  54.173  1.00  0.00     0.001 A 
HETATM   17  C16 UNL     1      28.011   0.678  54.164  1.00  0.00     0.014 A 
ENDBRANCH   1  12
BRANCH   4  18
HETATM   18  O1  UNL     1      21.097   0.511  53.098  1.00  0.00    -0.355 OA
HETATM   19  C6  UNL     1      20.896   0.213  54.487  1.00  0.00     0.210 C 
ENDBRANCH   4  18
BRANCH   5  20
HETATM   20  C8  UNL     1      21.457   2.362  51.019  1.00  0.00     0.308 C 
BRANCH  20  21
HETATM   21  N2  UNL     1      20.774   3.266  51.913  1.00  0.00     0.082 N 
HETATM   22  H9  UNL     1      21.303   4.124  52.079  1.00  0.00     0.313 HD
HETATM   23  H10 UNL     1      19.776   3.391  51.656  1.00  0.00     0.313 HD
ENDBRANCH  20  21
ENDBRANCH   5  20
TORSDOF 5
ENDMDL
MODEL 3
REMARK VINA RESULT:      -6.9      2.291      3.954
REMARK  5 active torsions:
REMARK  status: ('A' for Active; 'I' for Inactive)
REMARK    1  A    between atoms: N1_2  and  C2_3 
REMARK    2  A    between atoms: C2_3  and  C11_15 
REMARK    3  A    between atoms: C5_6  and  O1_7 
REMARK    4  A    between atoms: C7_9  and  C8_10 
REMARK    5  A    between atoms: C8_10  and  N2_11 
ROOT
HETATM    1  C2  UNL     1      25.745   0.573  52.552  1.00  0.00     0.078 C 
HETATM    2  C3  UNL     1      25.241   1.541  51.833  1.00  0.00     0.024 A 
HETATM    3  C4  UNL     1      23.819   1.434  51.535  1.00  0.00     0.053 A 
HETATM    4  C5  UNL     1      23.230   2.373  50.782  1.00  0.00     0.077 A 
HETATM    5  C7  UNL     1      23.932   3.527  50.226  1.00  0.00     0.005 A 
HETATM    6  C9  UNL     1      25.220   3.679  50.461  1.00  0.00     0.043 A 
HETATM    7  C10 UNL     1      25.926   2.696  51.271  1.00  0.00     0.061 A 
HETATM    8  N3  UNL     1      27.184   2.801  51.518  1.00  0.00    -0.299 NA
HETATM    9  H12 UNL     1      27.692   3.621  51.125  1.00  0.00     0.187 HD
ENDROOT
BRANCH   1  10
HETATM   10  N1  UNL     1      24.895  -0.488  52.979  1.00  0.00    -0.270 NA
HETATM   11  C1  UNL     1      24.537  -0.505  54.231  1.00  0.00     0.149 C 
ENDBRANCH   1  10
BRANCH   1  12
HETATM   12  C11 UNL     1      27.017   0.249  53.140  1.00  0.00    -0.006 A 
HETATM   13  C12 UNL     1      27.613  -0.899  52.666  1.00  0.00     0.014 A 
HETATM   14  C13 UNL     1      28.836  -1.296  53.218  1.00  0.00     0.001 A 
HETATM   15  C14 UNL     1      29.444  -0.573  54.211  1.00  0.00     0.000 A 
HETATM   16  C15 UNL     1      28.847   0.577  54.684  1.00  0.00     0.001 A 
HETATM   17  C16 UNL     1      27.638   0.985  54.151  1.00  0.00     0.014 A 
ENDBRANCH   1  12
BRANCH   4  18
HETATM   18  O1  UNL     1      21.865   2.329  50.457  1.00  0.00    -0.355 OA
HETATM   19  C6  UNL     1      21.433   1.059  49.947  1.00  0.00     0.210 C 
ENDBRANCH   4  18
BRANCH   5  20
HETATM   20  C8  UNL     1      23.227   4.539  49.391  1.00  0.00     0.308 C 
BRANCH  20  21
HETATM   21  N2  UNL     1      22.772   3.982  48.140  1.00  0.00     0.082 N 
HETATM   22  H9  UNL     1      22.038   3.283  48.268  1.00  0.00     0.313 HD
HETATM   23  H10 UNL     1      22.580   4.716  47.432  1.00  0.00     0.313 HD
ENDBRANCH  20  21
ENDBRANCH   5  20
TORSDOF 5
ENDMDL
MODEL 4
REMARK VINA RESULT:      -6.8      3.095      6.359
REMARK  5 active torsions:
REMARK  status: ('A' for Active; 'I' for Inactive)
REMARK    1  A    between atoms: N1_2  and  C2_3 
REMARK    2  A    between atoms: C2_3  and  C11_15 
REMARK    3  A    between atoms: C5_6  and  O1_7 
REMARK    4  A    between atoms: C7_9  and  C8_10 
REMARK    5  A    between atoms: C8_10  and  N2_11 
ROOT
HETATM    1  C2  UNL     1      24.361   2.463  51.963  1.00  0.00     0.078 C 
HETATM    2  C3  UNL     1      25.425   1.870  52.434  1.00  0.00     0.024 A 
HETATM    3  C4  UNL     1      25.182   0.803  53.397  1.00  0.00     0.053 A 
HETATM    4  C5  UNL     1      26.222   0.160  53.947  1.00  0.00     0.077 A 
HETATM    5  C7  UNL     1      27.618   0.461  53.639  1.00  0.00     0.005 A 
HETATM    6  C9  UNL     1      27.902   1.415  52.775  1.00  0.00     0.043 A 
HETATM    7  C10 UNL     1      26.822   2.157  52.139  1.00  0.00     0.061 A 
HETATM    8  N3  UNL     1      27.054   3.101  51.297  1.00  0.00    -0.299 NA
HETATM    9  H12 UNL     1      28.047   3.322  51.072  1.00  0.00     0.187 HD
ENDROOT
BRANCH   1  10
HETATM   10  N1  UNL     1      23.076   2.041  52.413  1.00  0.00    -0.270 NA
HETATM   11  C1  UNL     1      22.398   1.245  51.635  1.00  0.00     0.149 C 
ENDBRANCH   1  10
BRANCH   1  12
HETATM   12  C11 UNL     1      24.065   3.484  50.996  1.00  0.00    -0.006 A 
HETATM   13  C12 UNL     1      23.744   4.719  51.518  1.00  0.00     0.014 A 
HETATM   14  C13 UNL     1      23.409   5.752  50.636  1.00  0.00     0.001 A 
HETATM   15  C14 UNL     1      23.394   5.562  49.278  1.00  0.00     0.000 A 
HETATM   16  C15 UNL     1      23.716   4.327  48.757  1.00  0.00     0.001 A 
HETATM   17  C16 UNL     1      24.049   3.292  49.613  1.00  0.00     0.014 A 
ENDBRANCH   1  12
BRANCH   4  18
HETATM   18  O1  UNL     1      26.057  -0.874  54.881  1.00  0.00    -0.355 OA
HETATM   19  C6  UNL     1      24.694  -1.085  55.275  1.00  0.00     0.210 C 
ENDBRANCH   4  18
BRANCH   5  20
HETATM   20  C8  UNL     1      28.735  -0.283  54.283  1.00  0.00     0.308 C 
BRANCH  20  21
HETATM   21  N2  UNL     1      28.922  -1.588  53.696  1.00  0.00     0.082 N 
HETATM   22  H9  UNL     1      28.822  -1.577  52.680  1.00  0.00     0.313 HD
HETATM   23  H10 UNL     1      29.769  -2.064  54.064  1.00  0.00     0.313 HD
ENDBRANCH  20  21
ENDBRANCH   5  20
TORSDOF 5
ENDMDL
MODEL 5
REMARK VINA RESULT:      -6.6      2.300      6.676
REMARK  5 active torsions:
REMARK  status: ('A' for Active; 'I' for Inactive)
REMARK    1  A    between atoms: N1_2  and  C2_3 
REMARK    2  A    between atoms: C2_3  and  C11_15 
REMARK    3  A    between atoms: C5_6  and  O1_7 
REMARK    4  A    between atoms: C7_9  and  C8_10 
REMARK    5  A    between atoms: C8_10  and  N2_11 
ROOT
HETATM    1  C2  UNL     1      22.878   0.204  52.632  1.00  0.00     0.078 C 
HETATM    2  C3  UNL     1      24.115   0.615  52.719  1.00  0.00     0.024 A 
HETATM    3  C4  UNL     1      25.073  -0.361  53.225  1.00  0.00     0.053 A 
HETATM    4  C5  UNL     1      26.359  -0.011  53.368  1.00  0.00     0.077 A 
HETATM    5  C7  UNL     1      26.881   1.314  53.042  1.00  0.00     0.005 A 
HETATM    6  C9  UNL     1      26.064   2.239  52.580  1.00  0.00     0.043 A 
HETATM    7  C10 UNL     1      24.652   1.930  52.400  1.00  0.00     0.061 A 
HETATM    8  N3  UNL     1      23.818   2.805  51.960  1.00  0.00    -0.299 NA
HETATM    9  H12 UNL     1      24.183   3.752  51.725  1.00  0.00     0.187 HD
ENDROOT
BRANCH   1  10
HETATM   10  N1  UNL     1      22.561  -1.128  53.029  1.00  0.00    -0.270 NA
HETATM   11  C1  UNL     1      21.952  -1.285  54.170  1.00  0.00     0.149 C 
ENDBRANCH   1  10
BRANCH   1  12
HETATM   12  C11 UNL     1      21.624   0.729  52.166  1.00  0.00    -0.006 A 
HETATM   13  C12 UNL     1      21.233   0.305  50.914  1.00  0.00     0.014 A 
HETATM   14  C13 UNL     1      20.039   0.804  50.381  1.00  0.00     0.001 A 
HETATM   15  C14 UNL     1      19.260   1.695  51.072  1.00  0.00     0.000 A 
HETATM   16  C15 UNL     1      19.652   2.117  52.325  1.00  0.00     0.001 A 
HETATM   17  C16 UNL     1      20.829   1.636  52.869  1.00  0.00     0.014 A 
ENDBRANCH   1  12
BRANCH   4  18
HETATM   18  O1  UNL     1      27.331  -0.901  53.850  1.00  0.00    -0.355 OA
HETATM   19  C6  UNL     1      27.620  -1.982  52.952  1.00  0.00     0.210 C 
ENDBRANCH   4  18
BRANCH   5  20
HETATM   20  C8  UNL     1      28.320   1.650  53.225  1.00  0.00     0.308 C 
BRANCH  20  21
HETATM   21  N2  UNL     1      28.659   1.828  54.616  1.00  0.00     0.082 N 
HETATM   22  H9  UNL     1      29.433   2.481  54.749  1.00  0.00     0.313 HD
HETATM   23  H10 UNL     1      27.819   1.994  55.205  1.00  0.00     0.313 HD
ENDBRANCH  20  21
ENDBRANCH   5  20
TORSDOF 5
ENDMDL
MODEL 6
REMARK VINA RESULT:      -6.4      2.441      6.239
REMARK  5 active torsions:
REMARK  status: ('A' for Active; 'I' for Inactive)
REMARK    1  A    between atoms: N1_2  and  C2_3 
REMARK    2  A    between atoms: C2_3  and  C11_15 
REMARK    3  A    between atoms: C5_6  and  O1_7 
REMARK    4  A    between atoms: C7_9  and  C8_10 
REMARK    5  A    between atoms: C8_10  and  N2_11 
ROOT
HETATM    1  C2  UNL     1      23.967   1.402  52.173  1.00  0.00     0.078 C 
HETATM    2  C3  UNL     1      25.052   0.773  52.540  1.00  0.00     0.024 A 
HETATM    3  C4  UNL     1      26.290   1.535  52.440  1.00  0.00     0.053 A 
HETATM    4  C5  UNL     1      27.451   0.953  52.773  1.00  0.00     0.077 A 
HETATM    5  C7  UNL     1      27.564  -0.425  53.244  1.00  0.00     0.005 A 
HETATM    6  C9  UNL     1      26.479  -1.164  53.356  1.00  0.00     0.043 A 
HETATM    7  C10 UNL     1      25.182  -0.599  53.010  1.00  0.00     0.061 A 
HETATM    8  N3  UNL     1      24.099  -1.287  53.096  1.00  0.00    -0.299 NA
HETATM    9  H12 UNL     1      24.171  -2.271  53.432  1.00  0.00     0.187 HD
ENDROOT
BRANCH   1  10
HETATM   10  N1  UNL     1      24.068   2.747  51.711  1.00  0.00    -0.270 NA
HETATM   11  C1  UNL     1      23.735   3.694  52.541  1.00  0.00     0.149 C 
ENDBRANCH   1  10
BRANCH   1  12
HETATM   12  C11 UNL     1      22.555   1.134  52.135  1.00  0.00    -0.006 A 
HETATM   13  C12 UNL     1      22.015   0.983  50.877  1.00  0.00     0.014 A 
HETATM   14  C13 UNL     1      20.639   0.755  50.762  1.00  0.00     0.001 A 
HETATM   15  C14 UNL     1      19.828   0.682  51.864  1.00  0.00     0.000 A 
HETATM   16  C15 UNL     1      20.370   0.833  53.123  1.00  0.00     0.001 A 
HETATM   17  C16 UNL     1      21.727   1.059  53.257  1.00  0.00     0.014 A 
ENDBRANCH   1  12
BRANCH   4  18
HETATM   18  O1  UNL     1      28.679   1.630  52.699  1.00  0.00    -0.355 OA
HETATM   19  C6  UNL     1      28.900   2.545  53.781  1.00  0.00     0.210 C 
ENDBRANCH   4  18
BRANCH   5  20
HETATM   20  C8  UNL     1      28.882  -1.021  53.598  1.00  0.00     0.308 C 
BRANCH  20  21
HETATM   21  N2  UNL     1      28.925  -2.436  53.319  1.00  0.00     0.082 N 
HETATM   22  H9  UNL     1      28.356  -2.693  52.511  1.00  0.00     0.313 HD
HETATM   23  H10 UNL     1      29.894  -2.808  53.329  1.00  0.00     0.313 HD
ENDBRANCH  20  21
ENDBRANCH   5  20
TORSDOF 5
ENDMDL
MODEL 7
REMARK VINA RESULT:      -6.3      9.549     11.148
REMARK  5 active torsions:
REMARK  status: ('A' for Active; 'I' for Inactive)
REMARK    1  A    between atoms: N1_2  and  C2_3 
REMARK    2  A    between atoms: C2_3  and  C11_15 
REMARK    3  A    between atoms: C5_6  and  O1_7 
REMARK    4  A    between atoms: C7_9  and  C8_10 
REMARK    5  A    between atoms: C8_10  and  N2_11 
ROOT
HETATM    1  C2  UNL     1      32.630   6.475  47.354  1.00  0.00     0.078 C 
HETATM    2  C3  UNL     1      31.364   6.613  47.642  1.00  0.00     0.024 A 
HETATM    3  C4  UNL     1      30.914   7.979  47.882  1.00  0.00     0.053 A 
HETATM    4  C5  UNL     1      29.633   8.204  48.208  1.00  0.00     0.077 A 
HETATM    5  C7  UNL     1      28.631   7.149  48.341  1.00  0.00     0.005 A 
HETATM    6  C9  UNL     1      28.977   5.894  48.136  1.00  0.00     0.043 A 
HETATM    7  C10 UNL     1      30.352   5.574  47.780  1.00  0.00     0.061 A 
HETATM    8  N3  UNL     1      30.736   4.363  47.579  1.00  0.00    -0.299 NA
HETATM    9  H12 UNL     1      30.027   3.605  47.672  1.00  0.00     0.187 HD
ENDROOT
BRANCH   1  10
HETATM   10  N1  UNL     1      33.459   7.634  47.301  1.00  0.00    -0.270 NA
HETATM   11  C1  UNL     1      34.251   7.854  48.311  1.00  0.00     0.149 C 
ENDBRANCH   1  10
BRANCH   1  12
HETATM   12  C11 UNL     1      33.519   5.404  46.994  1.00  0.00    -0.006 A 
HETATM   13  C12 UNL     1      33.791   5.287  45.649  1.00  0.00     0.014 A 
HETATM   14  C13 UNL     1      34.620   4.244  45.221  1.00  0.00     0.001 A 
HETATM   15  C14 UNL     1      35.160   3.347  46.105  1.00  0.00     0.000 A 
HETATM   16  C15 UNL     1      34.887   3.465  47.451  1.00  0.00     0.001 A 
HETATM   17  C16 UNL     1      34.070   4.489  47.894  1.00  0.00     0.014 A 
ENDBRANCH   1  12
BRANCH   4  18
HETATM   18  O1  UNL     1      29.136   9.493  48.453  1.00  0.00    -0.355 OA
HETATM   19  C6  UNL     1      30.077  10.363  49.097  1.00  0.00     0.210 C 
ENDBRANCH   4  18
BRANCH   5  20
HETATM   20  C8  UNL     1      27.222   7.457  48.709  1.00  0.00     0.308 C 
BRANCH  20  21
HETATM   21  N2  UNL     1      27.120   8.000  50.042  1.00  0.00     0.082 N 
HETATM   22  H9  UNL     1      27.358   7.316  50.762  1.00  0.00     0.313 HD
HETATM   23  H10 UNL     1      27.585   8.926  50.124  1.00  0.00     0.313 HD
ENDBRANCH  20  21
ENDBRANCH   5  20
TORSDOF 5
ENDMDL
MODEL 8
REMARK VINA RESULT:      -6.0      1.625      2.453
REMARK  5 active torsions:
REMARK  status: ('A' for Active; 'I' for Inactive)
REMARK    1  A    between atoms: N1_2  and  C2_3 
REMARK    2  A    between atoms: C2_3  and  C11_15 
REMARK    3  A    between atoms: C5_6  and  O1_7 
REMARK    4  A    between atoms: C7_9  and  C8_10 
REMARK    5  A    between atoms: C8_10  and  N2_11 
ROOT
HETATM    1  C2  UNL     1      24.499   0.958  52.140  1.00  0.00     0.078 C 
HETATM    2  C3  UNL     1      23.221   0.696  52.214  1.00  0.00     0.024 A 
HETATM    3  C4  UNL     1      22.371   1.418  51.274  1.00  0.00     0.053 A 
HETATM    4  C5  UNL     1      21.045   1.225  51.302  1.00  0.00     0.077 A 
HETATM    5  C7  UNL     1      20.376   0.317  52.230  1.00  0.00     0.005 A 
HETATM    6  C9  UNL     1      21.091  -0.364  53.103  1.00  0.00     0.043 A 
HETATM    7  C10 UNL     1      22.537  -0.204  53.132  1.00  0.00     0.061 A 
HETATM    8  N3  UNL     1      23.273  -0.841  53.972  1.00  0.00    -0.299 NA
HETATM    9  H12 UNL     1      22.803  -1.491  54.638  1.00  0.00     0.187 HD
ENDROOT
BRANCH   1  10
HETATM   10  N1  UNL     1      24.958   1.905  51.178  1.00  0.00    -0.270 NA
HETATM   11  C1  UNL     1      25.258   3.098  51.605  1.00  0.00     0.149 C 
ENDBRANCH   1  10
BRANCH   1  12
HETATM   12  C11 UNL     1      25.707   0.499  52.769  1.00  0.00    -0.006 A 
HETATM   13  C12 UNL     1      26.056   1.153  53.930  1.00  0.00     0.014 A 
HETATM   14  C13 UNL     1      27.239   0.782  54.578  1.00  0.00     0.001 A 
HETATM   15  C14 UNL     1      28.049  -0.207  54.085  1.00  0.00     0.000 A 
HETATM   16  C15 UNL     1      27.699  -0.862  52.923  1.00  0.00     0.001 A 
HETATM   17  C16 UNL     1      26.533  -0.510  52.268  1.00  0.00     0.014 A 
ENDBRANCH   1  12
BRANCH   4  18
HETATM   18  O1  UNL     1      20.171   1.888  50.427  1.00  0.00    -0.355 OA
HETATM   19  C6  UNL     1      20.185   3.315  50.567  1.00  0.00     0.210 C 
ENDBRANCH   4  18
BRANCH   5  20
HETATM   20  C8  UNL     1      18.897   0.144  52.218  1.00  0.00     0.308 C 
BRANCH  20  21
HETATM   21  N2  UNL     1      18.477  -0.964  53.042  1.00  0.00     0.082 N 
HETATM   22  H9  UNL     1      18.184  -0.668  53.975  1.00  0.00     0.313 HD
HETATM   23  H10 UNL     1      17.826  -1.600  52.542  1.00  0.00     0.313 HD
ENDBRANCH  20  21
ENDBRANCH   5  20
TORSDOF 5
ENDMDL
MODEL 9
REMARK VINA RESULT:      -6.0      3.133      6.522
REMARK  5 active torsions:
REMARK  status: ('A' for Active; 'I' for Inactive)
REMARK    1  A    between atoms: N1_2  and  C2_3 
REMARK    2  A    between atoms: C2_3  and  C11_15 
REMARK    3  A    between atoms: C5_6  and  O1_7 
REMARK    4  A    between atoms: C7_9  and  C8_10 
REMARK    5  A    between atoms: C8_10  and  N2_11 
ROOT
HETATM    1  C2  UNL     1      24.037   3.165  50.758  1.00  0.00     0.078 C 
HETATM    2  C3  UNL     1      24.412   2.365  51.720  1.00  0.00     0.024 A 
HETATM    3  C4  UNL     1      25.612   2.763  52.444  1.00  0.00     0.053 A 
HETATM    4  C5  UNL     1      26.078   1.983  53.430  1.00  0.00     0.077 A 
HETATM    5  C7  UNL     1      25.448   0.730  53.840  1.00  0.00     0.005 A 
HETATM    6  C9  UNL     1      24.360   0.317  53.223  1.00  0.00     0.043 A 
HETATM    7  C10 UNL     1      23.798   1.113  52.141  1.00  0.00     0.061 A 
HETATM    8  N3  UNL     1      22.742   0.744  51.506  1.00  0.00    -0.299 NA
HETATM    9  H12 UNL     1      22.287  -0.149  51.793  1.00  0.00     0.187 HD
ENDROOT
BRANCH   1  10
HETATM   10  N1  UNL     1      24.807   4.334  50.490  1.00  0.00    -0.270 NA
HETATM   11  C1  UNL     1      25.611   4.303  49.465  1.00  0.00     0.149 C 
ENDBRANCH   1  10
BRANCH   1  12
HETATM   12  C11 UNL     1      22.947   3.254  49.825  1.00  0.00    -0.006 A 
HETATM   13  C12 UNL     1      21.902   4.065  50.212  1.00  0.00     0.014 A 
HETATM   14  C13 UNL     1      20.790   4.171  49.370  1.00  0.00     0.001 A 
HETATM   15  C14 UNL     1      20.721   3.492  48.181  1.00  0.00     0.000 A 
HETATM   16  C15 UNL     1      21.767   2.681  47.795  1.00  0.00     0.001 A 
HETATM   17  C16 UNL     1      22.875   2.563  48.614  1.00  0.00     0.014 A 
ENDBRANCH   1  12
BRANCH   4  18
HETATM   18  O1  UNL     1      27.228   2.308  54.166  1.00  0.00    -0.355 OA
HETATM   19  C6  UNL     1      28.409   2.442  53.363  1.00  0.00     0.210 C 
ENDBRANCH   4  18
BRANCH   5  20
HETATM   20  C8  UNL     1      26.012  -0.099  54.941  1.00  0.00     0.308 C 
BRANCH  20  21
HETATM   21  N2  UNL     1      27.316  -0.619  54.610  1.00  0.00     0.082 N 
HETATM   22  H9  UNL     1      27.851  -0.888  55.437  1.00  0.00     0.313 HD
HETATM   23  H10 UNL     1      27.275  -1.324  53.848  1.00  0.00     0.313 HD
ENDBRANCH  20  21
ENDBRANCH   5  20
TORSDOF 5
ENDMDL
