MODEL 1
REMARK VINA RESULT:      -9.2      0.000      0.000
REMARK  4 active torsions:
REMARK  status: ('A' for Active; 'I' for Inactive)
REMARK    1  A    between atoms: C10_15  and  C11_16 
REMARK    2  A    between atoms: C15_22  and  C16_23 
REMARK    3  A    between atoms: C17_24  and  C18_25 
REMARK    4  A    between atoms: C19_26  and  C20_27 
ROOT
HETATM    1  C1  UNL     1      22.347   2.620  47.698  1.00  0.00     0.050 C 
HETATM    2  C2  UNL     1      22.806   3.309  48.971  1.00  0.00    -0.035 C 
HETATM    3  C3  UNL     1      22.757   4.618  48.701  1.00  0.00     0.037 C 
HETATM    4  C4  UNL     1      22.328   5.121  47.385  1.00  0.00     0.225 C 
HETATM    5  O1  UNL     1      21.382   6.121  47.470  1.00  0.00    -0.384 OA
HETATM    6  C5  UNL     1      20.765   6.313  48.660  1.00  0.00     0.187 C 
HETATM    7  C6  UNL     1      21.778   6.561  49.792  1.00  0.00     0.149 C 
HETATM    8  N1  UNL     1      23.007   5.985  49.212  1.00  0.00    -0.378 N 
HETATM    9  C7  UNL     1      24.258   6.851  49.240  1.00  0.00     0.142 C 
HETATM   10  C8  UNL     1      24.369   7.301  50.767  1.00  0.00     0.144 C 
HETATM   11  N2  UNL     1      24.083   6.016  51.332  1.00  0.00    -0.341 N 
HETATM   12  C9  UNL     1      23.806   4.801  51.908  1.00  0.00     0.320 C 
HETATM   13  O2  UNL     1      23.604   5.067  53.030  1.00  0.00    -0.247 OA
HETATM   14  N3  UNL     1      23.696   3.485  51.528  1.00  0.00    -0.309 N 
HETATM   15  C10 UNL     1      23.563   2.144  51.191  1.00  0.00     0.037 C 
HETATM   16  C21 UNL     1      23.116   2.283  49.926  1.00  0.00     0.038 C 
HETATM   17  H14 UNL     1      24.309   5.525  50.476  1.00  0.00     0.164 HD
HETATM   18  H15 UNL     1      24.371   3.611  50.757  1.00  0.00     0.170 HD
ENDROOT
BRANCH  15  19
HETATM   19  C11 UNL     1      23.907   1.143  52.100  1.00  0.00     0.040 C 
HETATM   20  C12 UNL     1      23.338   0.460  53.062  1.00  0.00    -0.007 A 
HETATM   21  C13 UNL     1      21.932   0.670  53.432  1.00  0.00     0.191 A 
HETATM   22  C15 UNL     1      24.164  -0.550  53.774  1.00  0.00     0.066 A 
HETATM   23  N4  UNL     1      21.464  -0.165  54.512  1.00  0.00    -0.278 NA
HETATM   24  C14 UNL     1      22.229  -0.996  55.063  1.00  0.00     0.227 A 
HETATM   25  N5  UNL     1      23.574  -1.217  54.725  1.00  0.00    -0.242 NA
BRANCH  22  26
HETATM   26  C16 UNL     1      25.536  -0.754  53.411  1.00  0.00     0.032 C 
HETATM   27  C17 UNL     1      26.600  -0.912  52.667  1.00  0.00     0.002 C 
BRANCH  27  28
HETATM   28  C18 UNL     1      27.997  -1.125  53.045  1.00  0.00    -0.003 C 
HETATM   29  C19 UNL     1      28.818  -0.552  53.842  1.00  0.00    -0.016 C 
BRANCH  29  30
HETATM   30  C20 UNL     1      28.592   0.616  54.714  1.00  0.00     0.112 C 
HETATM   31 BR1  UNL     1      28.564   2.211  53.599  1.00  0.00    -0.092 Br
ENDBRANCH  29  30
ENDBRANCH  27  28
ENDBRANCH  22  26
ENDBRANCH  15  19
TORSDOF 4
ENDMDL
MODEL 2
REMARK VINA RESULT:      -9.1      2.060      3.637
REMARK  4 active torsions:
REMARK  status: ('A' for Active; 'I' for Inactive)
REMARK    1  A    between atoms: C10_15  and  C11_16 
REMARK    2  A    between atoms: C15_22  and  C16_23 
REMARK    3  A    between atoms: C17_24  and  C18_25 
REMARK    4  A    between atoms: C19_26  and  C20_27 
ROOT
HETATM    1  C1  UNL     1      22.667   2.540  47.851  1.00  0.00     0.050 C 
HETATM    2  C2  UNL     1      23.022   3.274  49.133  1.00  0.00    -0.035 C 
HETATM    3  C3  UNL     1      22.854   4.571  48.855  1.00  0.00     0.037 C 
HETATM    4  C4  UNL     1      22.414   5.027  47.525  1.00  0.00     0.225 C 
HETATM    5  O1  UNL     1      21.374   5.931  47.580  1.00  0.00    -0.384 OA
HETATM    6  C5  UNL     1      20.710   6.064  48.752  1.00  0.00     0.187 C 
HETATM    7  C6  UNL     1      21.662   6.412  49.910  1.00  0.00     0.149 C 
HETATM    8  N1  UNL     1      22.956   5.957  49.366  1.00  0.00    -0.378 N 
HETATM    9  C7  UNL     1      24.117   6.940  49.423  1.00  0.00     0.142 C 
HETATM   10  C8  UNL     1      24.142   7.402  50.950  1.00  0.00     0.144 C 
HETATM   11  N2  UNL     1      23.966   6.096  51.514  1.00  0.00    -0.341 N 
HETATM   12  C9  UNL     1      23.793   4.862  52.088  1.00  0.00     0.320 C 
HETATM   13  O2  UNL     1      23.535   5.110  53.203  1.00  0.00    -0.247 OA
HETATM   14  N3  UNL     1      23.822   3.541  51.711  1.00  0.00    -0.309 N 
HETATM   15  C10 UNL     1      23.828   2.192  51.378  1.00  0.00     0.037 C 
HETATM   16  C21 UNL     1      23.404   2.285  50.100  1.00  0.00     0.038 C 
HETATM   17  H14 UNL     1      24.262   5.628  50.666  1.00  0.00     0.164 HD
HETATM   18  H15 UNL     1      24.501   3.730  50.958  1.00  0.00     0.170 HD
ENDROOT
BRANCH  15  19
HETATM   19  C11 UNL     1      24.242   1.231  52.301  1.00  0.00     0.040 C 
HETATM   20  C12 UNL     1      25.365   0.775  52.797  1.00  0.00    -0.007 A 
HETATM   21  C13 UNL     1      26.668   1.312  52.383  1.00  0.00     0.191 A 
HETATM   22  C15 UNL     1      25.282  -0.311  53.808  1.00  0.00     0.066 A 
HETATM   23  N4  UNL     1      27.803   0.697  53.029  1.00  0.00    -0.278 NA
HETATM   24  C14 UNL     1      27.647  -0.219  53.874  1.00  0.00     0.227 A 
HETATM   25  N5  UNL     1      26.413  -0.746  54.287  1.00  0.00    -0.242 NA
BRANCH  22  26
HETATM   26  C16 UNL     1      24.010  -0.834  54.211  1.00  0.00     0.032 C 
HETATM   27  C17 UNL     1      23.048  -1.268  54.986  1.00  0.00     0.002 C 
BRANCH  27  28
HETATM   28  C18 UNL     1      21.711  -1.758  54.651  1.00  0.00    -0.003 C 
HETATM   29  C19 UNL     1      20.651  -1.238  54.159  1.00  0.00    -0.016 C 
BRANCH  29  30
HETATM   30  C20 UNL     1      20.421   0.156  53.735  1.00  0.00     0.112 C 
HETATM   31 BR1  UNL     1      20.561   0.233  51.795  1.00  0.00    -0.092 Br
ENDBRANCH  29  30
ENDBRANCH  27  28
ENDBRANCH  22  26
ENDBRANCH  15  19
TORSDOF 4
ENDMDL
MODEL 3
REMARK VINA RESULT:      -9.1      2.622      4.164
REMARK  4 active torsions:
REMARK  status: ('A' for Active; 'I' for Inactive)
REMARK    1  A    between atoms: C10_15  and  C11_16 
REMARK    2  A    between atoms: C15_22  and  C16_23 
REMARK    3  A    between atoms: C17_24  and  C18_25 
REMARK    4  A    between atoms: C19_26  and  C20_27 
ROOT
HETATM    1  C1  UNL     1      26.865   4.820  48.942  1.00  0.00     0.050 C 
HETATM    2  C2  UNL     1      25.616   4.752  49.804  1.00  0.00    -0.035 C 
HETATM    3  C3  UNL     1      24.860   5.783  49.410  1.00  0.00     0.037 C 
HETATM    4  C4  UNL     1      25.299   6.704  48.348  1.00  0.00     0.225 C 
HETATM    5  O1  UNL     1      24.333   6.921  47.387  1.00  0.00    -0.384 OA
HETATM    6  C5  UNL     1      23.267   6.088  47.359  1.00  0.00     0.187 C 
HETATM    7  C6  UNL     1      22.542   6.044  48.716  1.00  0.00     0.149 C 
HETATM    8  N1  UNL     1      23.600   6.530  49.624  1.00  0.00    -0.378 N 
HETATM    9  C7  UNL     1      23.231   7.656  50.579  1.00  0.00     0.142 C 
HETATM   10  C8  UNL     1      21.907   7.123  51.293  1.00  0.00     0.144 C 
HETATM   11  N2  UNL     1      22.378   5.790  51.524  1.00  0.00    -0.341 N 
HETATM   12  C9  UNL     1      22.792   4.503  51.756  1.00  0.00     0.320 C 
HETATM   13  O2  UNL     1      21.806   3.942  52.046  1.00  0.00    -0.247 OA
HETATM   14  N3  UNL     1      23.958   3.776  51.716  1.00  0.00    -0.309 N 
HETATM   15  C10 UNL     1      25.108   2.997  51.679  1.00  0.00     0.037 C 
HETATM   16  C21 UNL     1      25.766   3.632  50.688  1.00  0.00     0.038 C 
HETATM   17  H14 UNL     1      23.349   6.053  51.417  1.00  0.00     0.164 HD
HETATM   18  H15 UNL     1      24.530   4.608  51.931  1.00  0.00     0.170 HD
ENDROOT
BRANCH  15  19
HETATM   19  C11 UNL     1      25.278   1.934  52.568  1.00  0.00     0.040 C 
HETATM   20  C12 UNL     1      26.230   1.422  53.305  1.00  0.00    -0.007 A 
HETATM   21  C13 UNL     1      27.581   2.000  53.335  1.00  0.00     0.191 A 
HETATM   22  C15 UNL     1      25.903   0.226  54.124  1.00  0.00     0.066 A 
HETATM   23  N4  UNL     1      28.509   1.312  54.199  1.00  0.00    -0.278 NA
HETATM   24  C14 UNL     1      28.152   0.305  54.860  1.00  0.00     0.227 A 
HETATM   25  N5  UNL     1      26.868  -0.265  54.849  1.00  0.00    -0.242 NA
BRANCH  22  26
HETATM   26  C16 UNL     1      24.585  -0.337  54.094  1.00  0.00     0.032 C 
HETATM   27  C17 UNL     1      23.500  -0.903  53.631  1.00  0.00     0.002 C 
BRANCH  27  28
HETATM   28  C18 UNL     1      22.256  -1.265  54.311  1.00  0.00    -0.003 C 
HETATM   29  C19 UNL     1      21.106  -0.723  54.447  1.00  0.00    -0.016 C 
BRANCH  29  30
HETATM   30  C20 UNL     1      20.625   0.563  53.909  1.00  0.00     0.112 C 
HETATM   31 BR1  UNL     1      20.341   0.354  51.995  1.00  0.00    -0.092 Br
ENDBRANCH  29  30
ENDBRANCH  27  28
ENDBRANCH  22  26
ENDBRANCH  15  19
TORSDOF 4
ENDMDL
MODEL 4
REMARK VINA RESULT:      -8.9      1.749      2.206
REMARK  4 active torsions:
REMARK  status: ('A' for Active; 'I' for Inactive)
REMARK    1  A    between atoms: C10_15  and  C11_16 
REMARK    2  A    between atoms: C15_22  and  C16_23 
REMARK    3  A    between atoms: C17_24  and  C18_25 
REMARK    4  A    between atoms: C19_26  and  C20_27 
ROOT
HETATM    1  C1  UNL     1      27.242   4.788  48.829  1.00  0.00     0.050 C 
HETATM    2  C2  UNL     1      25.927   4.794  49.590  1.00  0.00    -0.035 C 
HETATM    3  C3  UNL     1      25.349   5.961  49.284  1.00  0.00     0.037 C 
HETATM    4  C4  UNL     1      25.993   6.931  48.382  1.00  0.00     0.225 C 
HETATM    5  O1  UNL     1      25.147   7.396  47.396  1.00  0.00    -0.384 OA
HETATM    6  C5  UNL     1      23.986   6.731  47.189  1.00  0.00     0.187 C 
HETATM    7  C6  UNL     1      23.151   6.629  48.478  1.00  0.00     0.149 C 
HETATM    8  N1  UNL     1      24.185   6.847  49.509  1.00  0.00    -0.378 N 
HETATM    9  C7  UNL     1      23.889   7.893  50.575  1.00  0.00     0.142 C 
HETATM   10  C8  UNL     1      22.452   7.471  51.126  1.00  0.00     0.144 C 
HETATM   11  N2  UNL     1      22.722   6.067  51.213  1.00  0.00    -0.341 N 
HETATM   12  C9  UNL     1      22.943   4.715  51.303  1.00  0.00     0.320 C 
HETATM   13  O2  UNL     1      21.870   4.269  51.451  1.00  0.00    -0.247 OA
HETATM   14  N3  UNL     1      24.002   3.841  51.246  1.00  0.00    -0.309 N 
HETATM   15  C10 UNL     1      25.037   2.917  51.183  1.00  0.00     0.037 C 
HETATM   16  C21 UNL     1      25.854   3.567  50.329  1.00  0.00     0.038 C 
HETATM   17  H14 UNL     1      23.725   6.201  51.205  1.00  0.00     0.164 HD
HETATM   18  H15 UNL     1      24.658   4.552  51.604  1.00  0.00     0.170 HD
ENDROOT
BRANCH  15  19
HETATM   19  C11 UNL     1      24.991   1.743  51.937  1.00  0.00     0.040 C 
HETATM   20  C12 UNL     1      24.116   1.065  52.634  1.00  0.00    -0.007 A 
HETATM   21  C13 UNL     1      22.724   1.515  52.777  1.00  0.00     0.191 A 
HETATM   22  C15 UNL     1      24.572  -0.192  53.282  1.00  0.00     0.066 A 
HETATM   23  N4  UNL     1      21.892   0.650  53.578  1.00  0.00    -0.278 NA
HETATM   24  C14 UNL     1      22.358  -0.397  54.093  1.00  0.00     0.227 A 
HETATM   25  N5  UNL     1      23.681  -0.849  53.970  1.00  0.00    -0.242 NA
BRANCH  22  26
HETATM   26  C16 UNL     1      25.930  -0.631  53.142  1.00  0.00     0.032 C 
HETATM   27  C17 UNL     1      26.968  -1.299  52.708  1.00  0.00     0.002 C 
BRANCH  27  28
HETATM   28  C18 UNL     1      28.376  -1.217  53.094  1.00  0.00    -0.003 C 
HETATM   29  C19 UNL     1      29.061  -0.468  53.872  1.00  0.00    -0.016 C 
BRANCH  29  30
HETATM   30  C20 UNL     1      28.601   0.659  54.704  1.00  0.00     0.112 C 
HETATM   31 BR1  UNL     1      28.500   2.245  53.580  1.00  0.00    -0.092 Br
ENDBRANCH  29  30
ENDBRANCH  27  28
ENDBRANCH  22  26
ENDBRANCH  15  19
TORSDOF 4
ENDMDL
MODEL 5
REMARK VINA RESULT:      -8.5      4.877      8.144
REMARK  4 active torsions:
REMARK  status: ('A' for Active; 'I' for Inactive)
REMARK    1  A    between atoms: C10_15  and  C11_16 
REMARK    2  A    between atoms: C15_22  and  C16_23 
REMARK    3  A    between atoms: C17_24  and  C18_25 
REMARK    4  A    between atoms: C19_26  and  C20_27 
ROOT
HETATM    1  C1  UNL     1      24.131  -1.449  55.624  1.00  0.00     0.050 C 
HETATM    2  C2  UNL     1      23.812  -0.619  54.393  1.00  0.00    -0.035 C 
HETATM    3  C3  UNL     1      24.962  -0.021  54.063  1.00  0.00     0.037 C 
HETATM    4  C4  UNL     1      26.194  -0.229  54.843  1.00  0.00     0.225 C 
HETATM    5  O1  UNL     1      27.286  -0.535  54.058  1.00  0.00    -0.384 OA
HETATM    6  C5  UNL     1      27.064  -0.887  52.770  1.00  0.00     0.187 C 
HETATM    7  C6  UNL     1      26.262   0.188  52.016  1.00  0.00     0.149 C 
HETATM    8  N1  UNL     1      25.633   0.917  53.135  1.00  0.00    -0.378 N 
HETATM    9  C7  UNL     1      25.772   2.433  53.140  1.00  0.00     0.142 C 
HETATM   10  C8  UNL     1      25.281   2.860  51.683  1.00  0.00     0.144 C 
HETATM   11  N2  UNL     1      24.131   2.006  51.648  1.00  0.00    -0.341 N 
HETATM   12  C9  UNL     1      23.026   1.196  51.576  1.00  0.00     0.320 C 
HETATM   13  O2  UNL     1      22.729   1.233  50.443  1.00  0.00    -0.247 OA
HETATM   14  N3  UNL     1      22.269   0.413  52.415  1.00  0.00    -0.309 N 
HETATM   15  C10 UNL     1      21.481  -0.400  53.220  1.00  0.00     0.037 C 
HETATM   16  C21 UNL     1      22.418  -0.802  54.102  1.00  0.00     0.038 C 
HETATM   17  H14 UNL     1      24.111   1.895  52.654  1.00  0.00     0.164 HD
HETATM   18  H15 UNL     1      22.492   1.004  53.231  1.00  0.00     0.170 HD
ENDROOT
BRANCH  15  19
HETATM   19  C11 UNL     1      20.116  -0.545  52.968  1.00  0.00     0.040 C 
HETATM   20  C12 UNL     1      19.138   0.160  52.457  1.00  0.00    -0.007 A 
HETATM   21  C13 UNL     1      19.350   1.521  51.946  1.00  0.00     0.191 A 
HETATM   22  C15 UNL     1      17.790  -0.465  52.404  1.00  0.00     0.066 A 
HETATM   23  N4  UNL     1      18.167   2.155  51.418  1.00  0.00    -0.278 NA
HETATM   24  C14 UNL     1      17.062   1.556  51.410  1.00  0.00     0.227 A 
HETATM   25  N5  UNL     1      16.835   0.257  51.891  1.00  0.00    -0.242 NA
BRANCH  22  26
HETATM   26  C16 UNL     1      17.585  -1.793  52.903  1.00  0.00     0.032 C 
HETATM   27  C17 UNL     1      17.546  -2.801  53.737  1.00  0.00     0.002 C 
BRANCH  27  28
HETATM   28  C18 UNL     1      17.144  -4.191  53.523  1.00  0.00    -0.003 C 
HETATM   29  C19 UNL     1      16.038  -4.790  53.291  1.00  0.00    -0.016 C 
BRANCH  29  30
HETATM   30  C20 UNL     1      14.689  -4.212  53.153  1.00  0.00     0.112 C 
HETATM   31 BR1  UNL     1      14.506  -3.518  51.344  1.00  0.00    -0.092 Br
ENDBRANCH  29  30
ENDBRANCH  27  28
ENDBRANCH  22  26
ENDBRANCH  15  19
TORSDOF 4
ENDMDL
MODEL 6
REMARK VINA RESULT:      -8.5      2.848      7.443
REMARK  4 active torsions:
REMARK  status: ('A' for Active; 'I' for Inactive)
REMARK    1  A    between atoms: C10_15  and  C11_16 
REMARK    2  A    between atoms: C15_22  and  C16_23 
REMARK    3  A    between atoms: C17_24  and  C18_25 
REMARK    4  A    between atoms: C19_26  and  C20_27 
ROOT
HETATM    1  C1  UNL     1      22.713   0.097  52.930  1.00  0.00     0.050 C 
HETATM    2  C2  UNL     1      23.864   0.923  52.382  1.00  0.00    -0.035 C 
HETATM    3  C3  UNL     1      24.932   0.560  53.101  1.00  0.00     0.037 C 
HETATM    4  C4  UNL     1      24.838  -0.447  54.172  1.00  0.00     0.225 C 
HETATM    5  O1  UNL     1      25.812  -1.420  54.086  1.00  0.00    -0.384 OA
HETATM    6  C5  UNL     1      26.517  -1.513  52.935  1.00  0.00     0.187 C 
HETATM    7  C6  UNL     1      27.189  -0.179  52.568  1.00  0.00     0.149 C 
HETATM    8  N1  UNL     1      26.375   0.777  53.345  1.00  0.00    -0.378 N 
HETATM    9  C7  UNL     1      27.124   1.774  54.219  1.00  0.00     0.142 C 
HETATM   10  C8  UNL     1      28.180   2.430  53.219  1.00  0.00     0.144 C 
HETATM   11  N2  UNL     1      27.272   2.610  52.125  1.00  0.00    -0.341 N 
HETATM   12  C9  UNL     1      26.432   2.792  51.055  1.00  0.00     0.320 C 
HETATM   13  O2  UNL     1      27.160   3.030  50.170  1.00  0.00    -0.247 OA
HETATM   14  N3  UNL     1      25.085   2.747  50.787  1.00  0.00    -0.309 N 
HETATM   15  C10 UNL     1      23.735   2.701  50.464  1.00  0.00     0.037 C 
HETATM   16  C21 UNL     1      23.335   1.758  51.341  1.00  0.00     0.038 C 
HETATM   17  H14 UNL     1      26.454   2.539  52.718  1.00  0.00     0.164 HD
HETATM   18  H15 UNL     1      24.844   3.014  51.755  1.00  0.00     0.170 HD
ENDROOT
BRANCH  15  19
HETATM   19  C11 UNL     1      23.207   3.544  49.484  1.00  0.00     0.040 C 
HETATM   20  C12 UNL     1      22.188   3.567  48.663  1.00  0.00    -0.007 A 
HETATM   21  C13 UNL     1      21.204   2.477  48.620  1.00  0.00     0.191 A 
HETATM   22  C15 UNL     1      22.049   4.746  47.768  1.00  0.00     0.066 A 
HETATM   23  N4  UNL     1      20.145   2.662  47.658  1.00  0.00    -0.278 NA
HETATM   24  C14 UNL     1      20.100   3.690  46.936  1.00  0.00     0.227 A 
HETATM   25  N5  UNL     1      21.026   4.745  46.961  1.00  0.00    -0.242 NA
BRANCH  22  26
HETATM   26  C16 UNL     1      23.010   5.809  47.811  1.00  0.00     0.032 C 
HETATM   27  C17 UNL     1      23.564   6.954  48.119  1.00  0.00     0.002 C 
BRANCH  27  28
HETATM   28  C18 UNL     1      24.850   7.522  47.717  1.00  0.00    -0.003 C 
HETATM   29  C19 UNL     1      26.077   7.233  47.936  1.00  0.00    -0.016 C 
BRANCH  29  30
HETATM   30  C20 UNL     1      26.634   6.129  48.740  1.00  0.00     0.112 C 
HETATM   31 BR1  UNL     1      28.500   5.893  48.239  1.00  0.00    -0.092 Br
ENDBRANCH  29  30
ENDBRANCH  27  28
ENDBRANCH  22  26
ENDBRANCH  15  19
TORSDOF 4
ENDMDL
MODEL 7
REMARK VINA RESULT:      -8.4      4.902      6.642
REMARK  4 active torsions:
REMARK  status: ('A' for Active; 'I' for Inactive)
REMARK    1  A    between atoms: C10_15  and  C11_16 
REMARK    2  A    between atoms: C15_22  and  C16_23 
REMARK    3  A    between atoms: C17_24  and  C18_25 
REMARK    4  A    between atoms: C19_26  and  C20_27 
ROOT
HETATM    1  C1  UNL     1      30.886   4.877  47.458  1.00  0.00     0.050 C 
HETATM    2  C2  UNL     1      29.818   5.842  47.942  1.00  0.00    -0.035 C 
HETATM    3  C3  UNL     1      30.335   7.062  47.756  1.00  0.00     0.037 C 
HETATM    4  C4  UNL     1      31.682   7.254  47.191  1.00  0.00     0.225 C 
HETATM    5  O1  UNL     1      31.712   8.177  46.167  1.00  0.00    -0.384 OA
HETATM    6  C5  UNL     1      30.534   8.560  45.622  1.00  0.00     0.187 C 
HETATM    7  C6  UNL     1      29.566   9.108  46.685  1.00  0.00     0.149 C 
HETATM    8  N1  UNL     1      30.127   8.518  47.917  1.00  0.00    -0.378 N 
HETATM    9  C7  UNL     1      30.379   9.463  49.084  1.00  0.00     0.142 C 
HETATM   10  C8  UNL     1      28.986  10.220  49.261  1.00  0.00     0.144 C 
HETATM   11  N2  UNL     1      28.157   9.059  49.133  1.00  0.00    -0.341 N 
HETATM   12  C9  UNL     1      27.331   7.970  49.009  1.00  0.00     0.320 C 
HETATM   13  O2  UNL     1      26.270   8.443  48.863  1.00  0.00    -0.247 OA
HETATM   14  N3  UNL     1      27.434   6.599  48.992  1.00  0.00    -0.309 N 
HETATM   15  C10 UNL     1      27.488   5.212  48.956  1.00  0.00     0.037 C 
HETATM   16  C21 UNL     1      28.712   5.058  48.410  1.00  0.00     0.038 C 
HETATM   17  H14 UNL     1      28.916   8.423  49.342  1.00  0.00     0.164 HD
HETATM   18  H15 UNL     1      28.271   6.616  49.595  1.00  0.00     0.170 HD
ENDROOT
BRANCH  15  19
HETATM   19  C11 UNL     1      26.433   4.444  49.453  1.00  0.00     0.040 C 
HETATM   20  C12 UNL     1      25.125   4.441  49.411  1.00  0.00    -0.007 A 
HETATM   21  C13 UNL     1      24.372   5.464  48.672  1.00  0.00     0.191 A 
HETATM   22  C15 UNL     1      24.413   3.357  50.137  1.00  0.00     0.066 A 
HETATM   23  N4  UNL     1      22.938   5.312  48.729  1.00  0.00    -0.278 NA
HETATM   24  C14 UNL     1      22.414   4.365  49.368  1.00  0.00     0.227 A 
HETATM   25  N5  UNL     1      23.112   3.376  50.079  1.00  0.00    -0.242 NA
BRANCH  22  26
HETATM   26  C16 UNL     1      25.149   2.359  50.858  1.00  0.00     0.032 C 
HETATM   27  C17 UNL     1      25.953   1.822  51.739  1.00  0.00     0.002 C 
BRANCH  27  28
HETATM   28  C18 UNL     1      26.328   0.424  51.950  1.00  0.00    -0.003 C 
HETATM   29  C19 UNL     1      27.244  -0.180  52.608  1.00  0.00    -0.016 C 
BRANCH  29  30
HETATM   30  C20 UNL     1      28.312   0.399  53.442  1.00  0.00     0.112 C 
HETATM   31 BR1  UNL     1      29.734  -0.919  53.612  1.00  0.00    -0.092 Br
ENDBRANCH  29  30
ENDBRANCH  27  28
ENDBRANCH  22  26
ENDBRANCH  15  19
TORSDOF 4
ENDMDL
MODEL 8
REMARK VINA RESULT:      -8.1      2.795      4.534
REMARK  4 active torsions:
REMARK  status: ('A' for Active; 'I' for Inactive)
REMARK    1  A    between atoms: C10_15  and  C11_16 
REMARK    2  A    between atoms: C15_22  and  C16_23 
REMARK    3  A    between atoms: C17_24  and  C18_25 
REMARK    4  A    between atoms: C19_26  and  C20_27 
ROOT
HETATM    1  C1  UNL     1      24.154   6.384  51.558  1.00  0.00     0.050 C 
HETATM    2  C2  UNL     1      23.450   5.066  51.287  1.00  0.00    -0.035 C 
HETATM    3  C3  UNL     1      22.418   5.374  50.493  1.00  0.00     0.037 C 
HETATM    4  C4  UNL     1      22.158   6.760  50.066  1.00  0.00     0.225 C 
HETATM    5  O1  UNL     1      21.946   6.876  48.708  1.00  0.00    -0.384 OA
HETATM    6  C5  UNL     1      22.277   5.825  47.921  1.00  0.00     0.187 C 
HETATM    7  C6  UNL     1      21.574   4.532  48.371  1.00  0.00     0.149 C 
HETATM    8  N1  UNL     1      21.233   4.862  49.770  1.00  0.00    -0.378 N 
HETATM    9  C7  UNL     1      19.794   4.626  50.206  1.00  0.00     0.142 C 
HETATM   10  C8  UNL     1      19.512   3.117  49.771  1.00  0.00     0.144 C 
HETATM   11  N2  UNL     1      20.755   2.581  50.243  1.00  0.00    -0.341 N 
HETATM   12  C9  UNL     1      21.936   2.035  50.677  1.00  0.00     0.320 C 
HETATM   13  O2  UNL     1      21.952   0.976  50.177  1.00  0.00    -0.247 OA
HETATM   14  N3  UNL     1      23.009   2.395  51.458  1.00  0.00    -0.309 N 
HETATM   15  C10 UNL     1      24.120   2.716  52.227  1.00  0.00     0.037 C 
HETATM   16  C21 UNL     1      24.162   4.044  52.000  1.00  0.00     0.038 C 
HETATM   17  H14 UNL     1      20.926   3.368  50.856  1.00  0.00     0.164 HD
HETATM   18  H15 UNL     1      22.430   3.032  52.028  1.00  0.00     0.170 HD
ENDROOT
BRANCH  15  19
HETATM   19  C11 UNL     1      24.788   1.733  52.959  1.00  0.00     0.040 C 
HETATM   20  C12 UNL     1      26.021   1.362  53.196  1.00  0.00    -0.007 A 
HETATM   21  C13 UNL     1      27.168   2.068  52.608  1.00  0.00     0.191 A 
HETATM   22  C15 UNL     1      26.231   0.194  54.091  1.00  0.00     0.066 A 
HETATM   23  N4  UNL     1      28.455   1.529  52.972  1.00  0.00    -0.278 NA
HETATM   24  C14 UNL     1      28.547   0.535  53.736  1.00  0.00     0.227 A 
HETATM   25  N5  UNL     1      27.468  -0.154  54.311  1.00  0.00    -0.242 NA
BRANCH  22  26
HETATM   26  C16 UNL     1      25.112  -0.494  54.664  1.00  0.00     0.032 C 
HETATM   27  C17 UNL     1      24.391  -1.167  55.524  1.00  0.00     0.002 C 
BRANCH  27  28
HETATM   28  C18 UNL     1      23.012  -1.645  55.435  1.00  0.00    -0.003 C 
HETATM   29  C19 UNL     1      21.955  -1.258  54.827  1.00  0.00    -0.016 C 
BRANCH  29  30
HETATM   30  C20 UNL     1      21.778  -0.094  53.939  1.00  0.00     0.112 C 
HETATM   31 BR1  UNL     1      19.983  -0.167  53.190  1.00  0.00    -0.092 Br
ENDBRANCH  29  30
ENDBRANCH  27  28
ENDBRANCH  22  26
ENDBRANCH  15  19
TORSDOF 4
ENDMDL
MODEL 9
REMARK VINA RESULT:      -8.0      2.090      3.203
REMARK  4 active torsions:
REMARK  status: ('A' for Active; 'I' for Inactive)
REMARK    1  A    between atoms: C10_15  and  C11_16 
REMARK    2  A    between atoms: C15_22  and  C16_23 
REMARK    3  A    between atoms: C17_24  and  C18_25 
REMARK    4  A    between atoms: C19_26  and  C20_27 
ROOT
HETATM    1  C1  UNL     1      22.556   6.176  51.155  1.00  0.00     0.050 C 
HETATM    2  C2  UNL     1      22.173   4.893  50.438  1.00  0.00    -0.035 C 
HETATM    3  C3  UNL     1      21.549   5.286  49.322  1.00  0.00     0.037 C 
HETATM    4  C4  UNL     1      21.352   6.712  49.007  1.00  0.00     0.225 C 
HETATM    5  O1  UNL     1      21.724   7.037  47.719  1.00  0.00    -0.384 OA
HETATM    6  C5  UNL     1      22.464   6.140  47.026  1.00  0.00     0.187 C 
HETATM    7  C6  UNL     1      21.774   4.766  46.955  1.00  0.00     0.149 C 
HETATM    8  N1  UNL     1      20.842   4.853  48.096  1.00  0.00    -0.378 N 
HETATM    9  C7  UNL     1      19.386   4.495  47.830  1.00  0.00     0.142 C 
HETATM   10  C8  UNL     1      19.474   3.067  47.125  1.00  0.00     0.144 C 
HETATM   11  N2  UNL     1      20.447   2.509  48.016  1.00  0.00    -0.341 N 
HETATM   12  C9  UNL     1      21.383   1.945  48.845  1.00  0.00     0.320 C 
HETATM   13  O2  UNL     1      21.719   0.982  48.269  1.00  0.00    -0.247 OA
HETATM   14  N3  UNL     1      21.981   2.215  50.053  1.00  0.00    -0.309 N 
HETATM   15  C10 UNL     1      22.622   2.449  51.263  1.00  0.00     0.037 C 
HETATM   16  C21 UNL     1      22.619   3.798  51.251  1.00  0.00     0.038 C 
HETATM   17  H14 UNL     1      20.261   3.193  48.739  1.00  0.00     0.164 HD
HETATM   18  H15 UNL     1      21.153   2.729  50.392  1.00  0.00     0.170 HD
ENDROOT
BRANCH  15  19
HETATM   19  C11 UNL     1      23.016   1.387  52.079  1.00  0.00     0.040 C 
HETATM   20  C12 UNL     1      22.467   0.548  52.921  1.00  0.00    -0.007 A 
HETATM   21  C13 UNL     1      21.029   0.580  53.219  1.00  0.00     0.191 A 
HETATM   22  C15 UNL     1      23.351  -0.455  53.571  1.00  0.00     0.066 A 
HETATM   23  N4  UNL     1      20.590  -0.414  54.168  1.00  0.00    -0.278 NA
HETATM   24  C14 UNL     1      21.404  -1.227  54.674  1.00  0.00     0.227 A 
HETATM   25  N5  UNL     1      22.780  -1.279  54.404  1.00  0.00    -0.242 NA
BRANCH  22  26
HETATM   26  C16 UNL     1      24.754  -0.485  53.280  1.00  0.00     0.032 C 
HETATM   27  C17 UNL     1      25.913  -0.923  52.857  1.00  0.00     0.002 C 
BRANCH  27  28
HETATM   28  C18 UNL     1      27.230  -0.286  52.879  1.00  0.00    -0.003 C 
HETATM   29  C19 UNL     1      27.655   0.920  52.868  1.00  0.00    -0.016 C 
BRANCH  29  30
HETATM   30  C20 UNL     1      26.874   2.170  52.825  1.00  0.00     0.112 C 
HETATM   31 BR1  UNL     1      26.485   2.581  50.962  1.00  0.00    -0.092 Br
ENDBRANCH  29  30
ENDBRANCH  27  28
ENDBRANCH  22  26
ENDBRANCH  15  19
TORSDOF 4
ENDMDL
