MODEL 1
REMARK VINA RESULT:      -8.3      0.000      0.000
REMARK  2 active torsions:
REMARK  status: ('A' for Active; 'I' for Inactive)
REMARK    1  A    between atoms: N2_18  and  C17_19 
REMARK    2  A    between atoms: C21_25  and  C22_26 
ROOT
HETATM    1  C1  UNL     1      25.837   0.821  53.562  1.00  0.00     0.037 C 
HETATM    2  C2  UNL     1      24.858  -0.028  53.139  1.00  0.00    -0.005 C 
HETATM    3  C3  UNL     1      24.541  -0.905  54.278  1.00  0.00     0.056 C 
HETATM    4  C4  UNL     1      23.075  -0.846  54.698  1.00  0.00     0.006 C 
HETATM    5  C5  UNL     1      22.137  -1.534  53.772  1.00  0.00     0.001 C 
HETATM    6  C6  UNL     1      20.687  -1.459  54.066  1.00  0.00     0.012 C 
HETATM    7  C7  UNL     1      19.935  -0.213  53.902  1.00  0.00     0.034 C 
HETATM    8  C8  UNL     1      20.607   1.037  54.253  1.00  0.00    -0.001 C 
HETATM    9  C9  UNL     1      20.870   1.723  53.164  1.00  0.00     0.087 C 
HETATM   10  N1  UNL     1      20.564   1.767  51.749  1.00  0.00    -0.360 N 
HETATM   11  C10 UNL     1      21.112   2.772  50.953  1.00  0.00     0.145 C 
HETATM   12  C11 UNL     1      22.370   2.676  50.190  1.00  0.00     0.029 A 
HETATM   13  C12 UNL     1      22.208   1.838  48.958  1.00  0.00     0.045 A 
HETATM   14  C13 UNL     1      22.210   2.598  47.683  1.00  0.00    -0.025 A 
HETATM   15  C14 UNL     1      22.370   3.857  47.312  1.00  0.00    -0.002 A 
HETATM   16  C15 UNL     1      22.600   4.741  48.475  1.00  0.00     0.026 A 
HETATM   17  C16 UNL     1      22.578   4.093  49.627  1.00  0.00     0.025 A 
HETATM   18  N2  UNL     1      22.954   4.754  50.861  1.00  0.00    -0.328 N 
HETATM   19  C18 UNL     1      23.857   3.882  51.645  1.00  0.00     0.138 C 
HETATM   20  C19 UNL     1      23.652   2.539  50.910  1.00  0.00     0.038 C 
HETATM   21  C20 UNL     1      23.745   1.517  51.982  1.00  0.00     0.127 C 
HETATM   22  N3  UNL     1      24.950   0.683  51.871  1.00  0.00    -0.393 N 
HETATM   23  C21 UNL     1      19.654   0.669  51.483  1.00  0.00     0.007 C 
HETATM   24  C24 UNL     1      19.306  -0.108  52.532  1.00  0.00     0.007 C 
HETATM   25  H27 UNL     1      25.706   0.534  51.159  1.00  0.00     0.159 HD
ENDROOT
BRANCH  18  26
HETATM   26  C17 UNL     1      22.587   6.069  51.336  1.00  0.00     0.355 C 
HETATM   27  O1  UNL     1      21.458   6.579  51.148  1.00  0.00    -0.283 OA
ENDBRANCH  18  26
BRANCH  23  28
HETATM   28  C22 UNL     1      18.967   0.214  50.236  1.00  0.00     0.052 C 
HETATM   29  C23 UNL     1      17.488  -0.032  50.442  1.00  0.00     0.011 C 
ENDBRANCH  23  28
TORSDOF 2
ENDMDL
MODEL 2
REMARK VINA RESULT:      -8.0      2.151      5.863
REMARK  2 active torsions:
REMARK  status: ('A' for Active; 'I' for Inactive)
REMARK    1  A    between atoms: N2_18  and  C17_19 
REMARK    2  A    between atoms: C21_25  and  C22_26 
ROOT
HETATM    1  C1  UNL     1      24.168   6.210  51.952  1.00  0.00     0.037 C 
HETATM    2  C2  UNL     1      22.902   5.919  51.538  1.00  0.00    -0.005 C 
HETATM    3  C3  UNL     1      22.649   6.745  50.346  1.00  0.00     0.056 C 
HETATM    4  C4  UNL     1      22.287   5.929  49.110  1.00  0.00     0.006 C 
HETATM    5  C5  UNL     1      20.918   5.350  49.127  1.00  0.00     0.001 C 
HETATM    6  C6  UNL     1      20.513   4.480  47.999  1.00  0.00     0.012 C 
HETATM    7  C7  UNL     1      21.077   3.140  47.824  1.00  0.00     0.034 C 
HETATM    8  C8  UNL     1      22.488   2.949  48.154  1.00  0.00    -0.001 C 
HETATM    9  C9  UNL     1      22.597   2.227  49.247  1.00  0.00     0.087 C 
HETATM   10  N1  UNL     1      21.816   1.396  50.140  1.00  0.00    -0.360 N 
HETATM   11  C10 UNL     1      22.431   0.788  51.234  1.00  0.00     0.145 C 
HETATM   12  C11 UNL     1      22.511   1.345  52.596  1.00  0.00     0.029 A 
HETATM   13  C12 UNL     1      21.202   1.236  53.317  1.00  0.00     0.045 A 
HETATM   14  C13 UNL     1      21.167   0.220  54.398  1.00  0.00    -0.025 A 
HETATM   15  C14 UNL     1      22.021  -0.621  54.957  1.00  0.00    -0.002 A 
HETATM   16  C15 UNL     1      23.361  -0.526  54.339  1.00  0.00     0.026 A 
HETATM   17  C16 UNL     1      23.413   0.356  53.355  1.00  0.00     0.025 A 
HETATM   18  N2  UNL     1      24.677   0.716  52.743  1.00  0.00    -0.328 N 
HETATM   19  C18 UNL     1      24.764   2.185  52.592  1.00  0.00     0.138 C 
HETATM   20  C19 UNL     1      23.290   2.576  52.836  1.00  0.00     0.038 C 
HETATM   21  C20 UNL     1      23.063   3.733  51.934  1.00  0.00     0.127 C 
HETATM   22  N3  UNL     1      22.871   4.995  52.663  1.00  0.00    -0.393 N 
HETATM   23  C21 UNL     1      20.464   1.373  49.616  1.00  0.00     0.007 C 
HETATM   24  C24 UNL     1      20.230   2.078  48.486  1.00  0.00     0.007 C 
HETATM   25  H27 UNL     1      22.726   5.278  53.662  1.00  0.00     0.159 HD
ENDROOT
BRANCH  18  26
HETATM   26  C17 UNL     1      25.765  -0.143  52.332  1.00  0.00     0.355 C 
HETATM   27  O1  UNL     1      26.943  -0.005  52.738  1.00  0.00    -0.283 OA
ENDBRANCH  18  26
BRANCH  23  28
HETATM   28  C22 UNL     1      19.222   0.676  50.070  1.00  0.00     0.052 C 
HETATM   29  C23 UNL     1      18.348   1.551  50.943  1.00  0.00     0.011 C 
ENDBRANCH  23  28
TORSDOF 2
ENDMDL
MODEL 3
REMARK VINA RESULT:      -7.8      2.490      6.211
REMARK  2 active torsions:
REMARK  status: ('A' for Active; 'I' for Inactive)
REMARK    1  A    between atoms: N2_18  and  C17_19 
REMARK    2  A    between atoms: C21_25  and  C22_26 
ROOT
HETATM    1  C1  UNL     1      19.914   4.132  46.600  1.00  0.00     0.037 C 
HETATM    2  C2  UNL     1      20.786   3.292  47.226  1.00  0.00    -0.005 C 
HETATM    3  C3  UNL     1      22.128   3.870  47.046  1.00  0.00     0.056 C 
HETATM    4  C4  UNL     1      22.844   4.156  48.362  1.00  0.00     0.006 C 
HETATM    5  C5  UNL     1      23.345   2.949  49.071  1.00  0.00     0.001 C 
HETATM    6  C6  UNL     1      23.986   3.133  50.394  1.00  0.00     0.012 C 
HETATM    7  C7  UNL     1      23.208   3.506  51.577  1.00  0.00     0.034 C 
HETATM    8  C8  UNL     1      22.102   4.444  51.395  1.00  0.00    -0.001 C 
HETATM    9  C9  UNL     1      20.956   3.818  51.546  1.00  0.00     0.087 C 
HETATM   10  N1  UNL     1      20.401   2.565  52.012  1.00  0.00    -0.360 N 
HETATM   11  C10 UNL     1      19.021   2.367  51.987  1.00  0.00     0.145 C 
HETATM   12  C11 UNL     1      18.261   1.744  50.889  1.00  0.00     0.029 A 
HETATM   13  C12 UNL     1      18.438   0.256  50.866  1.00  0.00     0.045 A 
HETATM   14  C13 UNL     1      17.252  -0.520  51.305  1.00  0.00    -0.025 A 
HETATM   15  C14 UNL     1      16.013  -0.255  51.683  1.00  0.00    -0.002 A 
HETATM   16  C15 UNL     1      15.740   1.198  51.669  1.00  0.00     0.026 A 
HETATM   17  C16 UNL     1      16.789   1.916  51.305  1.00  0.00     0.025 A 
HETATM   18  N2  UNL     1      16.670   3.340  51.064  1.00  0.00    -0.328 N 
HETATM   19  C18 UNL     1      17.370   3.700  49.810  1.00  0.00     0.138 C 
HETATM   20  C19 UNL     1      18.194   2.415  49.575  1.00  0.00     0.038 C 
HETATM   21  C20 UNL     1      19.461   2.897  48.972  1.00  0.00     0.127 C 
HETATM   22  N3  UNL     1      19.607   2.506  47.563  1.00  0.00    -0.393 N 
HETATM   23  C21 UNL     1      21.517   1.753  52.460  1.00  0.00     0.007 C 
HETATM   24  C24 UNL     1      22.751   2.295  52.358  1.00  0.00     0.007 C 
HETATM   25  H27 UNL     1      19.108   1.866  46.899  1.00  0.00     0.159 HD
ENDROOT
BRANCH  18  26
HETATM   26  C17 UNL     1      15.974   4.339  51.844  1.00  0.00     0.355 C 
HETATM   27  O1  UNL     1      15.976   4.358  53.097  1.00  0.00    -0.283 OA
ENDBRANCH  18  26
BRANCH  23  28
HETATM   28  C22 UNL     1      21.587   0.389  53.066  1.00  0.00     0.052 C 
HETATM   29  C23 UNL     1      20.846   0.295  54.383  1.00  0.00     0.011 C 
ENDBRANCH  23  28
TORSDOF 2
ENDMDL
MODEL 4
REMARK VINA RESULT:      -7.6      2.627      5.926
REMARK  2 active torsions:
REMARK  status: ('A' for Active; 'I' for Inactive)
REMARK    1  A    between atoms: N2_18  and  C17_19 
REMARK    2  A    between atoms: C21_25  and  C22_26 
ROOT
HETATM    1  C1  UNL     1      22.445   8.105  50.450  1.00  0.00     0.037 C 
HETATM    2  C2  UNL     1      21.535   7.118  50.686  1.00  0.00    -0.005 C 
HETATM    3  C3  UNL     1      20.330   7.464  49.916  1.00  0.00     0.056 C 
HETATM    4  C4  UNL     1      19.916   6.385  48.920  1.00  0.00     0.006 C 
HETATM    5  C5  UNL     1      19.304   5.177  49.533  1.00  0.00     0.001 C 
HETATM    6  C6  UNL     1      18.944   4.049  48.643  1.00  0.00     0.012 C 
HETATM    7  C7  UNL     1      19.967   3.212  48.015  1.00  0.00     0.034 C 
HETATM    8  C8  UNL     1      21.196   3.863  47.565  1.00  0.00    -0.001 C 
HETATM    9  C9  UNL     1      22.198   3.509  48.339  1.00  0.00     0.087 C 
HETATM   10  N1  UNL     1      22.554   2.556  49.368  1.00  0.00    -0.360 N 
HETATM   11  C10 UNL     1      23.841   2.565  49.906  1.00  0.00     0.145 C 
HETATM   12  C11 UNL     1      24.263   3.300  51.112  1.00  0.00     0.029 A 
HETATM   13  C12 UNL     1      23.784   2.633  52.364  1.00  0.00     0.045 A 
HETATM   14  C13 UNL     1      24.842   1.956  53.155  1.00  0.00    -0.025 A 
HETATM   15  C14 UNL     1      26.154   1.811  53.083  1.00  0.00    -0.002 A 
HETATM   16  C15 UNL     1      26.712   2.501  51.901  1.00  0.00     0.026 A 
HETATM   17  C16 UNL     1      25.787   3.092  51.164  1.00  0.00     0.025 A 
HETATM   18  N2  UNL     1      26.154   3.962  50.064  1.00  0.00    -0.328 N 
HETATM   19  C18 UNL     1      25.344   5.200  50.108  1.00  0.00     0.138 C 
HETATM   20  C19 UNL     1      24.247   4.777  51.109  1.00  0.00     0.038 C 
HETATM   21  C20 UNL     1      23.023   5.461  50.622  1.00  0.00     0.127 C 
HETATM   22  N3  UNL     1      22.567   6.527  51.527  1.00  0.00    -0.393 N 
HETATM   23  C21 UNL     1      21.386   1.725  49.592  1.00  0.00     0.007 C 
HETATM   24  C24 UNL     1      20.290   1.992  48.847  1.00  0.00     0.007 C 
HETATM   25  H27 UNL     1      22.807   6.853  52.494  1.00  0.00     0.159 HD
ENDROOT
BRANCH  18  26
HETATM   26  C17 UNL     1      27.159   3.763  49.044  1.00  0.00     0.355 C 
HETATM   27  O1  UNL     1      27.972   4.650  48.695  1.00  0.00    -0.283 OA
ENDBRANCH  18  26
BRANCH  23  28
HETATM   28  C22 UNL     1      21.139   0.561  50.497  1.00  0.00     0.052 C 
HETATM   29  C23 UNL     1      19.750   0.573  51.097  1.00  0.00     0.011 C 
ENDBRANCH  23  28
TORSDOF 2
ENDMDL
MODEL 5
REMARK VINA RESULT:      -7.6      7.324     11.729
REMARK  2 active torsions:
REMARK  status: ('A' for Active; 'I' for Inactive)
REMARK    1  A    between atoms: N2_18  and  C17_19 
REMARK    2  A    between atoms: C21_25  and  C22_26 
ROOT
HETATM    1  C1  UNL     1      25.575  10.558  44.616  1.00  0.00     0.037 C 
HETATM    2  C2  UNL     1      26.919  10.447  44.813  1.00  0.00    -0.005 C 
HETATM    3  C3  UNL     1      27.500  11.762  44.499  1.00  0.00     0.056 C 
HETATM    4  C4  UNL     1      28.279  12.371  45.661  1.00  0.00     0.006 C 
HETATM    5  C5  UNL     1      29.597  11.736  45.925  1.00  0.00     0.001 C 
HETATM    6  C6  UNL     1      30.385  12.218  47.084  1.00  0.00     0.012 C 
HETATM    7  C7  UNL     1      29.972  11.936  48.460  1.00  0.00     0.034 C 
HETATM    8  C8  UNL     1      28.542  11.948  48.757  1.00  0.00    -0.001 C 
HETATM    9  C9  UNL     1      28.123  10.724  48.989  1.00  0.00     0.087 C 
HETATM   10  N1  UNL     1      28.615   9.385  49.238  1.00  0.00    -0.360 N 
HETATM   11  C10 UNL     1      27.713   8.346  49.460  1.00  0.00     0.145 C 
HETATM   12  C11 UNL     1      27.173   7.440  48.431  1.00  0.00     0.029 A 
HETATM   13  C12 UNL     1      28.185   6.421  48.003  1.00  0.00     0.045 A 
HETATM   14  C13 UNL     1      27.921   5.041  48.479  1.00  0.00    -0.025 A 
HETATM   15  C14 UNL     1      26.975   4.423  49.166  1.00  0.00    -0.002 A 
HETATM   16  C15 UNL     1      25.902   5.357  49.571  1.00  0.00     0.026 A 
HETATM   17  C16 UNL     1      26.124   6.600  49.181  1.00  0.00     0.025 A 
HETATM   18  N2  UNL     1      25.108   7.622  49.331  1.00  0.00    -0.328 N 
HETATM   19  C18 UNL     1      25.002   8.415  48.086  1.00  0.00     0.138 C 
HETATM   20  C19 UNL     1      26.299   7.979  47.370  1.00  0.00     0.038 C 
HETATM   21  C20 UNL     1      26.746   9.197  46.649  1.00  0.00     0.127 C 
HETATM   22  N3  UNL     1      26.632   9.069  45.188  1.00  0.00    -0.393 N 
HETATM   23  C21 UNL     1      30.064   9.462  49.222  1.00  0.00     0.007 C 
HETATM   24  C24 UNL     1      30.613  10.677  48.996  1.00  0.00     0.007 C 
HETATM   25  H27 UNL     1      26.435   8.295  44.509  1.00  0.00     0.159 HD
ENDROOT
BRANCH  18  26
HETATM   26  C17 UNL     1      24.252   7.893  50.465  1.00  0.00     0.355 C 
HETATM   27  O1  UNL     1      23.147   7.330  50.644  1.00  0.00    -0.283 OA
ENDBRANCH  18  26
BRANCH  23  28
HETATM   28  C22 UNL     1      31.127   8.434  49.441  1.00  0.00     0.052 C 
HETATM   29  C23 UNL     1      32.046   8.281  48.248  1.00  0.00     0.011 C 
ENDBRANCH  23  28
TORSDOF 2
ENDMDL
MODEL 6
REMARK VINA RESULT:      -7.3      2.712      7.241
REMARK  2 active torsions:
REMARK  status: ('A' for Active; 'I' for Inactive)
REMARK    1  A    between atoms: N2_18  and  C17_19 
REMARK    2  A    between atoms: C21_25  and  C22_26 
ROOT
HETATM    1  C1  UNL     1      20.228   3.125  47.031  1.00  0.00     0.037 C 
HETATM    2  C2  UNL     1      21.061   4.200  46.926  1.00  0.00    -0.005 C 
HETATM    3  C3  UNL     1      20.230   5.334  46.490  1.00  0.00     0.056 C 
HETATM    4  C4  UNL     1      20.273   6.519  47.450  1.00  0.00     0.006 C 
HETATM    5  C5  UNL     1      21.539   7.298  47.417  1.00  0.00     0.001 C 
HETATM    6  C6  UNL     1      21.692   8.420  48.373  1.00  0.00     0.012 C 
HETATM    7  C7  UNL     1      21.874   8.185  49.806  1.00  0.00     0.034 C 
HETATM    8  C8  UNL     1      21.137   7.078  50.412  1.00  0.00    -0.001 C 
HETATM    9  C9  UNL     1      21.969   6.111  50.732  1.00  0.00     0.087 C 
HETATM   10  N1  UNL     1      23.382   5.830  50.868  1.00  0.00    -0.360 N 
HETATM   11  C10 UNL     1      23.800   4.567  51.285  1.00  0.00     0.145 C 
HETATM   12  C11 UNL     1      24.149   3.440  50.402  1.00  0.00     0.029 A 
HETATM   13  C12 UNL     1      25.490   3.632  49.762  1.00  0.00     0.045 A 
HETATM   14  C13 UNL     1      26.563   2.751  50.286  1.00  0.00    -0.025 A 
HETATM   15  C14 UNL     1      26.659   1.769  51.167  1.00  0.00    -0.002 A 
HETATM   16  C15 UNL     1      25.355   1.476  51.798  1.00  0.00     0.026 A 
HETATM   17  C16 UNL     1      24.384   2.264  51.367  1.00  0.00     0.025 A 
HETATM   18  N2  UNL     1      23.005   2.019  51.736  1.00  0.00    -0.328 N 
HETATM   19  C18 UNL     1      22.135   2.133  50.545  1.00  0.00     0.138 C 
HETATM   20  C19 UNL     1      23.105   2.822  49.560  1.00  0.00     0.038 C 
HETATM   21  C20 UNL     1      22.236   3.718  48.756  1.00  0.00     0.127 C 
HETATM   22  N3  UNL     1      22.108   3.284  47.357  1.00  0.00    -0.393 N 
HETATM   23  C21 UNL     1      24.087   7.052  50.532  1.00  0.00     0.007 C 
HETATM   24  C24 UNL     1      23.334   8.122  50.189  1.00  0.00     0.007 C 
HETATM   25  H27 UNL     1      22.570   2.574  46.739  1.00  0.00     0.159 HD
ENDROOT
BRANCH  18  26
HETATM   26  C17 UNL     1      22.458   1.678  53.031  1.00  0.00     0.355 C 
HETATM   27  O1  UNL     1      22.140   0.511  53.359  1.00  0.00    -0.283 OA
ENDBRANCH  18  26
BRANCH  23  28
HETATM   28  C22 UNL     1      25.540   7.401  50.512  1.00  0.00     0.052 C 
HETATM   29  C23 UNL     1      26.168   7.208  49.149  1.00  0.00     0.011 C 
ENDBRANCH  23  28
TORSDOF 2
ENDMDL
MODEL 7
REMARK VINA RESULT:      -7.3      9.447     13.061
REMARK  2 active torsions:
REMARK  status: ('A' for Active; 'I' for Inactive)
REMARK    1  A    between atoms: N2_18  and  C17_19 
REMARK    2  A    between atoms: C21_25  and  C22_26 
ROOT
HETATM    1  C1  UNL     1      29.847  10.127  43.242  1.00  0.00     0.037 C 
HETATM    2  C2  UNL     1      30.864   9.307  43.631  1.00  0.00    -0.005 C 
HETATM    3  C3  UNL     1      32.113   9.950  43.194  1.00  0.00     0.056 C 
HETATM    4  C4  UNL     1      33.085  10.225  44.337  1.00  0.00     0.006 C 
HETATM    5  C5  UNL     1      33.770   9.019  44.872  1.00  0.00     0.001 C 
HETATM    6  C6  UNL     1      34.674   9.188  46.034  1.00  0.00     0.012 C 
HETATM    7  C7  UNL     1      34.155   9.486  47.370  1.00  0.00     0.034 C 
HETATM    8  C8  UNL     1      33.002  10.379  47.468  1.00  0.00    -0.001 C 
HETATM    9  C9  UNL     1      31.939   9.697  47.834  1.00  0.00     0.087 C 
HETATM   10  N1  UNL     1      31.544   8.405  48.355  1.00  0.00    -0.360 N 
HETATM   11  C10 UNL     1      30.199   8.146  48.617  1.00  0.00     0.145 C 
HETATM   12  C11 UNL     1      29.244   7.526  47.681  1.00  0.00     0.029 A 
HETATM   13  C12 UNL     1      29.468   6.050  47.559  1.00  0.00     0.045 A 
HETATM   14  C13 UNL     1      28.433   5.206  48.208  1.00  0.00    -0.025 A 
HETATM   15  C14 UNL     1      27.295   5.403  48.852  1.00  0.00    -0.002 A 
HETATM   16  C15 UNL     1      26.972   6.842  48.958  1.00  0.00     0.026 A 
HETATM   17  C16 UNL     1      27.891   7.618  48.409  1.00  0.00     0.025 A 
HETATM   18  N2  UNL     1      27.670   9.042  48.258  1.00  0.00    -0.328 N 
HETATM   19  C18 UNL     1      28.070   9.474  46.900  1.00  0.00     0.138 C 
HETATM   20  C19 UNL     1      28.871   8.236  46.441  1.00  0.00     0.038 C 
HETATM   21  C20 UNL     1      29.961   8.795  45.602  1.00  0.00     0.127 C 
HETATM   22  N3  UNL     1      29.815   8.458  44.179  1.00  0.00    -0.393 N 
HETATM   23  C21 UNL     1      32.759   7.631  48.520  1.00  0.00     0.007 C 
HETATM   24  C24 UNL     1      33.922   8.231  48.180  1.00  0.00     0.007 C 
HETATM   25  H27 UNL     1      29.209   7.818  43.610  1.00  0.00     0.159 HD
ENDROOT
BRANCH  18  26
HETATM   26  C17 UNL     1      27.123   9.983  49.210  1.00  0.00     0.355 C 
HETATM   27  O1  UNL     1      27.179   9.818  50.451  1.00  0.00    -0.283 OA
ENDBRANCH  18  26
BRANCH  23  28
HETATM   28  C22 UNL     1      33.009   6.252  49.039  1.00  0.00     0.052 C 
HETATM   29  C23 UNL     1      33.107   5.221  47.934  1.00  0.00     0.011 C 
ENDBRANCH  23  28
TORSDOF 2
ENDMDL
MODEL 8
REMARK VINA RESULT:      -7.2      9.006     12.159
REMARK  2 active torsions:
REMARK  status: ('A' for Active; 'I' for Inactive)
REMARK    1  A    between atoms: N2_18  and  C17_19 
REMARK    2  A    between atoms: C21_25  and  C22_26 
ROOT
HETATM    1  C1  UNL     1      30.523  12.652  48.457  1.00  0.00     0.037 C 
HETATM    2  C2  UNL     1      29.680  11.747  49.030  1.00  0.00    -0.005 C 
HETATM    3  C3  UNL     1      28.329  12.328  48.957  1.00  0.00     0.056 C 
HETATM    4  C4  UNL     1      27.332  11.449  48.209  1.00  0.00     0.006 C 
HETATM    5  C5  UNL     1      26.886  10.243  48.955  1.00  0.00     0.001 C 
HETATM    6  C6  UNL     1      25.976   9.295  48.271  1.00  0.00     0.012 C 
HETATM    7  C7  UNL     1      26.441   8.445  47.173  1.00  0.00     0.034 C 
HETATM    8  C8  UNL     1      27.408   9.013  46.236  1.00  0.00    -0.001 C 
HETATM    9  C9  UNL     1      28.582   8.447  46.409  1.00  0.00     0.087 C 
HETATM   10  N1  UNL     1      29.214   7.327  47.073  1.00  0.00    -0.360 N 
HETATM   11  C10 UNL     1      30.586   7.120  46.929  1.00  0.00     0.145 C 
HETATM   12  C11 UNL     1      31.632   7.631  47.833  1.00  0.00     0.029 A 
HETATM   13  C12 UNL     1      31.687   6.854  49.113  1.00  0.00     0.045 A 
HETATM   14  C13 UNL     1      32.865   5.962  49.251  1.00  0.00    -0.025 A 
HETATM   15  C14 UNL     1      33.951   5.684  48.550  1.00  0.00    -0.002 A 
HETATM   16  C15 UNL     1      34.001   6.465  47.295  1.00  0.00     0.026 A 
HETATM   17  C16 UNL     1      32.950   7.251  47.134  1.00  0.00     0.025 A 
HETATM   18  N2  UNL     1      32.901   8.218  46.057  1.00  0.00    -0.328 N 
HETATM   19  C18 UNL     1      32.417   9.520  46.568  1.00  0.00     0.138 C 
HETATM   20  C19 UNL     1      31.857   9.086  47.941  1.00  0.00     0.038 C 
HETATM   21  C20 UNL     1      30.676   9.962  48.148  1.00  0.00     0.127 C 
HETATM   22  N3  UNL     1      30.872  10.936  49.231  1.00  0.00    -0.393 N 
HETATM   23  C21 UNL     1      28.166   6.607  47.771  1.00  0.00     0.007 C 
HETATM   24  C24 UNL     1      26.909   7.094  47.663  1.00  0.00     0.007 C 
HETATM   25  H27 UNL     1      31.582  11.097  49.986  1.00  0.00     0.159 HD
ENDROOT
BRANCH  18  26
HETATM   26  C17 UNL     1      33.271   8.052  44.668  1.00  0.00     0.355 C 
HETATM   27  O1  UNL     1      32.579   7.413  43.843  1.00  0.00    -0.283 OA
ENDBRANCH  18  26
BRANCH  23  28
HETATM   28  C22 UNL     1      28.181   5.364  48.600  1.00  0.00     0.052 C 
HETATM   29  C23 UNL     1      26.790   4.884  48.958  1.00  0.00     0.011 C 
ENDBRANCH  23  28
TORSDOF 2
ENDMDL
MODEL 9
REMARK VINA RESULT:      -7.1      2.654      5.475
REMARK  2 active torsions:
REMARK  status: ('A' for Active; 'I' for Inactive)
REMARK    1  A    between atoms: N2_18  and  C17_19 
REMARK    2  A    between atoms: C21_25  and  C22_26 
ROOT
HETATM    1  C1  UNL     1      17.194   4.293  49.718  1.00  0.00     0.037 C 
HETATM    2  C2  UNL     1      18.078   3.969  50.704  1.00  0.00    -0.005 C 
HETATM    3  C3  UNL     1      17.537   2.777  51.378  1.00  0.00     0.056 C 
HETATM    4  C4  UNL     1      18.490   1.586  51.357  1.00  0.00     0.006 C 
HETATM    5  C5  UNL     1      19.654   1.706  52.275  1.00  0.00     0.001 C 
HETATM    6  C6  UNL     1      20.669   0.627  52.261  1.00  0.00     0.012 C 
HETATM    7  C7  UNL     1      21.580   0.448  51.129  1.00  0.00     0.034 C 
HETATM    8  C8  UNL     1      21.054   0.691  49.788  1.00  0.00    -0.001 C 
HETATM    9  C9  UNL     1      21.577   1.792  49.295  1.00  0.00     0.087 C 
HETATM   10  N1  UNL     1      22.632   2.753  49.537  1.00  0.00    -0.360 N 
HETATM   11  C10 UNL     1      22.813   3.819  48.657  1.00  0.00     0.145 C 
HETATM   12  C11 UNL     1      22.216   5.159  48.794  1.00  0.00     0.029 A 
HETATM   13  C12 UNL     1      22.902   5.965  49.854  1.00  0.00     0.045 A 
HETATM   14  C13 UNL     1      23.752   7.070  49.345  1.00  0.00    -0.025 A 
HETATM   15  C14 UNL     1      24.050   7.593  48.168  1.00  0.00    -0.002 A 
HETATM   16  C15 UNL     1      23.356   6.887  47.069  1.00  0.00     0.026 A 
HETATM   17  C16 UNL     1      22.610   5.881  47.493  1.00  0.00     0.025 A 
HETATM   18  N2  UNL     1      21.720   5.181  46.589  1.00  0.00    -0.328 N 
HETATM   19  C18 UNL     1      20.399   4.989  47.228  1.00  0.00     0.138 C 
HETATM   20  C19 UNL     1      20.751   5.319  48.695  1.00  0.00     0.038 C 
HETATM   21  C20 UNL     1      19.894   4.406  49.491  1.00  0.00     0.127 C 
HETATM   22  N3  UNL     1      18.843   5.116  50.235  1.00  0.00    -0.393 N 
HETATM   23  C21 UNL     1      23.329   2.318  50.733  1.00  0.00     0.007 C 
HETATM   24  C24 UNL     1      22.882   1.189  51.329  1.00  0.00     0.007 C 
HETATM   25  H27 UNL     1      18.612   6.115  50.453  1.00  0.00     0.159 HD
ENDROOT
BRANCH  18  26
HETATM   26  C17 UNL     1      21.972   4.721  45.241  1.00  0.00     0.355 C 
HETATM   27  O1  UNL     1      22.121   3.513  44.941  1.00  0.00    -0.283 OA
ENDBRANCH  18  26
BRANCH  23  28
HETATM   28  C22 UNL     1      24.511   2.868  51.463  1.00  0.00     0.052 C 
HETATM   29  C23 UNL     1      24.165   3.350  52.855  1.00  0.00     0.011 C 
ENDBRANCH  23  28
TORSDOF 2
ENDMDL
