MODEL 1
REMARK VINA RESULT:      -8.0      0.000      0.000
REMARK  5 active torsions:
REMARK  status: ('A' for Active; 'I' for Inactive)
REMARK    1  A    between atoms: O1_2  and  C2_3 
REMARK    2  A    between atoms: C6_9  and  N3_10 
REMARK    3  A    between atoms: N3_10  and  C8_12 
REMARK    4  A    between atoms: C8_12  and  C9_13 
REMARK    5  A    between atoms: C17_22  and  O2_23 
ROOT
HETATM    1  C2  UNL     1      26.487   0.410  54.338  1.00  0.00     0.103 A 
HETATM    2  C3  UNL     1      25.341  -0.340  54.054  1.00  0.00     0.072 A 
HETATM    3  C4  UNL     1      24.255   0.166  53.380  1.00  0.00     0.075 A 
HETATM    4  N1  UNL     1      23.166  -0.577  53.120  1.00  0.00    -0.241 NA
HETATM    5  C5  UNL     1      22.116  -0.026  52.448  1.00  0.00     0.236 A 
HETATM    6  N2  UNL     1      22.160   1.271  52.037  1.00  0.00    -0.224 NA
HETATM    7  C6  UNL     1      23.230   2.061  52.272  1.00  0.00     0.139 A 
HETATM    8  C15 UNL     1      24.278   1.479  52.954  1.00  0.00     0.041 A 
HETATM    9  C16 UNL     1      25.399   2.233  53.225  1.00  0.00     0.057 A 
HETATM   10  C17 UNL     1      26.490   1.729  53.900  1.00  0.00     0.102 A 
ENDROOT
BRANCH   7  11
HETATM   11  N3  UNL     1      23.234   3.420  51.823  1.00  0.00    -0.365 N 
HETATM   12  C7  UNL     1      23.261   4.618  52.650  1.00  0.00     0.151 C 
BRANCH  11  13
HETATM   13  C8  UNL     1      23.209   3.641  50.383  1.00  0.00     0.162 C 
BRANCH  13  14
HETATM   14  C9  UNL     1      24.497   4.142  49.850  1.00  0.00    -0.039 A 
HETATM   15  C10 UNL     1      25.625   3.315  49.885  1.00  0.00     0.009 A 
HETATM   16  C11 UNL     1      26.832   3.800  49.379  1.00  0.00     0.002 A 
HETATM   17  C12 UNL     1      26.934   5.070  48.848  1.00  0.00     0.019 A 
HETATM   18  C13 UNL     1      25.817   5.861  48.824  1.00  0.00     0.011 A 
HETATM   19 BR1  UNL     1      25.889   7.608  48.112  1.00  0.00    -0.051 Br
HETATM   20  C14 UNL     1      24.613   5.410  49.316  1.00  0.00     0.027 A 
ENDBRANCH  13  14
ENDBRANCH  11  13
ENDBRANCH   7  11
BRANCH  10  21
HETATM   21  O2  UNL     1      27.641   2.423  54.206  1.00  0.00    -0.353 OA
HETATM   22  C18 UNL     1      28.629   2.575  53.204  1.00  0.00     0.210 C 
ENDBRANCH  10  21
BRANCH   1  23
HETATM   23  O1  UNL     1      27.551  -0.161  55.023  1.00  0.00    -0.353 OA
HETATM   24  C1  UNL     1      28.563  -0.752  54.229  1.00  0.00     0.210 C 
ENDBRANCH   1  23
TORSDOF 5
ENDMDL
MODEL 2
REMARK VINA RESULT:      -7.8      3.073      5.532
REMARK  5 active torsions:
REMARK  status: ('A' for Active; 'I' for Inactive)
REMARK    1  A    between atoms: O1_2  and  C2_3 
REMARK    2  A    between atoms: C6_9  and  N3_10 
REMARK    3  A    between atoms: N3_10  and  C8_12 
REMARK    4  A    between atoms: C8_12  and  C9_13 
REMARK    5  A    between atoms: C17_22  and  O2_23 
ROOT
HETATM    1  C2  UNL     1      27.343   0.136  53.834  1.00  0.00     0.103 A 
HETATM    2  C3  UNL     1      27.702   1.042  52.830  1.00  0.00     0.072 A 
HETATM    3  C4  UNL     1      26.787   1.735  52.074  1.00  0.00     0.075 A 
HETATM    4  N1  UNL     1      27.159   2.599  51.116  1.00  0.00    -0.241 NA
HETATM    5  C5  UNL     1      26.209   3.260  50.395  1.00  0.00     0.236 A 
HETATM    6  N2  UNL     1      24.886   3.053  50.636  1.00  0.00    -0.224 NA
HETATM    7  C6  UNL     1      24.458   2.195  51.588  1.00  0.00     0.139 A 
HETATM    8  C15 UNL     1      25.439   1.539  52.302  1.00  0.00     0.041 A 
HETATM    9  C16 UNL     1      25.067   0.650  53.287  1.00  0.00     0.057 A 
HETATM   10  C17 UNL     1      25.981  -0.045  54.047  1.00  0.00     0.102 A 
ENDROOT
BRANCH   7  11
HETATM   11  N3  UNL     1      23.057   2.006  51.808  1.00  0.00    -0.365 N 
HETATM   12  C7  UNL     1      22.178   2.830  52.626  1.00  0.00     0.151 C 
BRANCH  11  13
HETATM   13  C8  UNL     1      22.430   0.870  51.145  1.00  0.00     0.162 C 
BRANCH  13  14
HETATM   14  C9  UNL     1      21.340   0.261  51.942  1.00  0.00    -0.039 A 
HETATM   15  C10 UNL     1      21.651  -0.440  53.113  1.00  0.00     0.009 A 
HETATM   16  C11 UNL     1      20.614  -1.008  53.854  1.00  0.00     0.002 A 
HETATM   17  C12 UNL     1      19.297  -0.893  53.458  1.00  0.00     0.019 A 
HETATM   18  C13 UNL     1      19.016  -0.202  52.309  1.00  0.00     0.011 A 
HETATM   19 BR1  UNL     1      17.236  -0.009  51.713  1.00  0.00    -0.051 Br
HETATM   20  C14 UNL     1      20.018   0.368  51.557  1.00  0.00     0.027 A 
ENDBRANCH  13  14
ENDBRANCH  11  13
ENDBRANCH   7  11
BRANCH  10  21
HETATM   21  O2  UNL     1      25.682  -0.947  55.045  1.00  0.00    -0.353 OA
HETATM   22  C18 UNL     1      24.323  -1.199  55.349  1.00  0.00     0.210 C 
ENDBRANCH  10  21
BRANCH   1  23
HETATM   23  O1  UNL     1      28.318  -0.531  54.562  1.00  0.00    -0.353 OA
HETATM   24  C1  UNL     1      29.516  -0.837  53.871  1.00  0.00     0.210 C 
ENDBRANCH   1  23
TORSDOF 5
ENDMDL
MODEL 3
REMARK VINA RESULT:      -7.6      4.347      6.310
REMARK  5 active torsions:
REMARK  status: ('A' for Active; 'I' for Inactive)
REMARK    1  A    between atoms: O1_2  and  C2_3 
REMARK    2  A    between atoms: C6_9  and  N3_10 
REMARK    3  A    between atoms: N3_10  and  C8_12 
REMARK    4  A    between atoms: C8_12  and  C9_13 
REMARK    5  A    between atoms: C17_22  and  O2_23 
ROOT
HETATM    1  C2  UNL     1      19.663  -0.553  53.192  1.00  0.00     0.103 A 
HETATM    2  C3  UNL     1      20.447  -1.237  54.127  1.00  0.00     0.072 A 
HETATM    3  C4  UNL     1      21.781  -0.978  54.329  1.00  0.00     0.075 A 
HETATM    4  N1  UNL     1      22.511  -1.651  55.234  1.00  0.00    -0.241 NA
HETATM    5  C5  UNL     1      23.831  -1.354  55.394  1.00  0.00     0.236 A 
HETATM    6  N2  UNL     1      24.419  -0.382  54.645  1.00  0.00    -0.224 NA
HETATM    7  C6  UNL     1      23.731   0.325  53.721  1.00  0.00     0.139 A 
HETATM    8  C15 UNL     1      22.397   0.004  53.579  1.00  0.00     0.041 A 
HETATM    9  C16 UNL     1      21.641   0.689  52.653  1.00  0.00     0.057 A 
HETATM   10  C17 UNL     1      20.303   0.432  52.448  1.00  0.00     0.102 A 
ENDROOT
BRANCH   7  11
HETATM   11  N3  UNL     1      24.389   1.338  52.954  1.00  0.00    -0.365 N 
HETATM   12  C7  UNL     1      24.161   2.774  53.018  1.00  0.00     0.151 C 
BRANCH  11  13
HETATM   13  C8  UNL     1      25.400   0.895  52.003  1.00  0.00     0.162 C 
BRANCH  13  14
HETATM   14  C9  UNL     1      26.757   0.815  52.593  1.00  0.00    -0.039 A 
HETATM   15  C10 UNL     1      27.383   1.983  53.042  1.00  0.00     0.009 A 
HETATM   16  C11 UNL     1      28.660   1.894  53.597  1.00  0.00     0.002 A 
HETATM   17  C12 UNL     1      29.314   0.684  53.709  1.00  0.00     0.019 A 
HETATM   18  C13 UNL     1      28.682  -0.446  53.264  1.00  0.00     0.011 A 
HETATM   19 BR1  UNL     1      29.523  -2.132  53.389  1.00  0.00    -0.051 Br
HETATM   20  C14 UNL     1      27.423  -0.389  52.712  1.00  0.00     0.027 A 
ENDBRANCH  13  14
ENDBRANCH  11  13
ENDBRANCH   7  11
BRANCH  10  21
HETATM   21  O2  UNL     1      19.487   1.074  51.543  1.00  0.00    -0.353 OA
HETATM   22  C18 UNL     1      19.055   2.391  51.831  1.00  0.00     0.210 C 
ENDBRANCH  10  21
BRANCH   1  23
HETATM   23  O1  UNL     1      18.319  -0.864  53.038  1.00  0.00    -0.353 OA
HETATM   24  C1  UNL     1      17.916  -2.145  53.486  1.00  0.00     0.210 C 
ENDBRANCH   1  23
TORSDOF 5
ENDMDL
MODEL 4
REMARK VINA RESULT:      -7.4      2.211      3.280
REMARK  5 active torsions:
REMARK  status: ('A' for Active; 'I' for Inactive)
REMARK    1  A    between atoms: O1_2  and  C2_3 
REMARK    2  A    between atoms: C6_9  and  N3_10 
REMARK    3  A    between atoms: N3_10  and  C8_12 
REMARK    4  A    between atoms: C8_12  and  C9_13 
REMARK    5  A    between atoms: C17_22  and  O2_23 
ROOT
HETATM    1  C2  UNL     1      22.400   0.440  53.513  1.00  0.00     0.103 A 
HETATM    2  C3  UNL     1      21.102   0.885  53.239  1.00  0.00     0.072 A 
HETATM    3  C4  UNL     1      20.829   2.056  52.573  1.00  0.00     0.075 A 
HETATM    4  N1  UNL     1      19.573   2.460  52.324  1.00  0.00    -0.241 NA
HETATM    5  C5  UNL     1      19.358   3.631  51.659  1.00  0.00     0.236 A 
HETATM    6  N2  UNL     1      20.405   4.396  51.247  1.00  0.00    -0.224 NA
HETATM    7  C6  UNL     1      21.688   4.036  51.472  1.00  0.00     0.139 A 
HETATM    8  C15 UNL     1      21.877   2.848  52.147  1.00  0.00     0.041 A 
HETATM    9  C16 UNL     1      23.162   2.426  52.408  1.00  0.00     0.057 A 
HETATM   10  C17 UNL     1      23.440   1.252  53.074  1.00  0.00     0.102 A 
ENDROOT
BRANCH   7  11
HETATM   11  N3  UNL     1      22.759   4.872  51.022  1.00  0.00    -0.365 N 
HETATM   12  C7  UNL     1      23.540   5.805  51.821  1.00  0.00     0.151 C 
BRANCH  11  13
HETATM   13  C8  UNL     1      23.116   4.786  49.612  1.00  0.00     0.162 C 
BRANCH  13  14
HETATM   14  C9  UNL     1      24.576   4.665  49.389  1.00  0.00    -0.039 A 
HETATM   15  C10 UNL     1      25.218   3.455  49.675  1.00  0.00     0.009 A 
HETATM   16  C11 UNL     1      26.593   3.354  49.460  1.00  0.00     0.002 A 
HETATM   17  C12 UNL     1      27.327   4.417  48.974  1.00  0.00     0.019 A 
HETATM   18  C13 UNL     1      26.677   5.591  48.700  1.00  0.00     0.011 A 
HETATM   19 BR1  UNL     1      27.624   7.082  48.033  1.00  0.00    -0.051 Br
HETATM   20  C14 UNL     1      25.323   5.720  48.903  1.00  0.00     0.027 A 
ENDBRANCH  13  14
ENDBRANCH  11  13
ENDBRANCH   7  11
BRANCH  10  21
HETATM   21  O2  UNL     1      24.696   0.769  53.369  1.00  0.00    -0.353 OA
HETATM   22  C18 UNL     1      25.600   0.530  52.307  1.00  0.00     0.210 C 
ENDBRANCH  10  21
BRANCH   1  23
HETATM   23  O1  UNL     1      22.607  -0.753  54.190  1.00  0.00    -0.353 OA
HETATM   24  C1  UNL     1      21.512  -1.650  54.229  1.00  0.00     0.210 C 
ENDBRANCH   1  23
TORSDOF 5
ENDMDL
MODEL 5
REMARK VINA RESULT:      -7.3      2.291      3.007
REMARK  5 active torsions:
REMARK  status: ('A' for Active; 'I' for Inactive)
REMARK    1  A    between atoms: O1_2  and  C2_3 
REMARK    2  A    between atoms: C6_9  and  N3_10 
REMARK    3  A    between atoms: N3_10  and  C8_12 
REMARK    4  A    between atoms: C8_12  and  C9_13 
REMARK    5  A    between atoms: C17_22  and  O2_23 
ROOT
HETATM    1  C2  UNL     1      26.154  -0.319  53.637  1.00  0.00     0.103 A 
HETATM    2  C3  UNL     1      25.145  -0.884  54.424  1.00  0.00     0.072 A 
HETATM    3  C4  UNL     1      23.808  -0.624  54.241  1.00  0.00     0.075 A 
HETATM    4  N1  UNL     1      22.860  -1.180  55.012  1.00  0.00    -0.241 NA
HETATM    5  C5  UNL     1      21.547  -0.887  54.787  1.00  0.00     0.236 A 
HETATM    6  N2  UNL     1      21.188  -0.035  53.788  1.00  0.00    -0.224 NA
HETATM    7  C6  UNL     1      22.102   0.551  52.984  1.00  0.00     0.139 A 
HETATM    8  C15 UNL     1      23.422   0.238  53.233  1.00  0.00     0.041 A 
HETATM    9  C16 UNL     1      24.402   0.803  52.447  1.00  0.00     0.057 A 
HETATM   10  C17 UNL     1      25.743   0.544  52.627  1.00  0.00     0.102 A 
ENDROOT
BRANCH   7  11
HETATM   11  N3  UNL     1      21.681   1.441  51.946  1.00  0.00    -0.365 N 
HETATM   12  C7  UNL     1      21.866   1.268  50.512  1.00  0.00     0.151 C 
BRANCH  11  13
HETATM   13  C8  UNL     1      20.987   2.655  52.357  1.00  0.00     0.162 C 
BRANCH  13  14
HETATM   14  C9  UNL     1      21.687   3.893  51.940  1.00  0.00    -0.039 A 
HETATM   15  C10 UNL     1      23.011   4.103  52.339  1.00  0.00     0.009 A 
HETATM   16  C11 UNL     1      23.659   5.273  51.940  1.00  0.00     0.002 A 
HETATM   17  C12 UNL     1      23.022   6.220  51.163  1.00  0.00     0.019 A 
HETATM   18  C13 UNL     1      21.726   5.993  50.784  1.00  0.00     0.011 A 
HETATM   19 BR1  UNL     1      20.800   7.249  49.722  1.00  0.00    -0.051 Br
HETATM   20  C14 UNL     1      21.062   4.849  51.163  1.00  0.00     0.027 A 
ENDBRANCH  13  14
ENDBRANCH  11  13
ENDBRANCH   7  11
BRANCH  10  21
HETATM   21  O2  UNL     1      26.775   1.072  51.882  1.00  0.00    -0.353 OA
HETATM   22  C18 UNL     1      26.675   2.411  51.436  1.00  0.00     0.210 C 
ENDBRANCH  10  21
BRANCH   1  23
HETATM   23  O1  UNL     1      27.487  -0.625  53.874  1.00  0.00    -0.353 OA
HETATM   24  C1  UNL     1      28.149   0.170  54.841  1.00  0.00     0.210 C 
ENDBRANCH   1  23
TORSDOF 5
ENDMDL
MODEL 6
REMARK VINA RESULT:      -7.3      3.750      5.486
REMARK  5 active torsions:
REMARK  status: ('A' for Active; 'I' for Inactive)
REMARK    1  A    between atoms: O1_2  and  C2_3 
REMARK    2  A    between atoms: C6_9  and  N3_10 
REMARK    3  A    between atoms: N3_10  and  C8_12 
REMARK    4  A    between atoms: C8_12  and  C9_13 
REMARK    5  A    between atoms: C17_22  and  O2_23 
ROOT
HETATM    1  C2  UNL     1      26.626   0.070  53.231  1.00  0.00     0.103 A 
HETATM    2  C3  UNL     1      25.792  -0.609  54.127  1.00  0.00     0.072 A 
HETATM    3  C4  UNL     1      24.423  -0.492  54.121  1.00  0.00     0.075 A 
HETATM    4  N1  UNL     1      23.646  -1.155  54.993  1.00  0.00    -0.241 NA
HETATM    5  C5  UNL     1      22.292  -1.003  54.945  1.00  0.00     0.236 A 
HETATM    6  N2  UNL     1      21.719  -0.184  54.021  1.00  0.00    -0.224 NA
HETATM    7  C6  UNL     1      22.454   0.506  53.121  1.00  0.00     0.139 A 
HETATM    8  C15 UNL     1      23.821   0.334  53.193  1.00  0.00     0.041 A 
HETATM    9  C16 UNL     1      24.627   1.010  52.303  1.00  0.00     0.057 A 
HETATM   10  C17 UNL     1      25.999   0.895  52.305  1.00  0.00     0.102 A 
ENDROOT
BRANCH   7  11
HETATM   11  N3  UNL     1      21.811   1.357  52.167  1.00  0.00    -0.365 N 
HETATM   12  C7  UNL     1      21.547   2.782  52.300  1.00  0.00     0.151 C 
BRANCH  11  13
HETATM   13  C8  UNL     1      21.369   0.740  50.923  1.00  0.00     0.162 C 
BRANCH  13  14
HETATM   14  C9  UNL     1      19.895   0.663  50.804  1.00  0.00    -0.039 A 
HETATM   15  C10 UNL     1      19.244   1.409  49.815  1.00  0.00     0.009 A 
HETATM   16  C11 UNL     1      17.855   1.328  49.713  1.00  0.00     0.002 A 
HETATM   17  C12 UNL     1      17.115   0.531  50.563  1.00  0.00     0.019 A 
HETATM   18  C13 UNL     1      17.773  -0.191  51.523  1.00  0.00     0.011 A 
HETATM   19 BR1  UNL     1      16.819  -1.299  52.716  1.00  0.00    -0.051 Br
HETATM   20  C14 UNL     1      19.142  -0.130  51.647  1.00  0.00     0.027 A 
ENDBRANCH  13  14
ENDBRANCH  11  13
ENDBRANCH   7  11
BRANCH  10  21
HETATM   21  O2  UNL     1      26.865   1.539  51.447  1.00  0.00    -0.353 OA
HETATM   22  C18 UNL     1      26.494   2.803  50.931  1.00  0.00     0.210 C 
ENDBRANCH  10  21
BRANCH   1  23
HETATM   23  O1  UNL     1      28.003  -0.093  53.290  1.00  0.00    -0.353 OA
HETATM   24  C1  UNL     1      28.592   0.010  54.573  1.00  0.00     0.210 C 
ENDBRANCH   1  23
TORSDOF 5
ENDMDL
MODEL 7
REMARK VINA RESULT:      -7.2      2.559      3.786
REMARK  5 active torsions:
REMARK  status: ('A' for Active; 'I' for Inactive)
REMARK    1  A    between atoms: O1_2  and  C2_3 
REMARK    2  A    between atoms: C6_9  and  N3_10 
REMARK    3  A    between atoms: N3_10  and  C8_12 
REMARK    4  A    between atoms: C8_12  and  C9_13 
REMARK    5  A    between atoms: C17_22  and  O2_23 
ROOT
HETATM    1  C2  UNL     1      22.284   0.004  53.563  1.00  0.00     0.103 A 
HETATM    2  C3  UNL     1      23.644  -0.319  53.502  1.00  0.00     0.072 A 
HETATM    3  C4  UNL     1      24.581   0.468  52.877  1.00  0.00     0.075 A 
HETATM    4  N1  UNL     1      25.880   0.133  52.833  1.00  0.00    -0.241 NA
HETATM    5  C5  UNL     1      26.768   0.951  52.199  1.00  0.00     0.236 A 
HETATM    6  N2  UNL     1      26.351   2.104  51.610  1.00  0.00    -0.224 NA
HETATM    7  C6  UNL     1      25.055   2.487  51.625  1.00  0.00     0.139 A 
HETATM    8  C15 UNL     1      24.178   1.642  52.272  1.00  0.00     0.041 A 
HETATM    9  C16 UNL     1      22.842   1.977  52.323  1.00  0.00     0.057 A 
HETATM   10  C17 UNL     1      21.900   1.191  52.949  1.00  0.00     0.102 A 
ENDROOT
BRANCH   7  11
HETATM   11  N3  UNL     1      24.659   3.707  50.991  1.00  0.00    -0.365 N 
HETATM   12  C7  UNL     1      24.143   4.905  51.638  1.00  0.00     0.151 C 
BRANCH  11  13
HETATM   13  C8  UNL     1      24.782   3.770  49.541  1.00  0.00     0.162 C 
BRANCH  13  14
HETATM   14  C9  UNL     1      25.806   4.739  49.085  1.00  0.00    -0.039 A 
HETATM   15  C10 UNL     1      27.134   4.323  48.946  1.00  0.00     0.009 A 
HETATM   16  C11 UNL     1      28.089   5.246  48.516  1.00  0.00     0.002 A 
HETATM   17  C12 UNL     1      27.749   6.552  48.227  1.00  0.00     0.019 A 
HETATM   18  C13 UNL     1      26.443   6.937  48.370  1.00  0.00     0.011 A 
HETATM   19 BR1  UNL     1      25.915   8.709  47.993  1.00  0.00    -0.051 Br
HETATM   20  C14 UNL     1      25.481   6.049  48.793  1.00  0.00     0.027 A 
ENDBRANCH  13  14
ENDBRANCH  11  13
ENDBRANCH   7  11
BRANCH  10  21
HETATM   21  O2  UNL     1      20.552   1.462  53.038  1.00  0.00    -0.353 OA
HETATM   22  C18 UNL     1      20.032   2.563  52.318  1.00  0.00     0.210 C 
ENDBRANCH  10  21
BRANCH   1  23
HETATM   23  O1  UNL     1      21.389  -0.835  54.212  1.00  0.00    -0.353 OA
HETATM   24  C1  UNL     1      21.950  -1.937  54.901  1.00  0.00     0.210 C 
ENDBRANCH   1  23
TORSDOF 5
ENDMDL
MODEL 8
REMARK VINA RESULT:      -7.1      2.229      3.070
REMARK  5 active torsions:
REMARK  status: ('A' for Active; 'I' for Inactive)
REMARK    1  A    between atoms: O1_2  and  C2_3 
REMARK    2  A    between atoms: C6_9  and  N3_10 
REMARK    3  A    between atoms: N3_10  and  C8_12 
REMARK    4  A    between atoms: C8_12  and  C9_13 
REMARK    5  A    between atoms: C17_22  and  O2_23 
ROOT
HETATM    1  C2  UNL     1      25.811   0.005  54.377  1.00  0.00     0.103 A 
HETATM    2  C3  UNL     1      24.858  -0.852  54.936  1.00  0.00     0.072 A 
HETATM    3  C4  UNL     1      23.539  -0.872  54.550  1.00  0.00     0.075 A 
HETATM    4  N1  UNL     1      22.645  -1.706  55.105  1.00  0.00    -0.241 NA
HETATM    5  C5  UNL     1      21.348  -1.684  54.684  1.00  0.00     0.236 A 
HETATM    6  N2  UNL     1      20.950  -0.824  53.708  1.00  0.00    -0.224 NA
HETATM    7  C6  UNL     1      21.809   0.035  53.117  1.00  0.00     0.139 A 
HETATM    8  C15 UNL     1      23.114  -0.007  53.561  1.00  0.00     0.041 A 
HETATM    9  C16 UNL     1      24.039   0.845  52.998  1.00  0.00     0.057 A 
HETATM   10  C17 UNL     1      25.362   0.867  53.382  1.00  0.00     0.102 A 
ENDROOT
BRANCH   7  11
HETATM   11  N3  UNL     1      21.348   0.924  52.094  1.00  0.00    -0.365 N 
HETATM   12  C7  UNL     1      20.793   2.257  52.275  1.00  0.00     0.151 C 
BRANCH  11  13
HETATM   13  C8  UNL     1      21.441   0.453  50.718  1.00  0.00     0.162 C 
BRANCH  13  14
HETATM   14  C9  UNL     1      21.828   1.519  49.765  1.00  0.00    -0.039 A 
HETATM   15  C10 UNL     1      21.046   1.741  48.626  1.00  0.00     0.009 A 
HETATM   16  C11 UNL     1      21.421   2.748  47.736  1.00  0.00     0.002 A 
HETATM   17  C12 UNL     1      22.540   3.525  47.956  1.00  0.00     0.019 A 
HETATM   18  C13 UNL     1      23.290   3.291  49.078  1.00  0.00     0.011 A 
HETATM   19 BR1  UNL     1      24.832   4.319  49.437  1.00  0.00    -0.051 Br
HETATM   20  C14 UNL     1      22.945   2.304  49.973  1.00  0.00     0.027 A 
ENDBRANCH  13  14
ENDBRANCH  11  13
ENDBRANCH   7  11
BRANCH  10  21
HETATM   21  O2  UNL     1      26.339   1.690  52.865  1.00  0.00    -0.353 OA
HETATM   22  C18 UNL     1      26.576   1.671  51.470  1.00  0.00     0.210 C 
ENDBRANCH  10  21
BRANCH   1  23
HETATM   23  O1  UNL     1      27.129  -0.026  54.812  1.00  0.00    -0.353 OA
HETATM   24  C1  UNL     1      28.054  -0.682  53.964  1.00  0.00     0.210 C 
ENDBRANCH   1  23
TORSDOF 5
ENDMDL
MODEL 9
REMARK VINA RESULT:      -7.0      2.228      3.990
REMARK  5 active torsions:
REMARK  status: ('A' for Active; 'I' for Inactive)
REMARK    1  A    between atoms: O1_2  and  C2_3 
REMARK    2  A    between atoms: C6_9  and  N3_10 
REMARK    3  A    between atoms: N3_10  and  C8_12 
REMARK    4  A    between atoms: C8_12  and  C9_13 
REMARK    5  A    between atoms: C17_22  and  O2_23 
ROOT
HETATM    1  C2  UNL     1      27.067   0.060  53.799  1.00  0.00     0.103 A 
HETATM    2  C3  UNL     1      27.451   0.965  52.804  1.00  0.00     0.072 A 
HETATM    3  C4  UNL     1      26.556   1.631  52.001  1.00  0.00     0.075 A 
HETATM    4  N1  UNL     1      26.952   2.495  51.053  1.00  0.00    -0.241 NA
HETATM    5  C5  UNL     1      26.022   3.129  50.284  1.00  0.00     0.236 A 
HETATM    6  N2  UNL     1      24.694   2.895  50.467  1.00  0.00    -0.224 NA
HETATM    7  C6  UNL     1      24.242   2.035  51.408  1.00  0.00     0.139 A 
HETATM    8  C15 UNL     1      25.204   1.407  52.171  1.00  0.00     0.041 A 
HETATM    9  C16 UNL     1      24.807   0.519  53.147  1.00  0.00     0.057 A 
HETATM   10  C17 UNL     1      25.702  -0.150  53.953  1.00  0.00     0.102 A 
ENDROOT
BRANCH   7  11
HETATM   11  N3  UNL     1      22.837   1.818  51.567  1.00  0.00    -0.365 N 
HETATM   12  C7  UNL     1      22.045   0.739  50.992  1.00  0.00     0.151 C 
BRANCH  11  13
HETATM   13  C8  UNL     1      22.109   2.772  52.392  1.00  0.00     0.162 C 
BRANCH  13  14
HETATM   14  C9  UNL     1      21.445   3.836  51.603  1.00  0.00    -0.039 A 
HETATM   15  C10 UNL     1      20.158   3.618  51.098  1.00  0.00     0.009 A 
HETATM   16  C11 UNL     1      19.545   4.628  50.357  1.00  0.00     0.002 A 
HETATM   17  C12 UNL     1      20.178   5.830  50.114  1.00  0.00     0.019 A 
HETATM   18  C13 UNL     1      21.436   6.022  50.618  1.00  0.00     0.011 A 
HETATM   19 BR1  UNL     1      22.356   7.643  50.321  1.00  0.00    -0.051 Br
HETATM   20  C14 UNL     1      22.067   5.044  51.352  1.00  0.00     0.027 A 
ENDBRANCH  13  14
ENDBRANCH  11  13
ENDBRANCH   7  11
BRANCH  10  21
HETATM   21  O2  UNL     1      25.378  -1.049  54.945  1.00  0.00    -0.353 OA
HETATM   22  C18 UNL     1      24.015  -1.225  55.285  1.00  0.00     0.210 C 
ENDBRANCH  10  21
BRANCH   1  23
HETATM   23  O1  UNL     1      28.023  -0.580  54.576  1.00  0.00    -0.353 OA
HETATM   24  C1  UNL     1      29.324  -0.665  54.025  1.00  0.00     0.210 C 
ENDBRANCH   1  23
TORSDOF 5
ENDMDL
