MODEL 1
REMARK VINA RESULT:      -9.2      0.000      0.000
REMARK  7 active torsions:
REMARK  status: ('A' for Active; 'I' for Inactive)
REMARK    1  A    between atoms: C7_7  and  C8_8 
REMARK    2  A    between atoms: C8_8  and  C9_10 
REMARK    3  A    between atoms: C9_10  and  C10_11 
REMARK    4  A    between atoms: C13_14  and  N1_15 
REMARK    5  A    between atoms: C14_17  and  N3_18 
REMARK    6  A    between atoms: N5_21  and  N6_22 
REMARK    7  A    between atoms: N6_22  and  C16_23 
ROOT
HETATM    1  C10 UNL     1      23.247   0.102  53.367  1.00  0.00     0.008 C 
HETATM    2  C11 UNL     1      24.536   0.338  53.232  1.00  0.00     0.057 C 
HETATM    3  C12 UNL     1      25.361  -0.842  53.013  1.00  0.00     0.082 C 
HETATM    4  C13 UNL     1      26.623  -1.145  53.335  1.00  0.00     0.142 C 
HETATM    5  N2  UNL     1      27.681  -0.447  54.020  1.00  0.00    -0.046 NA
HETATM    6  C14 UNL     1      27.883   0.805  54.246  1.00  0.00     0.723 C 
HETATM    7  N4  UNL     1      27.257   2.053  53.981  1.00  0.00    -0.056 NA
HETATM    8  C15 UNL     1      26.076   2.426  53.621  1.00  0.00     0.252 C 
HETATM    9  N5  UNL     1      24.877   1.699  53.332  1.00  0.00    -0.249 N 
ENDROOT
BRANCH   1  10
HETATM   10  C9  UNL     1      22.353  -1.088  53.357  1.00  0.00     0.071 C 
BRANCH  10  11
HETATM   11  C8  UNL     1      20.982  -0.610  53.430  1.00  0.00     0.207 C 
HETATM   12  F1  UNL     1      20.963   0.402  54.406  1.00  0.00    -0.244 F 
BRANCH  11  13
HETATM   13  C7  UNL     1      20.223  -0.128  52.318  1.00  0.00    -0.018 A 
HETATM   14  C2  UNL     1      18.854  -0.396  52.232  1.00  0.00    -0.053 A 
HETATM   15  C1  UNL     1      18.219  -1.182  53.310  1.00  0.00     0.049 C 
HETATM   16  C3  UNL     1      18.190   0.113  51.112  1.00  0.00     0.007 A 
HETATM   17  C4  UNL     1      18.814   0.834  50.140  1.00  0.00     0.001 A 
HETATM   18  C5  UNL     1      20.148   1.075  50.256  1.00  0.00     0.001 A 
HETATM   19  C6  UNL     1      20.868   0.616  51.315  1.00  0.00     0.010 A 
ENDBRANCH  11  13
ENDBRANCH  10  11
ENDBRANCH   1  10
BRANCH   9  20
HETATM   20  N6  UNL     1      23.796   2.557  53.095  1.00  0.00    -0.293 N 
HETATM   21  H18 UNL     1      23.036   2.642  53.781  1.00  0.00     0.187 HD
BRANCH  20  22
HETATM   22  C16 UNL     1      23.747   3.312  51.905  1.00  0.00     0.048 A 
HETATM   23  C17 UNL     1      23.852   2.764  50.647  1.00  0.00     0.032 A 
HETATM   24  C18 UNL     1      23.806   3.492  49.478  1.00  0.00     0.026 A 
HETATM   25  C19 UNL     1      23.646   4.848  49.535  1.00  0.00     0.034 A 
HETATM   26 CL1  UNL     1      23.579   5.833  48.089  1.00  0.00    -0.084 Cl
HETATM   27  C20 UNL     1      23.539   5.427  50.779  1.00  0.00     0.026 A 
HETATM   28  C21 UNL     1      23.587   4.679  51.930  1.00  0.00     0.032 A 
ENDBRANCH  20  22
ENDBRANCH   9  20
BRANCH   4  29
HETATM   29  N1  UNL     1      26.986  -2.447  52.895  1.00  0.00    -0.383 N 
HETATM   30  H13 UNL     1      26.476  -3.182  52.390  1.00  0.00     0.157 HD
HETATM   31  H14 UNL     1      27.798  -3.098  52.902  1.00  0.00     0.157 HD
ENDBRANCH   4  29
BRANCH   6  32
HETATM   32  N3  UNL     1      29.084   1.019  54.975  1.00  0.00    -0.231 N 
HETATM   33  H15 UNL     1      29.743   0.335  55.399  1.00  0.00     0.174 HD
HETATM   34  H16 UNL     1      29.868   1.483  55.440  1.00  0.00     0.174 HD
ENDBRANCH   6  32
TORSDOF 7
ENDMDL
MODEL 2
REMARK VINA RESULT:      -9.1      2.029      2.597
REMARK  7 active torsions:
REMARK  status: ('A' for Active; 'I' for Inactive)
REMARK    1  A    between atoms: C7_7  and  C8_8 
REMARK    2  A    between atoms: C8_8  and  C9_10 
REMARK    3  A    between atoms: C9_10  and  C10_11 
REMARK    4  A    between atoms: C13_14  and  N1_15 
REMARK    5  A    between atoms: C14_17  and  N3_18 
REMARK    6  A    between atoms: N5_21  and  N6_22 
REMARK    7  A    between atoms: N6_22  and  C16_23 
ROOT
HETATM    1  C10 UNL     1      23.671   1.835  52.296  1.00  0.00     0.008 C 
HETATM    2  C11 UNL     1      24.931   1.509  52.504  1.00  0.00     0.057 C 
HETATM    3  C12 UNL     1      25.146   0.506  53.537  1.00  0.00     0.082 C 
HETATM    4  C13 UNL     1      26.148   0.282  54.395  1.00  0.00     0.142 C 
HETATM    5  N2  UNL     1      27.412   0.923  54.655  1.00  0.00    -0.046 NA
HETATM    6  C14 UNL     1      28.148   1.699  53.938  1.00  0.00     0.723 C 
HETATM    7  N4  UNL     1      28.136   2.289  52.646  1.00  0.00    -0.056 NA
HETATM    8  C15 UNL     1      27.238   2.497  51.742  1.00  0.00     0.252 C 
HETATM    9  N5  UNL     1      25.839   2.201  51.683  1.00  0.00    -0.249 N 
ENDROOT
BRANCH   1  10
HETATM   10  C9  UNL     1      22.344   1.448  52.846  1.00  0.00     0.071 C 
BRANCH  10  11
HETATM   11  C8  UNL     1      21.776   0.443  51.961  1.00  0.00     0.207 C 
HETATM   12  F1  UNL     1      22.215  -0.804  52.439  1.00  0.00    -0.244 F 
BRANCH  11  13
HETATM   13  C7  UNL     1      20.384   0.307  51.664  1.00  0.00    -0.018 A 
HETATM   14  C2  UNL     1      19.888   0.709  50.421  1.00  0.00    -0.053 A 
HETATM   15  C1  UNL     1      20.831   1.273  49.432  1.00  0.00     0.049 C 
HETATM   16  C3  UNL     1      18.515   0.540  50.215  1.00  0.00     0.007 A 
HETATM   17  C4  UNL     1      17.681   0.016  51.154  1.00  0.00     0.001 A 
HETATM   18  C5  UNL     1      18.198  -0.364  52.353  1.00  0.00     0.001 A 
HETATM   19  C6  UNL     1      19.523  -0.234  52.634  1.00  0.00     0.010 A 
ENDBRANCH  11  13
ENDBRANCH  10  11
ENDBRANCH   1  10
BRANCH   9  20
HETATM   20  N6  UNL     1      25.246   2.733  50.531  1.00  0.00    -0.293 N 
HETATM   21  H18 UNL     1      24.444   2.265  50.092  1.00  0.00     0.187 HD
BRANCH  20  22
HETATM   22  C16 UNL     1      25.753   3.922  49.967  1.00  0.00     0.048 A 
HETATM   23  C17 UNL     1      26.872   3.973  49.167  1.00  0.00     0.032 A 
HETATM   24  C18 UNL     1      27.375   5.129  48.611  1.00  0.00     0.026 A 
HETATM   25  C19 UNL     1      26.746   6.320  48.848  1.00  0.00     0.034 A 
HETATM   26 CL1  UNL     1      27.333   7.825  48.173  1.00  0.00    -0.084 Cl
HETATM   27  C20 UNL     1      25.624   6.302  49.645  1.00  0.00     0.026 A 
HETATM   28  C21 UNL     1      25.142   5.136  50.187  1.00  0.00     0.032 A 
ENDBRANCH  20  22
ENDBRANCH   9  20
BRANCH   4  29
HETATM   29  N1  UNL     1      25.894  -0.843  55.227  1.00  0.00    -0.383 N 
HETATM   30  H13 UNL     1      25.058  -1.168  55.728  1.00  0.00     0.157 HD
HETATM   31  H14 UNL     1      26.378  -1.679  55.615  1.00  0.00     0.157 HD
ENDBRANCH   4  29
BRANCH   6  32
HETATM   32  N3  UNL     1      29.327   2.090  54.629  1.00  0.00    -0.231 N 
HETATM   33  H15 UNL     1      29.476   2.301  55.637  1.00  0.00     0.174 HD
HETATM   34  H16 UNL     1      30.298   2.345  54.826  1.00  0.00     0.174 HD
ENDBRANCH   6  32
TORSDOF 7
ENDMDL
MODEL 3
REMARK VINA RESULT:      -9.1      3.515      7.252
REMARK  7 active torsions:
REMARK  status: ('A' for Active; 'I' for Inactive)
REMARK    1  A    between atoms: C7_7  and  C8_8 
REMARK    2  A    between atoms: C8_8  and  C9_10 
REMARK    3  A    between atoms: C9_10  and  C10_11 
REMARK    4  A    between atoms: C13_14  and  N1_15 
REMARK    5  A    between atoms: C14_17  and  N3_18 
REMARK    6  A    between atoms: N5_21  and  N6_22 
REMARK    7  A    between atoms: N6_22  and  C16_23 
ROOT
HETATM    1  C10 UNL     1      23.359   3.422  51.566  1.00  0.00     0.008 C 
HETATM    2  C11 UNL     1      22.792   2.244  51.731  1.00  0.00     0.057 C 
HETATM    3  C12 UNL     1      21.801   1.889  50.725  1.00  0.00     0.082 C 
HETATM    4  C13 UNL     1      20.690   1.146  50.762  1.00  0.00     0.142 C 
HETATM    5  N2  UNL     1      20.017   0.393  51.791  1.00  0.00    -0.046 NA
HETATM    6  C14 UNL     1      20.428  -0.093  52.911  1.00  0.00     0.723 C 
HETATM    7  N4  UNL     1      21.626  -0.159  53.672  1.00  0.00    -0.056 NA
HETATM    8  C15 UNL     1      22.749   0.477  53.669  1.00  0.00     0.252 C 
HETATM    9  N5  UNL     1      23.253   1.546  52.861  1.00  0.00    -0.249 N 
ENDROOT
BRANCH   1  10
HETATM   10  C9  UNL     1      23.268   4.545  50.594  1.00  0.00     0.071 C 
BRANCH  10  11
HETATM   11  C8  UNL     1      24.100   4.207  49.450  1.00  0.00     0.207 C 
HETATM   12  F1  UNL     1      23.247   4.171  48.332  1.00  0.00    -0.244 F 
BRANCH  11  13
HETATM   13  C7  UNL     1      25.274   4.920  49.054  1.00  0.00    -0.018 A 
HETATM   14  C2  UNL     1      26.531   4.318  49.157  1.00  0.00    -0.053 A 
HETATM   15  C1  UNL     1      26.613   2.938  49.681  1.00  0.00     0.049 C 
HETATM   16  C3  UNL     1      27.624   5.087  48.747  1.00  0.00     0.007 A 
HETATM   17  C4  UNL     1      27.505   6.356  48.269  1.00  0.00     0.001 A 
HETATM   18  C5  UNL     1      26.266   6.911  48.183  1.00  0.00     0.001 A 
HETATM   19  C6  UNL     1      25.150   6.230  48.560  1.00  0.00     0.010 A 
ENDBRANCH  11  13
ENDBRANCH  10  11
ENDBRANCH   1  10
BRANCH   9  20
HETATM   20  N6  UNL     1      24.500   1.994  53.316  1.00  0.00    -0.293 N 
HETATM   21  H18 UNL     1      24.617   2.956  53.655  1.00  0.00     0.187 HD
BRANCH  20  22
HETATM   22  C16 UNL     1      25.605   1.118  53.308  1.00  0.00     0.048 A 
HETATM   23  C17 UNL     1      25.951   0.332  52.232  1.00  0.00     0.032 A 
HETATM   24  C18 UNL     1      27.028  -0.526  52.214  1.00  0.00     0.026 A 
HETATM   25  C19 UNL     1      27.826  -0.630  53.320  1.00  0.00     0.034 A 
HETATM   26 CL1  UNL     1      29.210  -1.702  53.364  1.00  0.00    -0.084 Cl
HETATM   27  C20 UNL     1      27.505   0.142  54.413  1.00  0.00     0.026 A 
HETATM   28  C21 UNL     1      26.426   0.991  54.406  1.00  0.00     0.032 A 
ENDBRANCH  20  22
ENDBRANCH   9  20
BRANCH   4  29
HETATM   29  N1  UNL     1      20.042   1.094  49.498  1.00  0.00    -0.383 N 
HETATM   30  H13 UNL     1      19.399   1.733  49.015  1.00  0.00     0.157 HD
HETATM   31  H14 UNL     1      19.962   0.478  48.663  1.00  0.00     0.157 HD
ENDBRANCH   4  29
BRANCH   6  32
HETATM   32  N3  UNL     1      19.387  -0.770  53.602  1.00  0.00    -0.231 N 
HETATM   33  H15 UNL     1      18.397  -0.938  53.327  1.00  0.00     0.174 HD
HETATM   34  H16 UNL     1      18.876  -1.294  54.317  1.00  0.00     0.174 HD
ENDBRANCH   6  32
TORSDOF 7
ENDMDL
MODEL 4
REMARK VINA RESULT:      -8.9      3.469      6.787
REMARK  7 active torsions:
REMARK  status: ('A' for Active; 'I' for Inactive)
REMARK    1  A    between atoms: C7_7  and  C8_8 
REMARK    2  A    between atoms: C8_8  and  C9_10 
REMARK    3  A    between atoms: C9_10  and  C10_11 
REMARK    4  A    between atoms: C13_14  and  N1_15 
REMARK    5  A    between atoms: C14_17  and  N3_18 
REMARK    6  A    between atoms: N5_21  and  N6_22 
REMARK    7  A    between atoms: N6_22  and  C16_23 
ROOT
HETATM    1  C10 UNL     1      24.522   2.182  52.144  1.00  0.00     0.008 C 
HETATM    2  C11 UNL     1      23.400   2.475  51.517  1.00  0.00     0.057 C 
HETATM    3  C12 UNL     1      22.337   1.490  51.659  1.00  0.00     0.082 C 
HETATM    4  C13 UNL     1      21.336   1.108  50.859  1.00  0.00     0.142 C 
HETATM    5  N2  UNL     1      20.890   1.502  49.547  1.00  0.00    -0.046 NA
HETATM    6  C14 UNL     1      21.088   2.570  48.854  1.00  0.00     0.723 C 
HETATM    7  N4  UNL     1      21.770   3.810  48.974  1.00  0.00    -0.056 NA
HETATM    8  C15 UNL     1      22.700   4.274  49.740  1.00  0.00     0.252 C 
HETATM    9  N5  UNL     1      23.443   3.695  50.818  1.00  0.00    -0.249 N 
ENDROOT
BRANCH   1  10
HETATM   10  C9  UNL     1      25.032   1.074  52.996  1.00  0.00     0.071 C 
BRANCH  10  11
HETATM   11  C8  UNL     1      26.097   0.409  52.263  1.00  0.00     0.207 C 
HETATM   12  F1  UNL     1      26.322   1.172  51.104  1.00  0.00    -0.244 F 
BRANCH  11  13
HETATM   13  C7  UNL     1      27.381   0.084  52.802  1.00  0.00    -0.018 A 
HETATM   14  C2  UNL     1      27.805  -1.246  52.857  1.00  0.00    -0.053 A 
HETATM   15  C1  UNL     1      26.899  -2.298  52.349  1.00  0.00     0.049 C 
HETATM   16  C3  UNL     1      29.074  -1.473  53.398  1.00  0.00     0.007 A 
HETATM   17  C4  UNL     1      29.878  -0.475  53.855  1.00  0.00     0.001 A 
HETATM   18  C5  UNL     1      29.433   0.809  53.787  1.00  0.00     0.001 A 
HETATM   19  C6  UNL     1      28.211   1.116  53.274  1.00  0.00     0.010 A 
ENDBRANCH  11  13
ENDBRANCH  10  11
ENDBRANCH   1  10
BRANCH   9  20
HETATM   20  N6  UNL     1      24.447   4.558  51.276  1.00  0.00    -0.293 N 
HETATM   21  H18 UNL     1      24.511   4.804  52.271  1.00  0.00     0.187 HD
BRANCH  20  22
HETATM   22  C16 UNL     1      25.379   5.095  50.365  1.00  0.00     0.048 A 
HETATM   23  C17 UNL     1      25.477   6.436  50.071  1.00  0.00     0.032 A 
HETATM   24  C18 UNL     1      26.384   6.971  49.184  1.00  0.00     0.026 A 
HETATM   25  C19 UNL     1      27.258   6.144  48.534  1.00  0.00     0.034 A 
HETATM   26 CL1  UNL     1      28.436   6.758  47.392  1.00  0.00    -0.084 Cl
HETATM   27  C20 UNL     1      27.185   4.797  48.804  1.00  0.00     0.026 A 
HETATM   28  C21 UNL     1      26.272   4.288  49.695  1.00  0.00     0.032 A 
ENDBRANCH  20  22
ENDBRANCH   9  20
BRANCH   4  29
HETATM   29  N1  UNL     1      20.542   0.088  51.451  1.00  0.00    -0.383 N 
HETATM   30  H13 UNL     1      20.667  -0.502  52.283  1.00  0.00     0.157 HD
HETATM   31  H14 UNL     1      19.639  -0.410  51.308  1.00  0.00     0.157 HD
ENDBRANCH   4  29
BRANCH   6  32
HETATM   32  N3  UNL     1      20.438   2.505  47.592  1.00  0.00    -0.231 N 
HETATM   33  H15 UNL     1      19.428   2.400  47.362  1.00  0.00     0.174 HD
HETATM   34  H16 UNL     1      20.276   2.491  46.582  1.00  0.00     0.174 HD
ENDBRANCH   6  32
TORSDOF 7
ENDMDL
MODEL 5
REMARK VINA RESULT:      -8.8      3.529      7.295
REMARK  7 active torsions:
REMARK  status: ('A' for Active; 'I' for Inactive)
REMARK    1  A    between atoms: C7_7  and  C8_8 
REMARK    2  A    between atoms: C8_8  and  C9_10 
REMARK    3  A    between atoms: C9_10  and  C10_11 
REMARK    4  A    between atoms: C13_14  and  N1_15 
REMARK    5  A    between atoms: C14_17  and  N3_18 
REMARK    6  A    between atoms: N5_21  and  N6_22 
REMARK    7  A    between atoms: N6_22  and  C16_23 
ROOT
HETATM    1  C10 UNL     1      25.325   2.451  51.020  1.00  0.00     0.008 C 
HETATM    2  C11 UNL     1      24.622   3.474  50.577  1.00  0.00     0.057 C 
HETATM    3  C12 UNL     1      25.371   4.711  50.407  1.00  0.00     0.082 C 
HETATM    4  C13 UNL     1      25.035   6.002  50.506  1.00  0.00     0.142 C 
HETATM    5  N2  UNL     1      23.814   6.702  50.816  1.00  0.00    -0.046 NA
HETATM    6  C14 UNL     1      22.578   6.343  50.763  1.00  0.00     0.723 C 
HETATM    7  N4  UNL     1      21.811   5.199  50.414  1.00  0.00    -0.056 NA
HETATM    8  C15 UNL     1      22.063   3.944  50.248  1.00  0.00     0.252 C 
HETATM    9  N5  UNL     1      23.266   3.176  50.354  1.00  0.00    -0.249 N 
ENDROOT
BRANCH   1  10
HETATM   10  C9  UNL     1      26.737   2.192  51.413  1.00  0.00     0.071 C 
BRANCH  10  11
HETATM   11  C8  UNL     1      26.716   1.394  52.629  1.00  0.00     0.207 C 
HETATM   12  F1  UNL     1      25.369   1.297  53.020  1.00  0.00    -0.244 F 
BRANCH  11  13
HETATM   13  C7  UNL     1      27.281   0.087  52.759  1.00  0.00    -0.018 A 
HETATM   14  C2  UNL     1      28.535  -0.081  53.351  1.00  0.00    -0.053 A 
HETATM   15  C1  UNL     1      29.255   1.116  53.834  1.00  0.00     0.049 C 
HETATM   16  C3  UNL     1      29.011  -1.393  53.437  1.00  0.00     0.007 A 
HETATM   17  C4  UNL     1      28.315  -2.469  52.979  1.00  0.00     0.001 A 
HETATM   18  C5  UNL     1      27.097  -2.268  52.407  1.00  0.00     0.001 A 
HETATM   19  C6  UNL     1      26.562  -1.024  52.285  1.00  0.00     0.010 A 
ENDBRANCH  11  13
ENDBRANCH  10  11
ENDBRANCH   1  10
BRANCH   9  20
HETATM   20  N6  UNL     1      23.021   1.806  50.198  1.00  0.00    -0.293 N 
HETATM   21  H18 UNL     1      23.574   1.248  49.538  1.00  0.00     0.187 HD
BRANCH  20  22
HETATM   22  C16 UNL     1      22.005   1.185  50.955  1.00  0.00     0.048 A 
HETATM   23  C17 UNL     1      22.154   0.806  52.269  1.00  0.00     0.032 A 
HETATM   24  C18 UNL     1      21.169   0.199  53.017  1.00  0.00     0.026 A 
HETATM   25  C19 UNL     1      19.953  -0.058  52.447  1.00  0.00     0.034 A 
HETATM   26 CL1  UNL     1      18.658  -0.827  53.341  1.00  0.00    -0.084 Cl
HETATM   27  C20 UNL     1      19.773   0.309  51.133  1.00  0.00     0.026 A 
HETATM   28  C21 UNL     1      20.770   0.913  50.409  1.00  0.00     0.032 A 
ENDBRANCH  20  22
ENDBRANCH   9  20
BRANCH   4  29
HETATM   29  N1  UNL     1      26.137   6.860  50.243  1.00  0.00    -0.383 N 
HETATM   30  H13 UNL     1      26.783   6.946  49.449  1.00  0.00     0.157 HD
HETATM   31  H14 UNL     1      26.667   7.642  50.681  1.00  0.00     0.157 HD
ENDBRANCH   4  29
BRANCH   6  32
HETATM   32  N3  UNL     1      21.710   7.392  51.172  1.00  0.00    -0.231 N 
HETATM   33  H15 UNL     1      21.338   8.203  50.637  1.00  0.00     0.174 HD
HETATM   34  H16 UNL     1      21.100   7.980  51.746  1.00  0.00     0.174 HD
ENDBRANCH   6  32
TORSDOF 7
ENDMDL
MODEL 6
REMARK VINA RESULT:      -8.8      3.522      5.903
REMARK  7 active torsions:
REMARK  status: ('A' for Active; 'I' for Inactive)
REMARK    1  A    between atoms: C7_7  and  C8_8 
REMARK    2  A    between atoms: C8_8  and  C9_10 
REMARK    3  A    between atoms: C9_10  and  C10_11 
REMARK    4  A    between atoms: C13_14  and  N1_15 
REMARK    5  A    between atoms: C14_17  and  N3_18 
REMARK    6  A    between atoms: N5_21  and  N6_22 
REMARK    7  A    between atoms: N6_22  and  C16_23 
ROOT
HETATM    1  C10 UNL     1      23.735   3.019  51.088  1.00  0.00     0.008 C 
HETATM    2  C11 UNL     1      24.622   3.953  50.810  1.00  0.00     0.057 C 
HETATM    3  C12 UNL     1      24.263   5.295  51.245  1.00  0.00     0.082 C 
HETATM    4  C13 UNL     1      24.536   6.513  50.763  1.00  0.00     0.142 C 
HETATM    5  N2  UNL     1      25.286   7.003  49.635  1.00  0.00    -0.046 NA
HETATM    6  C14 UNL     1      26.215   6.470  48.920  1.00  0.00     0.723 C 
HETATM    7  N4  UNL     1      26.939   5.250  48.846  1.00  0.00    -0.056 NA
HETATM    8  C15 UNL     1      26.776   4.059  49.316  1.00  0.00     0.252 C 
HETATM    9  N5  UNL     1      25.759   3.472  50.134  1.00  0.00    -0.249 N 
ENDROOT
BRANCH   1  10
HETATM   10  C9  UNL     1      22.406   2.947  51.754  1.00  0.00     0.071 C 
BRANCH  10  11
HETATM   11  C8  UNL     1      21.899   1.596  51.580  1.00  0.00     0.207 C 
HETATM   12  F1  UNL     1      22.569   1.057  50.467  1.00  0.00    -0.244 F 
BRANCH  11  13
HETATM   13  C7  UNL     1      21.896   0.586  52.592  1.00  0.00    -0.018 A 
HETATM   14  C2  UNL     1      20.711  -0.076  52.923  1.00  0.00    -0.053 A 
HETATM   15  C1  UNL     1      19.473   0.292  52.205  1.00  0.00     0.049 C 
HETATM   16  C3  UNL     1      20.800  -1.049  53.923  1.00  0.00     0.007 A 
HETATM   17  C4  UNL     1      21.963  -1.357  54.560  1.00  0.00     0.001 A 
HETATM   18  C5  UNL     1      23.098  -0.692  54.213  1.00  0.00     0.001 A 
HETATM   19  C6  UNL     1      23.098   0.268  53.250  1.00  0.00     0.010 A 
ENDBRANCH  11  13
ENDBRANCH  10  11
ENDBRANCH   1  10
BRANCH   9  20
HETATM   20  N6  UNL     1      25.951   2.094  50.290  1.00  0.00    -0.293 N 
HETATM   21  H18 UNL     1      25.625   1.436  49.571  1.00  0.00     0.187 HD
BRANCH  20  22
HETATM   22  C16 UNL     1      26.596   1.602  51.443  1.00  0.00     0.048 A 
HETATM   23  C17 UNL     1      26.526   0.292  51.859  1.00  0.00     0.032 A 
HETATM   24  C18 UNL     1      27.152  -0.200  52.983  1.00  0.00     0.026 A 
HETATM   25  C19 UNL     1      27.901   0.641  53.759  1.00  0.00     0.034 A 
HETATM   26 CL1  UNL     1      28.723   0.082  55.200  1.00  0.00    -0.084 Cl
HETATM   27  C20 UNL     1      27.991   1.958  53.370  1.00  0.00     0.026 A 
HETATM   28  C21 UNL     1      27.357   2.423  52.244  1.00  0.00     0.032 A 
ENDBRANCH  20  22
ENDBRANCH   9  20
BRANCH   4  29
HETATM   29  N1  UNL     1      23.950   7.540  51.552  1.00  0.00    -0.383 N 
HETATM   30  H13 UNL     1      23.287   8.295  51.338  1.00  0.00     0.157 HD
HETATM   31  H14 UNL     1      23.951   7.899  52.530  1.00  0.00     0.157 HD
ENDBRANCH   4  29
BRANCH   6  32
HETATM   32  N3  UNL     1      26.660   7.350  47.896  1.00  0.00    -0.231 N 
HETATM   33  H15 UNL     1      27.000   8.332  47.956  1.00  0.00     0.174 HD
HETATM   34  H16 UNL     1      26.912   7.723  46.978  1.00  0.00     0.174 HD
ENDBRANCH   6  32
TORSDOF 7
ENDMDL
MODEL 7
REMARK VINA RESULT:      -8.8      3.873      7.865
REMARK  7 active torsions:
REMARK  status: ('A' for Active; 'I' for Inactive)
REMARK    1  A    between atoms: C7_7  and  C8_8 
REMARK    2  A    between atoms: C8_8  and  C9_10 
REMARK    3  A    between atoms: C9_10  and  C10_11 
REMARK    4  A    between atoms: C13_14  and  N1_15 
REMARK    5  A    between atoms: C14_17  and  N3_18 
REMARK    6  A    between atoms: N5_21  and  N6_22 
REMARK    7  A    between atoms: N6_22  and  C16_23 
ROOT
HETATM    1  C10 UNL     1      24.603   3.628  50.243  1.00  0.00     0.008 C 
HETATM    2  C11 UNL     1      23.960   2.599  50.758  1.00  0.00     0.057 C 
HETATM    3  C12 UNL     1      22.945   2.012  49.895  1.00  0.00     0.082 C 
HETATM    4  C13 UNL     1      21.787   1.389  50.142  1.00  0.00     0.142 C 
HETATM    5  N2  UNL     1      21.069   1.041  51.342  1.00  0.00    -0.046 NA
HETATM    6  C14 UNL     1      21.449   0.904  52.565  1.00  0.00     0.723 C 
HETATM    7  N4  UNL     1      22.642   1.004  53.331  1.00  0.00    -0.056 NA
HETATM    8  C15 UNL     1      23.804   1.534  53.150  1.00  0.00     0.252 C 
HETATM    9  N5  UNL     1      24.376   2.262  52.058  1.00  0.00    -0.249 N 
ENDROOT
BRANCH   1  10
HETATM   10  C9  UNL     1      24.584   4.394  48.968  1.00  0.00     0.071 C 
BRANCH  10  11
HETATM   11  C8  UNL     1      25.300   5.640  49.191  1.00  0.00     0.207 C 
HETATM   12  F1  UNL     1      25.388   5.806  50.585  1.00  0.00    -0.244 F 
BRANCH  11  13
HETATM   13  C7  UNL     1      26.588   5.951  48.654  1.00  0.00    -0.018 A 
HETATM   14  C2  UNL     1      26.812   7.182  48.032  1.00  0.00    -0.053 A 
HETATM   15  C1  UNL     1      25.692   8.143  47.944  1.00  0.00     0.049 C 
HETATM   16  C3  UNL     1      28.100   7.402  47.535  1.00  0.00     0.007 A 
HETATM   17  C4  UNL     1      29.104   6.488  47.637  1.00  0.00     0.001 A 
HETATM   18  C5  UNL     1      28.850   5.300  48.249  1.00  0.00     0.001 A 
HETATM   19  C6  UNL     1      27.624   5.007  48.759  1.00  0.00     0.010 A 
ENDBRANCH  11  13
ENDBRANCH  10  11
ENDBRANCH   1  10
BRANCH   9  20
HETATM   20  N6  UNL     1      25.651   2.750  52.373  1.00  0.00    -0.293 N 
HETATM   21  H18 UNL     1      25.845   3.758  52.350  1.00  0.00     0.187 HD
BRANCH  20  22
HETATM   22  C16 UNL     1      26.678   1.850  52.724  1.00  0.00     0.048 A 
HETATM   23  C17 UNL     1      27.788   2.205  53.457  1.00  0.00     0.032 A 
HETATM   24  C18 UNL     1      28.797   1.335  53.806  1.00  0.00     0.026 A 
HETATM   25  C19 UNL     1      28.724   0.027  53.416  1.00  0.00     0.034 A 
HETATM   26 CL1  UNL     1      29.972  -1.131  53.825  1.00  0.00    -0.084 Cl
HETATM   27  C20 UNL     1      27.626  -0.360  52.681  1.00  0.00     0.026 A 
HETATM   28  C21 UNL     1      26.633   0.527  52.346  1.00  0.00     0.032 A 
ENDBRANCH  20  22
ENDBRANCH   9  20
BRANCH   4  29
HETATM   29  N1  UNL     1      21.134   0.986  48.946  1.00  0.00    -0.383 N 
HETATM   30  H13 UNL     1      21.375   0.309  48.211  1.00  0.00     0.157 HD
HETATM   31  H14 UNL     1      20.269   1.180  48.400  1.00  0.00     0.157 HD
ENDBRANCH   4  29
BRANCH   6  32
HETATM   32  N3  UNL     1      20.367   0.546  53.414  1.00  0.00    -0.231 N 
HETATM   33  H15 UNL     1      19.470   0.066  53.192  1.00  0.00     0.174 HD
HETATM   34  H16 UNL     1      19.783   0.425  54.245  1.00  0.00     0.174 HD
ENDBRANCH   6  32
TORSDOF 7
ENDMDL
MODEL 8
REMARK VINA RESULT:      -8.7      3.065      6.635
REMARK  7 active torsions:
REMARK  status: ('A' for Active; 'I' for Inactive)
REMARK    1  A    between atoms: C7_7  and  C8_8 
REMARK    2  A    between atoms: C8_8  and  C9_10 
REMARK    3  A    between atoms: C9_10  and  C10_11 
REMARK    4  A    between atoms: C13_14  and  N1_15 
REMARK    5  A    between atoms: C14_17  and  N3_18 
REMARK    6  A    between atoms: N5_21  and  N6_22 
REMARK    7  A    between atoms: N6_22  and  C16_23 
ROOT
HETATM    1  C10 UNL     1      24.500   2.109  52.080  1.00  0.00     0.008 C 
HETATM    2  C11 UNL     1      23.259   2.341  52.460  1.00  0.00     0.057 C 
HETATM    3  C12 UNL     1      22.548   1.185  52.987  1.00  0.00     0.082 C 
HETATM    4  C13 UNL     1      21.259   0.827  52.980  1.00  0.00     0.142 C 
HETATM    5  N2  UNL     1      20.053   1.421  52.462  1.00  0.00    -0.046 NA
HETATM    6  C14 UNL     1      19.758   2.633  52.142  1.00  0.00     0.723 C 
HETATM    7  N4  UNL     1      20.375   3.913  52.120  1.00  0.00    -0.056 NA
HETATM    8  C15 UNL     1      21.590   4.344  52.173  1.00  0.00     0.252 C 
HETATM    9  N5  UNL     1      22.851   3.675  52.280  1.00  0.00    -0.249 N 
ENDROOT
BRANCH   1  10
HETATM   10  C9  UNL     1      25.422   0.942  52.036  1.00  0.00     0.071 C 
BRANCH  10  11
HETATM   11  C8  UNL     1      26.430   1.139  53.065  1.00  0.00     0.207 C 
HETATM   12  F1  UNL     1      25.756   1.092  54.299  1.00  0.00    -0.244 F 
BRANCH  11  13
HETATM   13  C7  UNL     1      27.616   0.352  53.210  1.00  0.00    -0.018 A 
HETATM   14  C2  UNL     1      28.828   0.962  53.542  1.00  0.00    -0.053 A 
HETATM   15  C1  UNL     1      28.852   2.427  53.738  1.00  0.00     0.049 C 
HETATM   16  C3  UNL     1      29.936   0.118  53.663  1.00  0.00     0.007 A 
HETATM   17  C4  UNL     1      29.871  -1.228  53.474  1.00  0.00     0.001 A 
HETATM   18  C5  UNL     1      28.674  -1.788  53.151  1.00  0.00     0.001 A 
HETATM   19  C6  UNL     1      27.547  -1.038  53.015  1.00  0.00     0.010 A 
ENDBRANCH  11  13
ENDBRANCH  10  11
ENDBRANCH   1  10
BRANCH   9  20
HETATM   20  N6  UNL     1      23.922   4.571  52.178  1.00  0.00    -0.293 N 
HETATM   21  H18 UNL     1      24.636   4.618  52.915  1.00  0.00     0.187 HD
BRANCH  20  22
HETATM   22  C16 UNL     1      24.025   5.416  51.054  1.00  0.00     0.048 A 
HETATM   23  C17 UNL     1      24.143   4.960  49.761  1.00  0.00     0.032 A 
HETATM   24  C18 UNL     1      24.244   5.776  48.657  1.00  0.00     0.026 A 
HETATM   25  C19 UNL     1      24.230   7.134  48.819  1.00  0.00     0.034 A 
HETATM   26 CL1  UNL     1      24.355   8.229  47.459  1.00  0.00    -0.084 Cl
HETATM   27  C20 UNL     1      24.114   7.623  50.101  1.00  0.00     0.026 A 
HETATM   28  C21 UNL     1      24.014   6.787  51.185  1.00  0.00     0.032 A 
ENDBRANCH  20  22
ENDBRANCH   9  20
BRANCH   4  29
HETATM   29  N1  UNL     1      21.050  -0.417  53.635  1.00  0.00    -0.383 N 
HETATM   30  H13 UNL     1      21.689  -1.105  54.053  1.00  0.00     0.157 HD
HETATM   31  H14 UNL     1      20.277  -1.053  53.921  1.00  0.00     0.157 HD
ENDBRANCH   4  29
BRANCH   6  32
HETATM   32  N3  UNL     1      18.423   2.740  51.668  1.00  0.00    -0.231 N 
HETATM   33  H15 UNL     1      18.044   3.226  50.829  1.00  0.00     0.174 HD
HETATM   34  H16 UNL     1      17.407   2.637  51.592  1.00  0.00     0.174 HD
ENDBRANCH   6  32
TORSDOF 7
ENDMDL
MODEL 9
REMARK VINA RESULT:      -8.6      3.485      7.029
REMARK  7 active torsions:
REMARK  status: ('A' for Active; 'I' for Inactive)
REMARK    1  A    between atoms: C7_7  and  C8_8 
REMARK    2  A    between atoms: C8_8  and  C9_10 
REMARK    3  A    between atoms: C9_10  and  C10_11 
REMARK    4  A    between atoms: C13_14  and  N1_15 
REMARK    5  A    between atoms: C14_17  and  N3_18 
REMARK    6  A    between atoms: N5_21  and  N6_22 
REMARK    7  A    between atoms: N6_22  and  C16_23 
ROOT
HETATM    1  C10 UNL     1      24.453   1.709  51.978  1.00  0.00     0.008 C 
HETATM    2  C11 UNL     1      24.127   2.869  51.444  1.00  0.00     0.057 C 
HETATM    3  C12 UNL     1      25.081   3.395  50.479  1.00  0.00     0.082 C 
HETATM    4  C13 UNL     1      25.433   4.637  50.129  1.00  0.00     0.142 C 
HETATM    5  N2  UNL     1      25.025   5.954  50.548  1.00  0.00    -0.046 NA
HETATM    6  C14 UNL     1      23.962   6.379  51.139  1.00  0.00     0.723 C 
HETATM    7  N4  UNL     1      22.741   5.859  51.647  1.00  0.00    -0.056 NA
HETATM    8  C15 UNL     1      22.306   4.685  51.960  1.00  0.00     0.252 C 
HETATM    9  N5  UNL     1      22.907   3.387  51.916  1.00  0.00    -0.249 N 
ENDROOT
BRANCH   1  10
HETATM   10  C9  UNL     1      25.576   0.739  51.866  1.00  0.00     0.071 C 
BRANCH  10  11
HETATM   11  C8  UNL     1      26.483   0.986  52.975  1.00  0.00     0.207 C 
HETATM   12  F1  UNL     1      25.720   0.867  54.150  1.00  0.00    -0.244 F 
BRANCH  11  13
HETATM   13  C7  UNL     1      27.707   0.282  53.203  1.00  0.00    -0.018 A 
HETATM   14  C2  UNL     1      28.864   0.981  53.558  1.00  0.00    -0.053 A 
HETATM   15  C1  UNL     1      28.789   2.451  53.691  1.00  0.00     0.049 C 
HETATM   16  C3  UNL     1      30.016   0.214  53.762  1.00  0.00     0.007 A 
HETATM   17  C4  UNL     1      30.041  -1.140  53.628  1.00  0.00     0.001 A 
HETATM   18  C5  UNL     1      28.897  -1.787  53.280  1.00  0.00     0.001 A 
HETATM   19  C6  UNL     1      27.733  -1.116  53.065  1.00  0.00     0.010 A 
ENDBRANCH  11  13
ENDBRANCH  10  11
ENDBRANCH   1  10
BRANCH   9  20
HETATM   20  N6  UNL     1      22.074   2.412  52.479  1.00  0.00    -0.293 N 
HETATM   21  H18 UNL     1      22.299   1.995  53.390  1.00  0.00     0.187 HD
BRANCH  20  22
HETATM   22  C16 UNL     1      20.916   1.997  51.791  1.00  0.00     0.048 A 
HETATM   23  C17 UNL     1      20.938   1.247  50.637  1.00  0.00     0.032 A 
HETATM   24  C18 UNL     1      19.813   0.837  49.957  1.00  0.00     0.026 A 
HETATM   25  C19 UNL     1      18.577   1.179  50.431  1.00  0.00     0.034 A 
HETATM   26 CL1  UNL     1      17.107   0.690  49.616  1.00  0.00    -0.084 Cl
HETATM   27  C20 UNL     1      18.520   1.929  51.583  1.00  0.00     0.026 A 
HETATM   28  C21 UNL     1      19.657   2.326  52.243  1.00  0.00     0.032 A 
ENDBRANCH  20  22
ENDBRANCH   9  20
BRANCH   4  29
HETATM   29  N1  UNL     1      26.431   4.641  49.117  1.00  0.00    -0.383 N 
HETATM   30  H13 UNL     1      27.457   4.589  49.145  1.00  0.00     0.157 HD
HETATM   31  H14 UNL     1      26.523   4.692  48.081  1.00  0.00     0.157 HD
ENDBRANCH   4  29
BRANCH   6  32
HETATM   32  N3  UNL     1      24.006   7.784  51.351  1.00  0.00    -0.231 N 
HETATM   33  H15 UNL     1      23.291   8.425  51.751  1.00  0.00     0.174 HD
HETATM   34  H16 UNL     1      24.335   8.753  51.376  1.00  0.00     0.174 HD
ENDBRANCH   6  32
TORSDOF 7
ENDMDL
