MODEL 1
REMARK VINA RESULT:      -7.9      0.000      0.000
REMARK  1 active torsions:
REMARK  status: ('A' for Active; 'I' for Inactive)
REMARK    1  A    between atoms: C2_2  and  N1_3 
ROOT
HETATM    1  N1  UNL     1      23.113   0.238  53.471  1.00  0.00    -0.400 N 
HETATM    2  C3  UNL     1      23.796  -0.872  54.276  1.00  0.00     0.128 A 
HETATM    3  C4  UNL     1      25.151  -0.574  53.459  1.00  0.00     0.065 A 
HETATM    4  C5  UNL     1      26.036   0.026  54.493  1.00  0.00     0.177 C 
HETATM    5  O1  UNL     1      27.362   0.094  53.958  1.00  0.00    -0.390 OA
HETATM    6  C6  UNL     1      27.168  -0.086  52.546  1.00  0.00     0.182 C 
HETATM    7  C7  UNL     1      25.749   0.423  52.353  1.00  0.00     0.038 A 
HETATM    8  C8  UNL     1      24.604   0.581  52.602  1.00  0.00     0.037 A 
HETATM    9  C9  UNL     1      24.243   1.676  51.727  1.00  0.00    -0.029 A 
HETATM   10  C10 UNL     1      24.136   2.749  50.767  1.00  0.00    -0.029 A 
HETATM   11  C11 UNL     1      23.172   2.474  49.804  1.00  0.00     0.015 A 
HETATM   12  C12 UNL     1      23.053   3.441  48.851  1.00  0.00     0.045 A 
HETATM   13  C13 UNL     1      23.816   4.556  48.881  1.00  0.00     0.138 A 
HETATM   14  F1  UNL     1      23.639   5.469  47.905  1.00  0.00    -0.204 F 
HETATM   15  C14 UNL     1      24.789   4.841  49.848  1.00  0.00     0.073 A 
HETATM   16 CL1  UNL     1      25.785   6.307  49.874  1.00  0.00    -0.081 Cl
HETATM   17  C15 UNL     1      24.918   3.891  50.794  1.00  0.00     0.038 A 
HETATM   18  C16 UNL     1      24.256   0.678  52.633  1.00  0.00     0.059 A 
ENDROOT
BRANCH   1  19
HETATM   19  C2  UNL     1      21.854   0.174  54.025  1.00  0.00     0.113 C 
HETATM   20  C1  UNL     1      21.600  -1.188  54.675  1.00  0.00     0.026 C 
ENDBRANCH   1  19
TORSDOF 1
ENDMDL
MODEL 2
REMARK VINA RESULT:      -7.8      2.294      3.648
REMARK  1 active torsions:
REMARK  status: ('A' for Active; 'I' for Inactive)
REMARK    1  A    between atoms: C2_2  and  N1_3 
ROOT
HETATM    1  N1  UNL     1      24.581  -0.389  53.740  1.00  0.00    -0.400 N 
HETATM    2  C3  UNL     1      23.954  -1.171  54.898  1.00  0.00     0.128 A 
HETATM    3  C4  UNL     1      22.539  -0.494  54.535  1.00  0.00     0.065 A 
HETATM    4  C5  UNL     1      21.751  -1.637  54.003  1.00  0.00     0.177 C 
HETATM    5  O1  UNL     1      20.386  -1.223  53.888  1.00  0.00    -0.390 OA
HETATM    6  C6  UNL     1      20.458   0.210  53.972  1.00  0.00     0.182 C 
HETATM    7  C7  UNL     1      21.862   0.487  53.460  1.00  0.00     0.038 A 
HETATM    8  C8  UNL     1      23.026   0.325  53.327  1.00  0.00     0.037 A 
HETATM    9  C9  UNL     1      23.326   1.151  52.177  1.00  0.00    -0.029 A 
HETATM   10  C10 UNL     1      23.366   2.041  51.041  1.00  0.00    -0.029 A 
HETATM   11  C11 UNL     1      24.242   3.099  51.255  1.00  0.00     0.015 A 
HETATM   12  C12 UNL     1      24.293   3.990  50.226  1.00  0.00     0.045 A 
HETATM   13  C13 UNL     1      23.550   3.819  49.110  1.00  0.00     0.138 A 
HETATM   14  F1  UNL     1      23.656   4.743  48.134  1.00  0.00    -0.204 F 
HETATM   15  C14 UNL     1      22.665   2.756  48.886  1.00  0.00     0.073 A 
HETATM   16 CL1  UNL     1      21.693   2.546  47.419  1.00  0.00    -0.081 Cl
HETATM   17  C15 UNL     1      22.604   1.870  49.898  1.00  0.00     0.038 A 
HETATM   18  C16 UNL     1      23.377   0.318  53.236  1.00  0.00     0.059 A 
ENDROOT
BRANCH   1  19
HETATM   19  C2  UNL     1      25.880  -0.828  53.851  1.00  0.00     0.113 C 
HETATM   20  C1  UNL     1      26.638  -0.664  52.531  1.00  0.00     0.026 C 
ENDBRANCH   1  19
TORSDOF 1
ENDMDL
MODEL 3
REMARK VINA RESULT:      -7.5      4.023      6.731
REMARK  1 active torsions:
REMARK  status: ('A' for Active; 'I' for Inactive)
REMARK    1  A    between atoms: C2_2  and  N1_3 
ROOT
HETATM    1  N1  UNL     1      24.120   4.452  49.867  1.00  0.00    -0.400 N 
HETATM    2  C3  UNL     1      23.480   4.947  48.566  1.00  0.00     0.128 A 
HETATM    3  C4  UNL     1      22.751   3.518  48.430  1.00  0.00     0.065 A 
HETATM    4  C5  UNL     1      21.321   3.853  48.666  1.00  0.00     0.177 C 
HETATM    5  O1  UNL     1      20.533   2.712  48.313  1.00  0.00    -0.390 OA
HETATM    6  C6  UNL     1      21.490   1.641  48.257  1.00  0.00     0.182 C 
HETATM    7  C7  UNL     1      22.567   2.129  49.213  1.00  0.00     0.038 A 
HETATM    8  C8  UNL     1      23.296   2.903  49.730  1.00  0.00     0.037 A 
HETATM    9  C9  UNL     1      23.721   2.187  50.913  1.00  0.00    -0.029 A 
HETATM   10  C10 UNL     1      23.997   1.271  51.996  1.00  0.00    -0.029 A 
HETATM   11  C11 UNL     1      25.355   0.989  52.089  1.00  0.00     0.015 A 
HETATM   12  C12 UNL     1      25.668   0.102  53.074  1.00  0.00     0.045 A 
HETATM   13  C13 UNL     1      24.715  -0.426  53.874  1.00  0.00     0.138 A 
HETATM   14  F1  UNL     1      25.103  -1.295  54.828  1.00  0.00    -0.204 F 
HETATM   15  C14 UNL     1      23.345  -0.147  53.787  1.00  0.00     0.073 A 
HETATM   16 CL1  UNL     1      22.105  -0.850  54.841  1.00  0.00    -0.081 Cl
HETATM   17  C15 UNL     1      23.023   0.727  52.815  1.00  0.00     0.038 A 
HETATM   18  C16 UNL     1      23.527   3.093  49.935  1.00  0.00     0.059 A 
ENDROOT
BRANCH   1  19
HETATM   19  C2  UNL     1      24.843   5.574  50.201  1.00  0.00     0.113 C 
HETATM   20  C1  UNL     1      26.073   5.733  49.303  1.00  0.00     0.026 C 
ENDBRANCH   1  19
TORSDOF 1
ENDMDL
MODEL 4
REMARK VINA RESULT:      -7.5      3.443      4.735
REMARK  1 active torsions:
REMARK  status: ('A' for Active; 'I' for Inactive)
REMARK    1  A    between atoms: C2_2  and  N1_3 
ROOT
HETATM    1  N1  UNL     1      25.892   2.185  51.369  1.00  0.00    -0.400 N 
HETATM    2  C3  UNL     1      27.199   1.618  51.933  1.00  0.00     0.128 A 
HETATM    3  C4  UNL     1      26.331   0.818  53.027  1.00  0.00     0.065 A 
HETATM    4  C5  UNL     1      26.489  -0.599  52.604  1.00  0.00     0.177 C 
HETATM    5  O1  UNL     1      25.981  -1.435  53.648  1.00  0.00    -0.390 OA
HETATM    6  C6  UNL     1      25.205  -0.536  54.457  1.00  0.00     0.182 C 
HETATM    7  C7  UNL     1      24.809   0.532  53.450  1.00  0.00     0.038 A 
HETATM    8  C8  UNL     1      24.945   1.284  52.548  1.00  0.00     0.037 A 
HETATM    9  C9  UNL     1      23.579   1.630  52.221  1.00  0.00    -0.029 A 
HETATM   10  C10 UNL     1      22.151   1.819  52.104  1.00  0.00    -0.029 A 
HETATM   11  C11 UNL     1      21.802   3.155  52.256  1.00  0.00     0.015 A 
HETATM   12  C12 UNL     1      20.461   3.386  52.188  1.00  0.00     0.045 A 
HETATM   13  C13 UNL     1      19.584   2.379  51.981  1.00  0.00     0.138 A 
HETATM   14  F1  UNL     1      18.272   2.687  51.924  1.00  0.00    -0.204 F 
HETATM   15  C14 UNL     1      19.928   1.030  51.827  1.00  0.00     0.073 A 
HETATM   16 CL1  UNL     1      18.765  -0.281  51.560  1.00  0.00    -0.081 Cl
HETATM   17  C15 UNL     1      21.250   0.789  51.894  1.00  0.00     0.038 A 
HETATM   18  C16 UNL     1      24.921   1.518  52.272  1.00  0.00     0.059 A 
ENDROOT
BRANCH   1  19
HETATM   19  C2  UNL     1      26.404   2.956  50.350  1.00  0.00     0.113 C 
HETATM   20  C1  UNL     1      25.295   3.714  49.615  1.00  0.00     0.026 C 
ENDBRANCH   1  19
TORSDOF 1
ENDMDL
MODEL 5
REMARK VINA RESULT:      -7.1      4.559      6.570
REMARK  1 active torsions:
REMARK  status: ('A' for Active; 'I' for Inactive)
REMARK    1  A    between atoms: C2_2  and  N1_3 
ROOT
HETATM    1  N1  UNL     1      18.737   1.002  51.758  1.00  0.00    -0.400 N 
HETATM    2  C3  UNL     1      18.021   2.224  51.174  1.00  0.00     0.128 A 
HETATM    3  C4  UNL     1      19.274   3.125  51.631  1.00  0.00     0.065 A 
HETATM    4  C5  UNL     1      19.898   3.505  50.336  1.00  0.00     0.177 C 
HETATM    5  O1  UNL     1      20.870   4.524  50.591  1.00  0.00    -0.390 OA
HETATM    6  C6  UNL     1      21.076   4.448  52.012  1.00  0.00     0.182 C 
HETATM    7  C7  UNL     1      20.725   2.998  52.305  1.00  0.00     0.038 A 
HETATM    8  C8  UNL     1      20.119   1.986  52.227  1.00  0.00     0.037 A 
HETATM    9  C9  UNL     1      21.028   1.032  52.825  1.00  0.00    -0.029 A 
HETATM   10  C10 UNL     1      22.092   0.294  53.464  1.00  0.00    -0.029 A 
HETATM   11  C11 UNL     1      21.647  -0.339  54.619  1.00  0.00     0.015 A 
HETATM   12  C12 UNL     1      22.621  -1.024  55.282  1.00  0.00     0.045 A 
HETATM   13  C13 UNL     1      23.890  -1.067  54.819  1.00  0.00     0.138 A 
HETATM   14  F1  UNL     1      24.797  -1.767  55.530  1.00  0.00    -0.204 F 
HETATM   15  C14 UNL     1      24.346  -0.432  53.657  1.00  0.00     0.073 A 
HETATM   16 CL1  UNL     1      26.015  -0.494  53.064  1.00  0.00    -0.081 Cl
HETATM   17  C15 UNL     1      23.393   0.250  52.994  1.00  0.00     0.038 A 
HETATM   18  C16 UNL     1      19.986   1.649  52.233  1.00  0.00     0.059 A 
ENDROOT
BRANCH   1  19
HETATM   19  C2  UNL     1      17.801   0.035  51.471  1.00  0.00     0.113 C 
HETATM   20  C1  UNL     1      17.724  -1.014  52.584  1.00  0.00     0.026 C 
ENDBRANCH   1  19
TORSDOF 1
ENDMDL
MODEL 6
REMARK VINA RESULT:      -7.1      1.781      2.378
REMARK  1 active torsions:
REMARK  status: ('A' for Active; 'I' for Inactive)
REMARK    1  A    between atoms: C2_2  and  N1_3 
ROOT
HETATM    1  N1  UNL     1      20.689  -0.507  53.171  1.00  0.00    -0.400 N 
HETATM    2  C3  UNL     1      20.995  -1.609  54.190  1.00  0.00     0.128 A 
HETATM    3  C4  UNL     1      22.562  -1.395  53.890  1.00  0.00     0.065 A 
HETATM    4  C5  UNL     1      23.061  -0.789  55.153  1.00  0.00     0.177 C 
HETATM    5  O1  UNL     1      24.492  -0.791  55.113  1.00  0.00    -0.390 OA
HETATM    6  C6  UNL     1      24.793  -1.020  53.726  1.00  0.00     0.182 C 
HETATM    7  C7  UNL     1      23.556  -0.466  53.038  1.00  0.00     0.038 A 
HETATM    8  C8  UNL     1      22.405  -0.255  52.869  1.00  0.00     0.037 A 
HETATM    9  C9  UNL     1      22.424   0.817  51.896  1.00  0.00    -0.029 A 
HETATM   10  C10 UNL     1      22.710   1.854  50.933  1.00  0.00    -0.029 A 
HETATM   11  C11 UNL     1      22.128   1.577  49.702  1.00  0.00     0.015 A 
HETATM   12  C12 UNL     1      22.395   2.510  48.744  1.00  0.00     0.045 A 
HETATM   13  C13 UNL     1      23.153   3.595  49.011  1.00  0.00     0.138 A 
HETATM   14  F1  UNL     1      23.371   4.474  48.012  1.00  0.00    -0.204 F 
HETATM   15  C14 UNL     1      23.742   3.881  50.249  1.00  0.00     0.073 A 
HETATM   16 CL1  UNL     1      24.738   5.309  50.585  1.00  0.00    -0.081 Cl
HETATM   17  C15 UNL     1      23.488   2.966  51.204  1.00  0.00     0.038 A 
HETATM   18  C16 UNL     1      22.072  -0.145  52.773  1.00  0.00     0.059 A 
ENDROOT
BRANCH   1  19
HETATM   19  C2  UNL     1      19.315  -0.502  53.253  1.00  0.00     0.113 C 
HETATM   20  C1  UNL     1      18.679  -0.139  51.908  1.00  0.00     0.026 C 
ENDBRANCH   1  19
TORSDOF 1
ENDMDL
MODEL 7
REMARK VINA RESULT:      -6.8      8.035     10.281
REMARK  1 active torsions:
REMARK  status: ('A' for Active; 'I' for Inactive)
REMARK    1  A    between atoms: C2_2  and  N1_3 
ROOT
HETATM    1  N1  UNL     1      28.559   5.720  48.306  1.00  0.00    -0.400 N 
HETATM    2  C3  UNL     1      27.686   6.950  48.572  1.00  0.00     0.128 A 
HETATM    3  C4  UNL     1      28.919   7.875  48.107  1.00  0.00     0.065 A 
HETATM    4  C5  UNL     1      28.440   8.441  46.817  1.00  0.00     0.177 C 
HETATM    5  O1  UNL     1      29.338   9.486  46.430  1.00  0.00    -0.390 OA
HETATM    6  C6  UNL     1      30.496   9.262  47.251  1.00  0.00     0.182 C 
HETATM    7  C7  UNL     1      30.409   7.768  47.520  1.00  0.00     0.038 A 
HETATM    8  C8  UNL     1      29.894   6.734  47.769  1.00  0.00     0.037 A 
HETATM    9  C9  UNL     1      30.922   5.780  47.410  1.00  0.00    -0.029 A 
HETATM   10  C10 UNL     1      32.095   5.046  46.998  1.00  0.00    -0.029 A 
HETATM   11  C11 UNL     1      32.588   4.257  48.030  1.00  0.00     0.015 A 
HETATM   12  C12 UNL     1      33.717   3.566  47.704  1.00  0.00     0.045 A 
HETATM   13  C13 UNL     1      34.270   3.661  46.475  1.00  0.00     0.138 A 
HETATM   14  F1  UNL     1      35.386   2.946  46.228  1.00  0.00    -0.204 F 
HETATM   15  C14 UNL     1      33.779   4.454  45.430  1.00  0.00     0.073 A 
HETATM   16 CL1  UNL     1      34.516   4.572  43.822  1.00  0.00    -0.081 Cl
HETATM   17  C15 UNL     1      32.664   5.143  45.740  1.00  0.00     0.038 A 
HETATM   18  C16 UNL     1      29.793   6.390  47.826  1.00  0.00     0.059 A 
ENDROOT
BRANCH   1  19
HETATM   19  C2  UNL     1      27.666   4.732  48.653  1.00  0.00     0.113 C 
HETATM   20  C1  UNL     1      26.309   5.321  49.046  1.00  0.00     0.026 C 
ENDBRANCH   1  19
TORSDOF 1
ENDMDL
MODEL 8
REMARK VINA RESULT:      -6.7      6.562      9.607
REMARK  1 active torsions:
REMARK  status: ('A' for Active; 'I' for Inactive)
REMARK    1  A    between atoms: C2_2  and  N1_3 
ROOT
HETATM    1  N1  UNL     1      31.054   7.142  47.503  1.00  0.00    -0.400 N 
HETATM    2  C3  UNL     1      31.685   7.979  46.385  1.00  0.00     0.128 A 
HETATM    3  C4  UNL     1      30.207   8.243  45.805  1.00  0.00     0.065 A 
HETATM    4  C5  UNL     1      29.996   9.689  46.078  1.00  0.00     0.177 C 
HETATM    5  O1  UNL     1      28.823  10.110  45.374  1.00  0.00    -0.390 OA
HETATM    6  C6  UNL     1      28.169   8.875  45.037  1.00  0.00     0.182 C 
HETATM    7  C7  UNL     1      28.664   7.945  46.132  1.00  0.00     0.038 A 
HETATM    8  C8  UNL     1      29.438   7.458  46.882  1.00  0.00     0.037 A 
HETATM    9  C9  UNL     1      28.575   6.764  47.813  1.00  0.00    -0.029 A 
HETATM   10  C10 UNL     1      27.515   6.156  48.584  1.00  0.00    -0.029 A 
HETATM   11  C11 UNL     1      27.654   4.775  48.637  1.00  0.00     0.015 A 
HETATM   12  C12 UNL     1      26.659   4.147  49.325  1.00  0.00     0.045 A 
HETATM   13  C13 UNL     1      25.652   4.842  49.896  1.00  0.00     0.138 A 
HETATM   14  F1  UNL     1      24.705   4.150  50.562  1.00  0.00    -0.204 F 
HETATM   15  C14 UNL     1      25.504   6.234  49.847  1.00  0.00     0.073 A 
HETATM   16 CL1  UNL     1      24.175   7.134  50.599  1.00  0.00    -0.081 Cl
HETATM   17  C15 UNL     1      26.480   6.867  49.168  1.00  0.00     0.038 A 
HETATM   18  C16 UNL     1      29.621   7.284  47.142  1.00  0.00     0.059 A 
ENDROOT
BRANCH   1  19
HETATM   19  C2  UNL     1      32.195   6.779  48.182  1.00  0.00     0.113 C 
HETATM   20  C1  UNL     1      31.864   5.931  49.413  1.00  0.00     0.026 C 
ENDBRANCH   1  19
TORSDOF 1
ENDMDL
MODEL 9
REMARK VINA RESULT:      -6.7      5.717      9.077
REMARK  1 active torsions:
REMARK  status: ('A' for Active; 'I' for Inactive)
REMARK    1  A    between atoms: C2_2  and  N1_3 
ROOT
HETATM    1  N1  UNL     1      29.311   7.873  48.185  1.00  0.00    -0.400 N 
HETATM    2  C3  UNL     1      29.510   9.020  47.189  1.00  0.00     0.128 A 
HETATM    3  C4  UNL     1      28.010   8.767  46.662  1.00  0.00     0.065 A 
HETATM    4  C5  UNL     1      27.284   9.976  47.134  1.00  0.00     0.177 C 
HETATM    5  O1  UNL     1      26.000   9.999  46.503  1.00  0.00    -0.390 OA
HETATM    6  C6  UNL     1      25.842   8.661  46.003  1.00  0.00     0.182 C 
HETATM    7  C7  UNL     1      26.717   7.863  46.957  1.00  0.00     0.038 A 
HETATM    8  C8  UNL     1      27.661   7.621  47.626  1.00  0.00     0.037 A 
HETATM    9  C9  UNL     1      27.183   6.538  48.459  1.00  0.00    -0.029 A 
HETATM   10  C10 UNL     1      26.480   5.480  49.147  1.00  0.00    -0.029 A 
HETATM   11  C11 UNL     1      27.135   4.262  49.008  1.00  0.00     0.015 A 
HETATM   12  C12 UNL     1      26.495   3.221  49.610  1.00  0.00     0.045 A 
HETATM   13  C13 UNL     1      25.335   3.400  50.280  1.00  0.00     0.138 A 
HETATM   14  F1  UNL     1      24.763   2.321  50.851  1.00  0.00    -0.204 F 
HETATM   15  C14 UNL     1      24.669   4.623  50.424  1.00  0.00     0.073 A 
HETATM   16 CL1  UNL     1      23.146   4.843  51.303  1.00  0.00    -0.081 Cl
HETATM   17  C15 UNL     1      25.290   5.661  49.831  1.00  0.00     0.038 A 
HETATM   18  C16 UNL     1      27.912   7.499  47.859  1.00  0.00     0.059 A 
ENDROOT
BRANCH   1  19
HETATM   19  C2  UNL     1      30.543   7.894  48.799  1.00  0.00     0.113 C 
HETATM   20  C1  UNL     1      30.864   9.282  49.358  1.00  0.00     0.026 C 
ENDBRANCH   1  19
TORSDOF 1
ENDMDL
