MODEL 1
REMARK VINA RESULT:      -7.6      0.000      0.000
REMARK  5 active torsions:
REMARK  status: ('A' for Active; 'I' for Inactive)
REMARK    1  A    between atoms: C2_3  and  C3_5 
REMARK    2  A    between atoms: C4_6  and  N1_7 
REMARK    3  A    between atoms: N1_7  and  C5_8 
REMARK    4  A    between atoms: C10_15  and  C11_16 
REMARK    5  A    between atoms: C11_16  and  N4_17 
ROOT
HETATM    1  C5  UNL     1      26.848   1.872  52.141  1.00  0.00     0.141 A 
HETATM    2  N2  UNL     1      28.027   2.432  52.461  1.00  0.00    -0.224 NA
HETATM    3  C6  UNL     1      28.625   2.166  53.660  1.00  0.00     0.236 A 
HETATM    4  N3  UNL     1      28.007   1.319  54.536  1.00  0.00    -0.241 NA
HETATM    5  C7  UNL     1      26.810   0.756  54.200  1.00  0.00     0.072 A 
HETATM    6  C8  UNL     1      26.187  -0.102  55.088  1.00  0.00     0.033 A 
HETATM    7  C9  UNL     1      24.976  -0.678  54.762  1.00  0.00     0.011 A 
HETATM    8  C10 UNL     1      24.361  -0.408  53.535  1.00  0.00    -0.038 A 
HETATM    9  C14 UNL     1      24.979   0.450  52.640  1.00  0.00     0.026 A 
HETATM   10  C15 UNL     1      26.189   1.011  52.993  1.00  0.00     0.039 A 
ENDROOT
BRANCH   1  11
HETATM   11  N1  UNL     1      26.337   2.223  50.883  1.00  0.00    -0.350 N 
HETATM   12  H4  UNL     1      25.935   1.653  50.107  1.00  0.00     0.166 HD
BRANCH  11  13
HETATM   13  C4  UNL     1      26.300   3.576  50.463  1.00  0.00     0.091 C 
HETATM   14  C3  UNL     1      26.894   3.888  49.311  1.00  0.00     0.043 C 
BRANCH  14  15
HETATM   15  C2  UNL     1      26.923   5.245  48.774  1.00  0.00     0.062 C 
HETATM   16  C1  UNL     1      25.914   6.099  48.678  1.00  0.00     0.212 C 
HETATM   17  F1  UNL     1      26.237   7.281  48.141  1.00  0.00    -0.218 F 
HETATM   18 CL1  UNL     1      28.425   5.923  48.155  1.00  0.00    -0.082 Cl
ENDBRANCH  14  15
ENDBRANCH  11  13
ENDBRANCH   1  11
BRANCH   8  19
HETATM   19  C11 UNL     1      23.057  -1.043  53.209  1.00  0.00     0.183 C 
BRANCH  19  20
HETATM   20  N4  UNL     1      21.976  -0.053  53.203  1.00  0.00    -0.297 N 
HETATM   21  C12 UNL     1      21.100   0.305  54.316  1.00  0.00     0.193 A 
HETATM   22  C13 UNL     1      20.580   1.210  53.236  1.00  0.00     0.132 A 
HETATM   23  N5  UNL     1      21.395   0.846  52.279  1.00  0.00    -0.192 NA
ENDBRANCH  19  20
ENDBRANCH   8  19
TORSDOF 5
ENDMDL
MODEL 2
REMARK VINA RESULT:      -7.5      4.353      5.886
REMARK  5 active torsions:
REMARK  status: ('A' for Active; 'I' for Inactive)
REMARK    1  A    between atoms: C2_3  and  C3_5 
REMARK    2  A    between atoms: C4_6  and  N1_7 
REMARK    3  A    between atoms: N1_7  and  C5_8 
REMARK    4  A    between atoms: C10_15  and  C11_16 
REMARK    5  A    between atoms: C11_16  and  N4_17 
ROOT
HETATM    1  C5  UNL     1      23.884  -0.278  53.740  1.00  0.00     0.141 A 
HETATM    2  N2  UNL     1      24.232  -0.979  54.832  1.00  0.00    -0.224 NA
HETATM    3  C6  UNL     1      23.288  -1.626  55.578  1.00  0.00     0.236 A 
HETATM    4  N3  UNL     1      21.978  -1.551  55.199  1.00  0.00    -0.241 NA
HETATM    5  C7  UNL     1      21.635  -0.837  54.088  1.00  0.00     0.072 A 
HETATM    6  C8  UNL     1      20.308  -0.764  53.707  1.00  0.00     0.033 A 
HETATM    7  C9  UNL     1      19.948  -0.044  52.585  1.00  0.00     0.011 A 
HETATM    8  C10 UNL     1      20.912   0.620  51.819  1.00  0.00    -0.038 A 
HETATM    9  C14 UNL     1      22.243   0.551  52.194  1.00  0.00     0.026 A 
HETATM   10  C15 UNL     1      22.574  -0.176  53.320  1.00  0.00     0.039 A 
ENDROOT
BRANCH   1  11
HETATM   11  N1  UNL     1      24.942   0.340  53.058  1.00  0.00    -0.350 N 
HETATM   12  H4  UNL     1      24.988   0.847  52.148  1.00  0.00     0.166 HD
BRANCH  11  13
HETATM   13  C4  UNL     1      26.251   0.351  53.602  1.00  0.00     0.091 C 
HETATM   14  C3  UNL     1      27.194  -0.349  52.972  1.00  0.00     0.043 C 
BRANCH  14  15
HETATM   15  C2  UNL     1      28.577  -0.415  53.434  1.00  0.00     0.062 C 
HETATM   16  C1  UNL     1      29.389  -1.462  53.411  1.00  0.00     0.212 C 
HETATM   17  F1  UNL     1      30.610  -1.228  53.904  1.00  0.00    -0.218 F 
HETATM   18 CL1  UNL     1      29.353   1.009  54.121  1.00  0.00    -0.082 Cl
ENDBRANCH  14  15
ENDBRANCH  11  13
ENDBRANCH   1  11
BRANCH   8  19
HETATM   19  C11 UNL     1      20.496   1.388  50.616  1.00  0.00     0.183 C 
BRANCH  19  20
HETATM   20  N4  UNL     1      19.518   2.423  50.963  1.00  0.00    -0.297 N 
HETATM   21  C12 UNL     1      18.247   2.696  50.298  1.00  0.00     0.193 A 
HETATM   22  C13 UNL     1      18.238   3.740  51.378  1.00  0.00     0.132 A 
HETATM   23  N5  UNL     1      19.386   3.446  51.932  1.00  0.00    -0.192 NA
ENDBRANCH  19  20
ENDBRANCH   8  19
TORSDOF 5
ENDMDL
MODEL 3
REMARK VINA RESULT:      -7.2      2.016      4.329
REMARK  5 active torsions:
REMARK  status: ('A' for Active; 'I' for Inactive)
REMARK    1  A    between atoms: C2_3  and  C3_5 
REMARK    2  A    between atoms: C4_6  and  N1_7 
REMARK    3  A    between atoms: N1_7  and  C5_8 
REMARK    4  A    between atoms: C10_15  and  C11_16 
REMARK    5  A    between atoms: C11_16  and  N4_17 
ROOT
HETATM    1  C5  UNL     1      24.022   2.345  50.804  1.00  0.00     0.141 A 
HETATM    2  N2  UNL     1      23.209   2.881  49.877  1.00  0.00    -0.224 NA
HETATM    3  C6  UNL     1      21.912   2.469  49.761  1.00  0.00     0.236 A 
HETATM    4  N3  UNL     1      21.447   1.499  50.603  1.00  0.00    -0.241 NA
HETATM    5  C7  UNL     1      22.280   0.962  51.541  1.00  0.00     0.072 A 
HETATM    6  C8  UNL     1      21.807  -0.019  52.393  1.00  0.00     0.033 A 
HETATM    7  C9  UNL     1      22.639  -0.571  53.345  1.00  0.00     0.011 A 
HETATM    8  C10 UNL     1      23.968  -0.152  53.467  1.00  0.00    -0.038 A 
HETATM    9  C14 UNL     1      24.450   0.831  52.618  1.00  0.00     0.026 A 
HETATM   10  C15 UNL     1      23.595   1.365  51.676  1.00  0.00     0.039 A 
ENDROOT
BRANCH   1  11
HETATM   11  N1  UNL     1      25.329   2.852  50.824  1.00  0.00    -0.350 N 
HETATM   12  H4  UNL     1      26.198   2.530  51.304  1.00  0.00     0.166 HD
BRANCH  11  13
HETATM   13  C4  UNL     1      25.669   4.018  50.094  1.00  0.00     0.091 C 
HETATM   14  C3  UNL     1      26.852   4.048  49.480  1.00  0.00     0.043 C 
BRANCH  14  15
HETATM   15  C2  UNL     1      27.313   5.191  48.699  1.00  0.00     0.062 C 
HETATM   16  C1  UNL     1      28.532   5.410  48.227  1.00  0.00     0.212 C 
HETATM   17  F1  UNL     1      28.665   6.550  47.541  1.00  0.00    -0.218 F 
HETATM   18 CL1  UNL     1      26.199   6.489  48.280  1.00  0.00    -0.082 Cl
ENDBRANCH  14  15
ENDBRANCH  11  13
ENDBRANCH   1  11
BRANCH   8  19
HETATM   19  C11 UNL     1      24.842  -0.763  54.502  1.00  0.00     0.183 C 
BRANCH  19  20
HETATM   20  N4  UNL     1      26.253  -0.694  54.109  1.00  0.00    -0.297 N 
HETATM   21  C12 UNL     1      27.264   0.233  54.609  1.00  0.00     0.193 A 
HETATM   22  C13 UNL     1      28.070  -0.574  53.631  1.00  0.00     0.132 A 
HETATM   23  N5  UNL     1      27.120  -1.376  53.224  1.00  0.00    -0.192 NA
ENDBRANCH  19  20
ENDBRANCH   8  19
TORSDOF 5
ENDMDL
MODEL 4
REMARK VINA RESULT:      -7.1      1.587      2.174
REMARK  5 active torsions:
REMARK  status: ('A' for Active; 'I' for Inactive)
REMARK    1  A    between atoms: C2_3  and  C3_5 
REMARK    2  A    between atoms: C4_6  and  N1_7 
REMARK    3  A    between atoms: N1_7  and  C5_8 
REMARK    4  A    between atoms: C10_15  and  C11_16 
REMARK    5  A    between atoms: C11_16  and  N4_17 
ROOT
HETATM    1  C5  UNL     1      25.096   0.788  52.429  1.00  0.00     0.141 A 
HETATM    2  N2  UNL     1      26.427   0.699  52.590  1.00  0.00    -0.224 NA
HETATM    3  C6  UNL     1      26.962  -0.034  53.612  1.00  0.00     0.236 A 
HETATM    4  N3  UNL     1      26.121  -0.679  54.474  1.00  0.00    -0.241 NA
HETATM    5  C7  UNL     1      24.771  -0.583  54.301  1.00  0.00     0.072 A 
HETATM    6  C8  UNL     1      23.923  -1.238  55.175  1.00  0.00     0.033 A 
HETATM    7  C9  UNL     1      22.555  -1.148  55.012  1.00  0.00     0.011 A 
HETATM    8  C10 UNL     1      22.005  -0.399  53.966  1.00  0.00    -0.038 A 
HETATM    9  C14 UNL     1      22.848   0.260  53.087  1.00  0.00     0.026 A 
HETATM   10  C15 UNL     1      24.210   0.152  53.275  1.00  0.00     0.039 A 
ENDROOT
BRANCH   1  11
HETATM   11  N1  UNL     1      24.671   1.568  51.344  1.00  0.00    -0.350 N 
HETATM   12  H4  UNL     1      23.991   1.387  50.575  1.00  0.00     0.166 HD
BRANCH  11  13
HETATM   13  C4  UNL     1      25.186   2.873  51.140  1.00  0.00     0.091 C 
HETATM   14  C3  UNL     1      25.603   3.195  49.915  1.00  0.00     0.043 C 
BRANCH  14  15
HETATM   15  C2  UNL     1      26.152   4.506  49.581  1.00  0.00     0.062 C 
HETATM   16  C1  UNL     1      25.655   5.694  49.893  1.00  0.00     0.212 C 
HETATM   17  F1  UNL     1      26.377   6.730  49.451  1.00  0.00    -0.218 F 
HETATM   18 CL1  UNL     1      27.646   4.634  48.658  1.00  0.00    -0.082 Cl
ENDBRANCH  14  15
ENDBRANCH  11  13
ENDBRANCH   1  11
BRANCH   8  19
HETATM   19  C11 UNL     1      20.528  -0.319  53.814  1.00  0.00     0.183 C 
BRANCH  19  20
HETATM   20  N4  UNL     1      20.144   0.826  52.984  1.00  0.00    -0.297 N 
HETATM   21  C12 UNL     1      19.474   0.790  51.687  1.00  0.00     0.193 A 
HETATM   22  C13 UNL     1      19.634   2.270  51.889  1.00  0.00     0.132 A 
HETATM   23  N5  UNL     1      20.233   2.235  53.052  1.00  0.00    -0.192 NA
ENDBRANCH  19  20
ENDBRANCH   8  19
TORSDOF 5
ENDMDL
MODEL 5
REMARK VINA RESULT:      -7.0      3.695      5.400
REMARK  5 active torsions:
REMARK  status: ('A' for Active; 'I' for Inactive)
REMARK    1  A    between atoms: C2_3  and  C3_5 
REMARK    2  A    between atoms: C4_6  and  N1_7 
REMARK    3  A    between atoms: N1_7  and  C5_8 
REMARK    4  A    between atoms: C10_15  and  C11_16 
REMARK    5  A    between atoms: C11_16  and  N4_17 
ROOT
HETATM    1  C5  UNL     1      25.063   2.732  51.705  1.00  0.00     0.141 A 
HETATM    2  N2  UNL     1      25.942   3.425  50.962  1.00  0.00    -0.224 NA
HETATM    3  C6  UNL     1      25.672   3.725  49.657  1.00  0.00     0.236 A 
HETATM    4  N3  UNL     1      24.490   3.311  49.113  1.00  0.00    -0.241 NA
HETATM    5  C7  UNL     1      23.603   2.609  49.876  1.00  0.00     0.072 A 
HETATM    6  C8  UNL     1      22.407   2.192  49.323  1.00  0.00     0.033 A 
HETATM    7  C9  UNL     1      21.501   1.480  50.084  1.00  0.00     0.011 A 
HETATM    8  C10 UNL     1      21.775   1.170  51.420  1.00  0.00    -0.038 A 
HETATM    9  C14 UNL     1      22.971   1.585  51.982  1.00  0.00     0.026 A 
HETATM   10  C15 UNL     1      23.857   2.294  51.197  1.00  0.00     0.039 A 
ENDROOT
BRANCH   1  11
HETATM   11  N1  UNL     1      25.454   2.486  53.029  1.00  0.00    -0.350 N 
HETATM   12  H4  UNL     1      25.122   2.869  53.940  1.00  0.00     0.166 HD
BRANCH  11  13
HETATM   13  C4  UNL     1      26.487   1.561  53.323  1.00  0.00     0.091 C 
HETATM   14  C3  UNL     1      26.452   0.374  52.716  1.00  0.00     0.043 C 
BRANCH  14  15
HETATM   15  C2  UNL     1      27.458  -0.661  52.936  1.00  0.00     0.062 C 
HETATM   16  C1  UNL     1      28.674  -0.513  53.442  1.00  0.00     0.212 C 
HETATM   17  F1  UNL     1      29.381  -1.645  53.528  1.00  0.00    -0.218 F 
HETATM   18 CL1  UNL     1      27.116  -2.336  52.515  1.00  0.00    -0.082 Cl
ENDBRANCH  14  15
ENDBRANCH  11  13
ENDBRANCH   1  11
BRANCH   8  19
HETATM   19  C11 UNL     1      20.782   0.402  52.216  1.00  0.00     0.183 C 
BRANCH  19  20
HETATM   20  N4  UNL     1      21.433  -0.333  53.304  1.00  0.00    -0.297 N 
HETATM   21  C12 UNL     1      21.281  -0.106  54.739  1.00  0.00     0.193 A 
HETATM   22  C13 UNL     1      22.250  -1.254  54.729  1.00  0.00     0.132 A 
HETATM   23  N5  UNL     1      22.343  -1.408  53.433  1.00  0.00    -0.192 NA
ENDBRANCH  19  20
ENDBRANCH   8  19
TORSDOF 5
ENDMDL
MODEL 6
REMARK VINA RESULT:      -7.0      2.276      4.498
REMARK  5 active torsions:
REMARK  status: ('A' for Active; 'I' for Inactive)
REMARK    1  A    between atoms: C2_3  and  C3_5 
REMARK    2  A    between atoms: C4_6  and  N1_7 
REMARK    3  A    between atoms: N1_7  and  C5_8 
REMARK    4  A    between atoms: C10_15  and  C11_16 
REMARK    5  A    between atoms: C11_16  and  N4_17 
ROOT
HETATM    1  C5  UNL     1      24.708   4.054  51.077  1.00  0.00     0.141 A 
HETATM    2  N2  UNL     1      23.687   4.928  51.068  1.00  0.00    -0.224 NA
HETATM    3  C6  UNL     1      22.491   4.614  51.649  1.00  0.00     0.236 A 
HETATM    4  N3  UNL     1      22.344   3.392  52.243  1.00  0.00    -0.241 NA
HETATM    5  C7  UNL     1      23.386   2.512  52.247  1.00  0.00     0.072 A 
HETATM    6  C8  UNL     1      23.234   1.277  52.850  1.00  0.00     0.033 A 
HETATM    7  C9  UNL     1      24.281   0.377  52.861  1.00  0.00     0.011 A 
HETATM    8  C10 UNL     1      25.507   0.696  52.267  1.00  0.00    -0.038 A 
HETATM    9  C14 UNL     1      25.667   1.931  51.662  1.00  0.00     0.026 A 
HETATM   10  C15 UNL     1      24.604   2.810  51.666  1.00  0.00     0.039 A 
ENDROOT
BRANCH   1  11
HETATM   11  N1  UNL     1      25.883   4.493  50.450  1.00  0.00    -0.350 N 
HETATM   12  H4  UNL     1      26.869   4.158  50.499  1.00  0.00     0.166 HD
BRANCH  11  13
HETATM   13  C4  UNL     1      25.862   5.590  49.553  1.00  0.00     0.091 C 
HETATM   14  C3  UNL     1      26.963   5.834  48.841  1.00  0.00     0.043 C 
BRANCH  14  15
HETATM   15  C2  UNL     1      27.063   6.933  47.886  1.00  0.00     0.062 C 
HETATM   16  C1  UNL     1      28.166   7.472  47.385  1.00  0.00     0.212 C 
HETATM   17  F1  UNL     1      27.952   8.473  46.524  1.00  0.00    -0.218 F 
HETATM   18 CL1  UNL     1      25.608   7.703  47.262  1.00  0.00    -0.082 Cl
ENDBRANCH  14  15
ENDBRANCH  11  13
ENDBRANCH   1  11
BRANCH   8  19
HETATM   19  C11 UNL     1      26.617  -0.292  52.294  1.00  0.00     0.183 C 
BRANCH  19  20
HETATM   20  N4  UNL     1      27.509  -0.053  53.432  1.00  0.00    -0.297 N 
HETATM   21  C12 UNL     1      28.816  -0.659  53.672  1.00  0.00     0.193 A 
HETATM   22  C13 UNL     1      28.682   0.227  54.878  1.00  0.00     0.132 A 
HETATM   23  N5  UNL     1      27.507   0.735  54.607  1.00  0.00    -0.192 NA
ENDBRANCH  19  20
ENDBRANCH   8  19
TORSDOF 5
ENDMDL
MODEL 7
REMARK VINA RESULT:      -6.9      3.962      6.420
REMARK  5 active torsions:
REMARK  status: ('A' for Active; 'I' for Inactive)
REMARK    1  A    between atoms: C2_3  and  C3_5 
REMARK    2  A    between atoms: C4_6  and  N1_7 
REMARK    3  A    between atoms: N1_7  and  C5_8 
REMARK    4  A    between atoms: C10_15  and  C11_16 
REMARK    5  A    between atoms: C11_16  and  N4_17 
ROOT
HETATM    1  C5  UNL     1      23.563  -0.276  53.277  1.00  0.00     0.141 A 
HETATM    2  N2  UNL     1      23.250  -1.070  54.315  1.00  0.00    -0.224 NA
HETATM    3  C6  UNL     1      22.052  -0.941  54.959  1.00  0.00     0.236 A 
HETATM    4  N3  UNL     1      21.169   0.010  54.532  1.00  0.00    -0.241 NA
HETATM    5  C7  UNL     1      21.496   0.811  53.477  1.00  0.00     0.072 A 
HETATM    6  C8  UNL     1      20.601   1.773  53.047  1.00  0.00     0.033 A 
HETATM    7  C9  UNL     1      20.919   2.590  51.981  1.00  0.00     0.011 A 
HETATM    8  C10 UNL     1      22.146   2.461  51.320  1.00  0.00    -0.038 A 
HETATM    9  C14 UNL     1      23.048   1.499  51.745  1.00  0.00     0.026 A 
HETATM   10  C15 UNL     1      22.702   0.697  52.812  1.00  0.00     0.039 A 
ENDROOT
BRANCH   1  11
HETATM   11  N1  UNL     1      24.820  -0.505  52.701  1.00  0.00    -0.350 N 
HETATM   12  H4  UNL     1      25.110  -0.765  51.733  1.00  0.00     0.166 HD
BRANCH  11  13
HETATM   13  C4  UNL     1      26.005  -0.393  53.470  1.00  0.00     0.091 C 
HETATM   14  C3  UNL     1      27.136  -0.867  52.946  1.00  0.00     0.043 C 
BRANCH  14  15
HETATM   15  C2  UNL     1      28.419  -0.809  53.641  1.00  0.00     0.062 C 
HETATM   16  C1  UNL     1      29.499  -1.540  53.408  1.00  0.00     0.212 C 
HETATM   17  F1  UNL     1      30.536  -1.267  54.207  1.00  0.00    -0.218 F 
HETATM   18 CL1  UNL     1      28.664   0.334  54.959  1.00  0.00    -0.082 Cl
ENDBRANCH  14  15
ENDBRANCH  11  13
ENDBRANCH   1  11
BRANCH   8  19
HETATM   19  C11 UNL     1      22.463   3.354  50.175  1.00  0.00     0.183 C 
BRANCH  19  20
HETATM   20  N4  UNL     1      23.051   4.614  50.637  1.00  0.00    -0.297 N 
HETATM   21  C12 UNL     1      24.399   5.110  50.369  1.00  0.00     0.193 A 
HETATM   22  C13 UNL     1      23.843   6.224  51.209  1.00  0.00     0.132 A 
HETATM   23  N5  UNL     1      22.650   5.727  51.412  1.00  0.00    -0.192 NA
ENDBRANCH  19  20
ENDBRANCH   8  19
TORSDOF 5
ENDMDL
MODEL 8
REMARK VINA RESULT:      -6.8      4.063      8.730
REMARK  5 active torsions:
REMARK  status: ('A' for Active; 'I' for Inactive)
REMARK    1  A    between atoms: C2_3  and  C3_5 
REMARK    2  A    between atoms: C4_6  and  N1_7 
REMARK    3  A    between atoms: N1_7  and  C5_8 
REMARK    4  A    between atoms: C10_15  and  C11_16 
REMARK    5  A    between atoms: C11_16  and  N4_17 
ROOT
HETATM    1  C5  UNL     1      26.052   4.637  49.673  1.00  0.00     0.141 A 
HETATM    2  N2  UNL     1      24.764   4.629  50.058  1.00  0.00    -0.224 NA
HETATM    3  C6  UNL     1      23.917   5.635  49.689  1.00  0.00     0.236 A 
HETATM    4  N3  UNL     1      24.398   6.656  48.919  1.00  0.00    -0.241 NA
HETATM    5  C7  UNL     1      25.706   6.655  48.533  1.00  0.00     0.072 A 
HETATM    6  C8  UNL     1      26.190   7.690  47.754  1.00  0.00     0.033 A 
HETATM    7  C9  UNL     1      27.512   7.700  47.357  1.00  0.00     0.011 A 
HETATM    8  C10 UNL     1      28.382   6.671  47.733  1.00  0.00    -0.038 A 
HETATM    9  C14 UNL     1      27.905   5.631  48.514  1.00  0.00     0.026 A 
HETATM   10  C15 UNL     1      26.579   5.647  48.895  1.00  0.00     0.039 A 
ENDROOT
BRANCH   1  11
HETATM   11  N1  UNL     1      26.819   3.549  50.115  1.00  0.00    -0.350 N 
HETATM   12  H4  UNL     1      27.815   3.283  49.952  1.00  0.00     0.166 HD
BRANCH  11  13
HETATM   13  C4  UNL     1      26.255   2.551  50.948  1.00  0.00     0.091 C 
HETATM   14  C3  UNL     1      27.052   1.956  51.836  1.00  0.00     0.043 C 
BRANCH  14  15
HETATM   15  C2  UNL     1      26.588   0.915  52.748  1.00  0.00     0.062 C 
HETATM   16  C1  UNL     1      26.053   1.072  53.950  1.00  0.00     0.212 C 
HETATM   17  F1  UNL     1      25.719  -0.069  54.562  1.00  0.00    -0.218 F 
HETATM   18 CL1  UNL     1      26.706  -0.782  52.292  1.00  0.00    -0.082 Cl
ENDBRANCH  14  15
ENDBRANCH  11  13
ENDBRANCH   1  11
BRANCH   8  19
HETATM   19  C11 UNL     1      29.801   6.708  47.292  1.00  0.00     0.183 C 
BRANCH  19  20
HETATM   20  N4  UNL     1      30.706   6.401  48.403  1.00  0.00    -0.297 N 
HETATM   21  C12 UNL     1      31.291   7.344  49.352  1.00  0.00     0.193 A 
HETATM   22  C13 UNL     1      31.870   6.047  49.840  1.00  0.00     0.132 A 
HETATM   23  N5  UNL     1      31.315   5.253  48.961  1.00  0.00    -0.192 NA
ENDBRANCH  19  20
ENDBRANCH   8  19
TORSDOF 5
ENDMDL
MODEL 9
REMARK VINA RESULT:      -6.7      2.763      5.192
REMARK  5 active torsions:
REMARK  status: ('A' for Active; 'I' for Inactive)
REMARK    1  A    between atoms: C2_3  and  C3_5 
REMARK    2  A    between atoms: C4_6  and  N1_7 
REMARK    3  A    between atoms: N1_7  and  C5_8 
REMARK    4  A    between atoms: C10_15  and  C11_16 
REMARK    5  A    between atoms: C11_16  and  N4_17 
ROOT
HETATM    1  C5  UNL     1      23.195   1.211  51.760  1.00  0.00     0.141 A 
HETATM    2  N2  UNL     1      21.932   0.903  51.422  1.00  0.00    -0.224 NA
HETATM    3  C6  UNL     1      21.232  -0.043  52.116  1.00  0.00     0.236 A 
HETATM    4  N3  UNL     1      21.836  -0.676  53.165  1.00  0.00    -0.241 NA
HETATM    5  C7  UNL     1      23.118  -0.355  53.502  1.00  0.00     0.072 A 
HETATM    6  C8  UNL     1      23.726  -0.996  54.565  1.00  0.00     0.033 A 
HETATM    7  C9  UNL     1      25.024  -0.681  54.915  1.00  0.00     0.011 A 
HETATM    8  C10 UNL     1      25.743   0.287  54.206  1.00  0.00    -0.038 A 
HETATM    9  C14 UNL     1      25.141   0.934  53.140  1.00  0.00     0.026 A 
HETATM   10  C15 UNL     1      23.843   0.599  52.813  1.00  0.00     0.039 A 
ENDROOT
BRANCH   1  11
HETATM   11  N1  UNL     1      23.806   2.198  50.973  1.00  0.00    -0.350 N 
HETATM   12  H4  UNL     1      24.716   2.223  50.464  1.00  0.00     0.166 HD
BRANCH  11  13
HETATM   13  C4  UNL     1      23.171   3.444  50.744  1.00  0.00     0.091 C 
HETATM   14  C3  UNL     1      23.610   4.502  51.425  1.00  0.00     0.043 C 
BRANCH  14  15
HETATM   15  C2  UNL     1      23.037   5.837  51.276  1.00  0.00     0.062 C 
HETATM   16  C1  UNL     1      21.754   6.167  51.241  1.00  0.00     0.212 C 
HETATM   17  F1  UNL     1      21.523   7.476  51.095  1.00  0.00    -0.218 F 
HETATM   18 CL1  UNL     1      24.087   7.241  51.118  1.00  0.00    -0.082 Cl
ENDBRANCH  14  15
ENDBRANCH  11  13
ENDBRANCH   1  11
BRANCH   8  19
HETATM   19  C11 UNL     1      27.139   0.607  54.605  1.00  0.00     0.183 C 
BRANCH  19  20
HETATM   20  N4  UNL     1      28.087  -0.343  54.015  1.00  0.00    -0.297 N 
HETATM   21  C12 UNL     1      27.825  -1.302  52.946  1.00  0.00     0.193 A 
HETATM   22  C13 UNL     1      29.274  -1.576  53.231  1.00  0.00     0.132 A 
HETATM   23  N5  UNL     1      29.446  -0.696  54.184  1.00  0.00    -0.192 NA
ENDBRANCH  19  20
ENDBRANCH   8  19
TORSDOF 5
ENDMDL
