MODEL 1
REMARK VINA RESULT:      -7.2      0.000      0.000
REMARK  12 active torsions:
REMARK  status: ('A' for Active; 'I' for Inactive)
REMARK    1  A    between atoms: C2_2  and  C3_3 
REMARK    2  A    between atoms: C3_3  and  N1_4 
REMARK    3  A    between atoms: N1_4  and  C4_5 
REMARK    4  A    between atoms: N1_4  and  C6_7 
REMARK    5  A    between atoms: C6_7  and  C7_8 
REMARK    6  A    between atoms: C7_8  and  C8_9 
REMARK    7  A    between atoms: C8_9  and  C9_10 
REMARK       I    between atoms: C9_10  and  N2_12 
REMARK    8  A    between atoms: N2_12  and  C10_13 
REMARK    9  A    between atoms: C15_20  and  N5_21 
REMARK   10  A    between atoms: N5_21  and  C16_22 
REMARK   11  A    between atoms: C17_23  and  C18_24 
REMARK   12  A    between atoms: C18_24  and  C19_25 
ROOT
HETATM    1  C10 UNL     1      23.989   0.272  53.437  1.00  0.00     0.035 A 
HETATM    2  C11 UNL     1      24.561  -0.574  54.356  1.00  0.00     0.032 A 
HETATM    3  C12 UNL     1      25.883  -0.580  54.717  1.00  0.00     0.035 A 
HETATM    4  C13 UNL     1      26.756   0.315  54.142  1.00  0.00     0.072 A 
HETATM    5  N3  UNL     1      28.060   0.385  54.430  1.00  0.00    -0.241 NA
HETATM    6  C14 UNL     1      28.847   1.302  53.813  1.00  0.00     0.236 A 
HETATM    7  N4  UNL     1      28.365   2.164  52.902  1.00  0.00    -0.224 NA
HETATM    8  C15 UNL     1      27.057   2.104  52.605  1.00  0.00     0.141 A 
HETATM    9  C20 UNL     1      26.215   1.188  53.206  1.00  0.00     0.041 A 
HETATM   10  C21 UNL     1      24.882   1.159  52.875  1.00  0.00     0.047 A 
ENDROOT
BRANCH   1  11
HETATM   11  N2  UNL     1      22.633   0.312  53.045  1.00  0.00    -0.327 N 
HETATM   12  C9  UNL     1      21.464  -0.006  53.782  1.00  0.00     0.222 C 
HETATM   13  O1  UNL     1      21.641  -0.382  54.963  1.00  0.00    -0.273 OA
HETATM   14  H19 UNL     1      22.445   0.624  52.051  1.00  0.00     0.169 HD
BRANCH  12  15
HETATM   15  C8  UNL     1      20.156   0.118  53.141  1.00  0.00     0.105 C 
BRANCH  15  16
HETATM   16  C7  UNL     1      20.250   0.244  51.649  1.00  0.00     0.039 C 
BRANCH  16  17
HETATM   17  C6  UNL     1      19.759   1.594  51.215  1.00  0.00     0.273 C 
BRANCH  17  18
HETATM   18  N1  UNL     1      20.834   2.348  50.619  1.00  0.00     0.088 N 
BRANCH  18  19
HETATM   19  C3  UNL     1      21.779   1.552  49.940  1.00  0.00     0.272 C 
BRANCH  19  20
HETATM   20  C2  UNL     1      21.529   1.394  48.460  1.00  0.00     0.026 C 
HETATM   21  C1  UNL     1      22.486   2.190  47.619  1.00  0.00     0.007 C 
ENDBRANCH  19  20
ENDBRANCH  18  19
BRANCH  18  22
HETATM   22  C4  UNL     1      21.399   3.303  51.542  1.00  0.00     0.268 C 
HETATM   23  C5  UNL     1      22.771   3.710  51.059  1.00  0.00     0.037 C 
ENDBRANCH  18  22
ENDBRANCH  17  18
ENDBRANCH  16  17
ENDBRANCH  15  16
ENDBRANCH  12  15
ENDBRANCH   1  11
BRANCH   8  24
HETATM   24  N5  UNL     1      26.585   3.044  51.631  1.00  0.00    -0.350 N 
HETATM   25  H23 UNL     1      26.252   3.822  52.232  1.00  0.00     0.166 HD
BRANCH  24  26
HETATM   26  C16 UNL     1      26.547   3.001  50.212  1.00  0.00     0.085 C 
HETATM   27  C17 UNL     1      26.357   3.926  49.305  1.00  0.00    -0.009 C 
BRANCH  27  28
HETATM   28  C18 UNL     1      26.109   5.377  49.408  1.00  0.00     0.043 C 
BRANCH  28  29
HETATM   29  C19 UNL     1      27.058   6.165  48.523  1.00  0.00     0.118 C 
HETATM   30 CL1  UNL     1      28.612   5.358  48.303  1.00  0.00    -0.130 Cl
ENDBRANCH  28  29
ENDBRANCH  27  28
ENDBRANCH  24  26
ENDBRANCH   8  24
TORSDOF 12
ENDMDL
MODEL 2
REMARK VINA RESULT:      -7.1      0.598      1.639
REMARK  12 active torsions:
REMARK  status: ('A' for Active; 'I' for Inactive)
REMARK    1  A    between atoms: C2_2  and  C3_3 
REMARK    2  A    between atoms: C3_3  and  N1_4 
REMARK    3  A    between atoms: N1_4  and  C4_5 
REMARK    4  A    between atoms: N1_4  and  C6_7 
REMARK    5  A    between atoms: C6_7  and  C7_8 
REMARK    6  A    between atoms: C7_8  and  C8_9 
REMARK    7  A    between atoms: C8_9  and  C9_10 
REMARK       I    between atoms: C9_10  and  N2_12 
REMARK    8  A    between atoms: N2_12  and  C10_13 
REMARK    9  A    between atoms: C15_20  and  N5_21 
REMARK   10  A    between atoms: N5_21  and  C16_22 
REMARK   11  A    between atoms: C17_23  and  C18_24 
REMARK   12  A    between atoms: C18_24  and  C19_25 
ROOT
HETATM    1  C10 UNL     1      24.028   0.146  53.223  1.00  0.00     0.035 A 
HETATM    2  C11 UNL     1      24.560  -0.653  54.205  1.00  0.00     0.032 A 
HETATM    3  C12 UNL     1      25.830  -0.555  54.711  1.00  0.00     0.035 A 
HETATM    4  C13 UNL     1      26.687   0.408  54.230  1.00  0.00     0.072 A 
HETATM    5  N3  UNL     1      27.941   0.581  54.662  1.00  0.00    -0.241 NA
HETATM    6  C14 UNL     1      28.716   1.559  54.129  1.00  0.00     0.236 A 
HETATM    7  N4  UNL     1      28.271   2.383  53.166  1.00  0.00    -0.224 NA
HETATM    8  C15 UNL     1      27.014   2.219  52.726  1.00  0.00     0.141 A 
HETATM    9  C20 UNL     1      26.186   1.238  53.235  1.00  0.00     0.041 A 
HETATM   10  C21 UNL     1      24.904   1.103  52.758  1.00  0.00     0.047 A 
ENDROOT
BRANCH   1  11
HETATM   11  N2  UNL     1      22.724   0.080  52.683  1.00  0.00    -0.327 N 
HETATM   12  C9  UNL     1      21.467   0.216  53.324  1.00  0.00     0.222 C 
HETATM   13  O1  UNL     1      21.496   0.428  54.558  1.00  0.00    -0.273 OA
HETATM   14  H19 UNL     1      22.661  -0.101  51.642  1.00  0.00     0.169 HD
BRANCH  12  15
HETATM   15  C8  UNL     1      20.243   0.102  52.533  1.00  0.00     0.105 C 
BRANCH  15  16
HETATM   16  C7  UNL     1      20.487   0.251  51.061  1.00  0.00     0.039 C 
BRANCH  16  17
HETATM   17  C6  UNL     1      20.700   1.697  50.717  1.00  0.00     0.273 C 
BRANCH  17  18
HETATM   18  N1  UNL     1      21.928   1.858  49.979  1.00  0.00     0.088 N 
BRANCH  18  19
HETATM   19  C3  UNL     1      22.652   3.016  50.325  1.00  0.00     0.272 C 
BRANCH  19  20
HETATM   20  C2  UNL     1      22.290   3.615  51.662  1.00  0.00     0.026 C 
HETATM   21  C1  UNL     1      23.375   4.490  52.223  1.00  0.00     0.007 C 
ENDBRANCH  19  20
ENDBRANCH  18  19
BRANCH  18  22
HETATM   22  C4  UNL     1      21.733   1.668  48.561  1.00  0.00     0.268 C 
HETATM   23  C5  UNL     1      22.620   2.627  47.803  1.00  0.00     0.037 C 
ENDBRANCH  18  22
ENDBRANCH  17  18
ENDBRANCH  16  17
ENDBRANCH  15  16
ENDBRANCH  12  15
ENDBRANCH   1  11
BRANCH   8  24
HETATM   24  N5  UNL     1      26.580   3.121  51.699  1.00  0.00    -0.350 N 
HETATM   25  H23 UNL     1      26.255   3.935  52.256  1.00  0.00     0.166 HD
BRANCH  24  26
HETATM   26  C16 UNL     1      26.563   3.010  50.283  1.00  0.00     0.085 C 
HETATM   27  C17 UNL     1      26.368   3.886  49.330  1.00  0.00    -0.009 C 
BRANCH  27  28
HETATM   28  C18 UNL     1      26.088   5.334  49.360  1.00  0.00     0.043 C 
BRANCH  28  29
HETATM   29  C19 UNL     1      27.023   6.098  48.439  1.00  0.00     0.118 C 
HETATM   30 CL1  UNL     1      28.626   5.368  48.339  1.00  0.00    -0.130 Cl
ENDBRANCH  28  29
ENDBRANCH  27  28
ENDBRANCH  24  26
ENDBRANCH   8  24
TORSDOF 12
ENDMDL
MODEL 3
REMARK VINA RESULT:      -6.8      2.669      5.094
REMARK  12 active torsions:
REMARK  status: ('A' for Active; 'I' for Inactive)
REMARK    1  A    between atoms: C2_2  and  C3_3 
REMARK    2  A    between atoms: C3_3  and  N1_4 
REMARK    3  A    between atoms: N1_4  and  C4_5 
REMARK    4  A    between atoms: N1_4  and  C6_7 
REMARK    5  A    between atoms: C6_7  and  C7_8 
REMARK    6  A    between atoms: C7_8  and  C8_9 
REMARK    7  A    between atoms: C8_9  and  C9_10 
REMARK       I    between atoms: C9_10  and  N2_12 
REMARK    8  A    between atoms: N2_12  and  C10_13 
REMARK    9  A    between atoms: C15_20  and  N5_21 
REMARK   10  A    between atoms: N5_21  and  C16_22 
REMARK   11  A    between atoms: C17_23  and  C18_24 
REMARK   12  A    between atoms: C18_24  and  C19_25 
ROOT
HETATM    1  C10 UNL     1      20.896   0.993  51.728  1.00  0.00     0.035 A 
HETATM    2  C11 UNL     1      19.921   0.289  52.393  1.00  0.00     0.032 A 
HETATM    3  C12 UNL     1      20.128  -0.541  53.464  1.00  0.00     0.035 A 
HETATM    4  C13 UNL     1      21.401  -0.722  53.956  1.00  0.00     0.072 A 
HETATM    5  N3  UNL     1      21.700  -1.509  54.994  1.00  0.00    -0.241 NA
HETATM    6  C14 UNL     1      22.986  -1.627  55.411  1.00  0.00     0.236 A 
HETATM    7  N4  UNL     1      23.997  -0.973  54.816  1.00  0.00    -0.224 NA
HETATM    8  C15 UNL     1      23.709  -0.179  53.773  1.00  0.00     0.141 A 
HETATM    9  C20 UNL     1      22.416  -0.026  53.309  1.00  0.00     0.041 A 
HETATM   10  C21 UNL     1      22.161   0.796  52.238  1.00  0.00     0.047 A 
ENDROOT
BRANCH   1  11
HETATM   11  N2  UNL     1      20.720   1.861  50.628  1.00  0.00    -0.327 N 
HETATM   12  C9  UNL     1      21.019   1.662  49.256  1.00  0.00     0.222 C 
HETATM   13  O1  UNL     1      21.513   0.552  48.954  1.00  0.00    -0.273 OA
HETATM   14  H19 UNL     1      20.306   2.810  50.846  1.00  0.00     0.169 HD
BRANCH  12  15
HETATM   15  C8  UNL     1      20.741   2.731  48.299  1.00  0.00     0.105 C 
BRANCH  15  16
HETATM   16  C7  UNL     1      21.451   4.010  48.635  1.00  0.00     0.039 C 
BRANCH  16  17
HETATM   17  C6  UNL     1      22.936   3.818  48.529  1.00  0.00     0.273 C 
BRANCH  17  18
HETATM   18  N1  UNL     1      23.575   4.179  49.769  1.00  0.00     0.088 N 
BRANCH  18  19
HETATM   19  C3  UNL     1      24.230   3.106  50.406  1.00  0.00     0.272 C 
BRANCH  19  20
HETATM   20  C2  UNL     1      25.689   3.345  50.712  1.00  0.00     0.026 C 
HETATM   21  C1  UNL     1      26.536   3.443  49.475  1.00  0.00     0.007 C 
ENDBRANCH  19  20
ENDBRANCH  18  19
BRANCH  18  22
HETATM   22  C4  UNL     1      22.699   4.945  50.624  1.00  0.00     0.268 C 
HETATM   23  C5  UNL     1      22.851   4.469  52.048  1.00  0.00     0.037 C 
ENDBRANCH  18  22
ENDBRANCH  17  18
ENDBRANCH  16  17
ENDBRANCH  15  16
ENDBRANCH  12  15
ENDBRANCH   1  11
BRANCH   8  24
HETATM   24  N5  UNL     1      24.816   0.502  53.168  1.00  0.00    -0.350 N 
HETATM   25  H23 UNL     1      24.607   1.492  53.399  1.00  0.00     0.166 HD
BRANCH  24  26
HETATM   26  C16 UNL     1      25.937   0.027  52.436  1.00  0.00     0.085 C 
HETATM   27  C17 UNL     1      27.222   0.253  52.543  1.00  0.00    -0.009 C 
BRANCH  27  28
HETATM   28  C18 UNL     1      28.006   1.092  53.470  1.00  0.00     0.043 C 
BRANCH  28  29
HETATM   29  C19 UNL     1      28.792   0.243  54.453  1.00  0.00     0.118 C 
HETATM   30 CL1  UNL     1      29.620  -1.108  53.677  1.00  0.00    -0.130 Cl
ENDBRANCH  28  29
ENDBRANCH  27  28
ENDBRANCH  24  26
ENDBRANCH   8  24
TORSDOF 12
ENDMDL
MODEL 4
REMARK VINA RESULT:      -6.8      2.939      6.159
REMARK  12 active torsions:
REMARK  status: ('A' for Active; 'I' for Inactive)
REMARK    1  A    between atoms: C2_2  and  C3_3 
REMARK    2  A    between atoms: C3_3  and  N1_4 
REMARK    3  A    between atoms: N1_4  and  C4_5 
REMARK    4  A    between atoms: N1_4  and  C6_7 
REMARK    5  A    between atoms: C6_7  and  C7_8 
REMARK    6  A    between atoms: C7_8  and  C8_9 
REMARK    7  A    between atoms: C8_9  and  C9_10 
REMARK       I    between atoms: C9_10  and  N2_12 
REMARK    8  A    between atoms: N2_12  and  C10_13 
REMARK    9  A    between atoms: C15_20  and  N5_21 
REMARK   10  A    between atoms: N5_21  and  C16_22 
REMARK   11  A    between atoms: C17_23  and  C18_24 
REMARK   12  A    between atoms: C18_24  and  C19_25 
ROOT
HETATM    1  C10 UNL     1      26.192   3.705  50.050  1.00  0.00     0.035 A 
HETATM    2  C11 UNL     1      27.100   4.196  49.144  1.00  0.00     0.032 A 
HETATM    3  C12 UNL     1      27.145   5.486  48.681  1.00  0.00     0.035 A 
HETATM    4  C13 UNL     1      26.226   6.407  49.128  1.00  0.00     0.072 A 
HETATM    5  N3  UNL     1      26.191   7.685  48.734  1.00  0.00    -0.241 NA
HETATM    6  C14 UNL     1      25.247   8.525  49.229  1.00  0.00     0.236 A 
HETATM    7  N4  UNL     1      24.323   8.122  50.118  1.00  0.00    -0.224 NA
HETATM    8  C15 UNL     1      24.349   6.842  50.520  1.00  0.00     0.141 A 
HETATM    9  C20 UNL     1      25.289   5.948  50.046  1.00  0.00     0.041 A 
HETATM   10  C21 UNL     1      25.283   4.645  50.483  1.00  0.00     0.047 A 
ENDROOT
BRANCH   1  11
HETATM   11  N2  UNL     1      26.119   2.387  50.555  1.00  0.00    -0.327 N 
HETATM   12  C9  UNL     1      26.844   1.778  51.611  1.00  0.00     0.222 C 
HETATM   13  O1  UNL     1      27.679   2.503  52.198  1.00  0.00    -0.273 OA
HETATM   14  H19 UNL     1      25.425   1.745  50.080  1.00  0.00     0.169 HD
BRANCH  12  15
HETATM   15  C8  UNL     1      26.583   0.379  51.945  1.00  0.00     0.105 C 
BRANCH  15  16
HETATM   16  C7  UNL     1      25.927   0.214  53.284  1.00  0.00     0.039 C 
BRANCH  16  17
HETATM   17  C6  UNL     1      24.563   0.841  53.270  1.00  0.00     0.273 C 
BRANCH  17  18
HETATM   18  N1  UNL     1      23.552  -0.168  53.073  1.00  0.00     0.088 N 
BRANCH  18  19
HETATM   19  C3  UNL     1      22.466   0.260  52.283  1.00  0.00     0.272 C 
BRANCH  19  20
HETATM   20  C2  UNL     1      22.486   1.725  51.918  1.00  0.00     0.026 C 
HETATM   21  C1  UNL     1      21.274   2.464  52.408  1.00  0.00     0.007 C 
ENDBRANCH  19  20
ENDBRANCH  18  19
BRANCH  18  22
HETATM   22  C4  UNL     1      23.183  -0.809  54.313  1.00  0.00     0.268 C 
HETATM   23  C5  UNL     1      21.698  -1.086  54.307  1.00  0.00     0.037 C 
ENDBRANCH  18  22
ENDBRANCH  17  18
ENDBRANCH  16  17
ENDBRANCH  15  16
ENDBRANCH  12  15
ENDBRANCH   1  11
BRANCH   8  24
HETATM   24  N5  UNL     1      23.347   6.456  51.470  1.00  0.00    -0.350 N 
HETATM   25  H23 UNL     1      23.839   6.611  52.371  1.00  0.00     0.166 HD
BRANCH  24  26
HETATM   26  C16 UNL     1      22.019   5.981  51.309  1.00  0.00     0.085 C 
HETATM   27  C17 UNL     1      21.386   5.452  50.292  1.00  0.00    -0.009 C 
BRANCH  27  28
HETATM   28  C18 UNL     1      21.813   5.143  48.914  1.00  0.00     0.043 C 
BRANCH  28  29
HETATM   29  C19 UNL     1      21.520   3.697  48.555  1.00  0.00     0.118 C 
HETATM   30 CL1  UNL     1      22.982   2.718  48.426  1.00  0.00    -0.130 Cl
ENDBRANCH  28  29
ENDBRANCH  27  28
ENDBRANCH  24  26
ENDBRANCH   8  24
TORSDOF 12
ENDMDL
MODEL 5
REMARK VINA RESULT:      -6.7      2.438      7.039
REMARK  12 active torsions:
REMARK  status: ('A' for Active; 'I' for Inactive)
REMARK    1  A    between atoms: C2_2  and  C3_3 
REMARK    2  A    between atoms: C3_3  and  N1_4 
REMARK    3  A    between atoms: N1_4  and  C4_5 
REMARK    4  A    between atoms: N1_4  and  C6_7 
REMARK    5  A    between atoms: C6_7  and  C7_8 
REMARK    6  A    between atoms: C7_8  and  C8_9 
REMARK    7  A    between atoms: C8_9  and  C9_10 
REMARK       I    between atoms: C9_10  and  N2_12 
REMARK    8  A    between atoms: N2_12  and  C10_13 
REMARK    9  A    between atoms: C15_20  and  N5_21 
REMARK   10  A    between atoms: N5_21  and  C16_22 
REMARK   11  A    between atoms: C17_23  and  C18_24 
REMARK   12  A    between atoms: C18_24  and  C19_25 
ROOT
HETATM    1  C10 UNL     1      22.565   0.903  52.034  1.00  0.00     0.035 A 
HETATM    2  C11 UNL     1      22.449   0.270  53.248  1.00  0.00     0.032 A 
HETATM    3  C12 UNL     1      21.309  -0.312  53.738  1.00  0.00     0.035 A 
HETATM    4  C13 UNL     1      20.152  -0.288  52.992  1.00  0.00     0.072 A 
HETATM    5  N3  UNL     1      18.994  -0.828  53.385  1.00  0.00    -0.241 NA
HETATM    6  C14 UNL     1      17.902  -0.757  52.582  1.00  0.00     0.236 A 
HETATM    7  N4  UNL     1      17.932  -0.156  51.381  1.00  0.00    -0.224 NA
HETATM    8  C15 UNL     1      19.089   0.389  50.976  1.00  0.00     0.141 A 
HETATM    9  C20 UNL     1      20.228   0.344  51.756  1.00  0.00     0.041 A 
HETATM   10  C21 UNL     1      21.394   0.914  51.306  1.00  0.00     0.047 A 
ENDROOT
BRANCH   1  11
HETATM   11  N2  UNL     1      23.722   1.507  51.494  1.00  0.00    -0.327 N 
HETATM   12  C9  UNL     1      24.323   2.754  51.799  1.00  0.00     0.222 C 
HETATM   13  O1  UNL     1      23.755   3.440  52.680  1.00  0.00    -0.273 OA
HETATM   14  H19 UNL     1      24.226   0.956  50.745  1.00  0.00     0.169 HD
BRANCH  12  15
HETATM   15  C8  UNL     1      25.535   3.159  51.089  1.00  0.00     0.105 C 
BRANCH  15  16
HETATM   16  C7  UNL     1      26.619   2.125  51.154  1.00  0.00     0.039 C 
BRANCH  16  17
HETATM   17  C6  UNL     1      27.152   2.026  52.554  1.00  0.00     0.273 C 
BRANCH  17  18
HETATM   18  N1  UNL     1      26.929   0.702  53.080  1.00  0.00     0.088 N 
BRANCH  18  19
HETATM   19  C3  UNL     1      27.852   0.321  54.075  1.00  0.00     0.272 C 
BRANCH  19  20
HETATM   20  C2  UNL     1      29.298   0.590  53.734  1.00  0.00     0.026 C 
HETATM   21  C1  UNL     1      30.099  -0.668  53.557  1.00  0.00     0.007 C 
ENDBRANCH  19  20
ENDBRANCH  18  19
BRANCH  18  22
HETATM   22  C4  UNL     1      26.737  -0.270  52.029  1.00  0.00     0.268 C 
HETATM   23  C5  UNL     1      26.635  -1.648  52.639  1.00  0.00     0.037 C 
ENDBRANCH  18  22
ENDBRANCH  17  18
ENDBRANCH  16  17
ENDBRANCH  15  16
ENDBRANCH  12  15
ENDBRANCH   1  11
BRANCH   8  24
HETATM   24  N5  UNL     1      19.077   1.018  49.688  1.00  0.00    -0.350 N 
HETATM   25  H23 UNL     1      19.536   0.299  49.097  1.00  0.00     0.166 HD
BRANCH  24  26
HETATM   26  C16 UNL     1      18.589   2.278  49.252  1.00  0.00     0.085 C 
HETATM   27  C17 UNL     1      19.177   3.428  49.037  1.00  0.00    -0.009 C 
BRANCH  27  28
HETATM   28  C18 UNL     1      20.581   3.860  49.165  1.00  0.00     0.043 C 
BRANCH  28  29
HETATM   29  C19 UNL     1      21.429   3.332  48.021  1.00  0.00     0.118 C 
HETATM   30 CL1  UNL     1      23.143   3.239  48.430  1.00  0.00    -0.130 Cl
ENDBRANCH  28  29
ENDBRANCH  27  28
ENDBRANCH  24  26
ENDBRANCH   8  24
TORSDOF 12
ENDMDL
MODEL 6
REMARK VINA RESULT:      -6.6      1.351      2.293
REMARK  12 active torsions:
REMARK  status: ('A' for Active; 'I' for Inactive)
REMARK    1  A    between atoms: C2_2  and  C3_3 
REMARK    2  A    between atoms: C3_3  and  N1_4 
REMARK    3  A    between atoms: N1_4  and  C4_5 
REMARK    4  A    between atoms: N1_4  and  C6_7 
REMARK    5  A    between atoms: C6_7  and  C7_8 
REMARK    6  A    between atoms: C7_8  and  C8_9 
REMARK    7  A    between atoms: C8_9  and  C9_10 
REMARK       I    between atoms: C9_10  and  N2_12 
REMARK    8  A    between atoms: N2_12  and  C10_13 
REMARK    9  A    between atoms: C15_20  and  N5_21 
REMARK   10  A    between atoms: N5_21  and  C16_22 
REMARK   11  A    between atoms: C17_23  and  C18_24 
REMARK   12  A    between atoms: C18_24  and  C19_25 
ROOT
HETATM    1  C10 UNL     1      22.830   0.170  52.734  1.00  0.00     0.035 A 
HETATM    2  C11 UNL     1      22.903  -0.802  53.701  1.00  0.00     0.032 A 
HETATM    3  C12 UNL     1      23.984  -1.042  54.510  1.00  0.00     0.035 A 
HETATM    4  C13 UNL     1      25.119  -0.273  54.383  1.00  0.00     0.072 A 
HETATM    5  N3  UNL     1      26.220  -0.431  55.125  1.00  0.00    -0.241 NA
HETATM    6  C14 UNL     1      27.294   0.375  54.931  1.00  0.00     0.236 A 
HETATM    7  N4  UNL     1      27.303   1.349  54.006  1.00  0.00    -0.224 NA
HETATM    8  C15 UNL     1      26.203   1.517  53.256  1.00  0.00     0.141 A 
HETATM    9  C20 UNL     1      25.084   0.722  53.414  1.00  0.00     0.041 A 
HETATM   10  C21 UNL     1      23.977   0.927  52.626  1.00  0.00     0.047 A 
ENDROOT
BRANCH   1  11
HETATM   11  N2  UNL     1      21.734   0.451  51.889  1.00  0.00    -0.327 N 
HETATM   12  C9  UNL     1      20.403   0.815  52.217  1.00  0.00     0.222 C 
HETATM   13  O1  UNL     1      20.141   0.907  53.439  1.00  0.00    -0.273 OA
HETATM   14  H19 UNL     1      21.918   0.380  50.849  1.00  0.00     0.169 HD
BRANCH  12  15
HETATM   15  C8  UNL     1      19.439   1.054  51.145  1.00  0.00     0.105 C 
BRANCH  15  16
HETATM   16  C7  UNL     1      20.062   0.997  49.781  1.00  0.00     0.039 C 
BRANCH  16  17
HETATM   17  C6  UNL     1      20.090   2.368  49.170  1.00  0.00     0.273 C 
BRANCH  17  18
HETATM   18  N1  UNL     1      21.432   2.894  49.186  1.00  0.00     0.088 N 
BRANCH  18  19
HETATM   19  C3  UNL     1      21.557   4.117  49.875  1.00  0.00     0.272 C 
BRANCH  19  20
HETATM   20  C2  UNL     1      21.955   3.990  51.325  1.00  0.00     0.026 C 
HETATM   21  C1  UNL     1      22.552   5.253  51.878  1.00  0.00     0.007 C 
ENDBRANCH  19  20
ENDBRANCH  18  19
BRANCH  18  22
HETATM   22  C4  UNL     1      22.032   2.875  47.873  1.00  0.00     0.268 C 
HETATM   23  C5  UNL     1      22.210   4.294  47.387  1.00  0.00     0.037 C 
ENDBRANCH  18  22
ENDBRANCH  17  18
ENDBRANCH  16  17
ENDBRANCH  15  16
ENDBRANCH  12  15
ENDBRANCH   1  11
BRANCH   8  24
HETATM   24  N5  UNL     1      26.254   2.569  52.283  1.00  0.00    -0.350 N 
HETATM   25  H23 UNL     1      25.752   3.334  52.772  1.00  0.00     0.166 HD
BRANCH  24  26
HETATM   26  C16 UNL     1      26.819   2.631  50.981  1.00  0.00     0.085 C 
HETATM   27  C17 UNL     1      26.436   3.224  49.878  1.00  0.00    -0.009 C 
BRANCH  27  28
HETATM   28  C18 UNL     1      25.264   4.062  49.562  1.00  0.00     0.043 C 
BRANCH  28  29
HETATM   29  C19 UNL     1      25.603   5.540  49.642  1.00  0.00     0.118 C 
HETATM   30 CL1  UNL     1      26.903   6.001  48.542  1.00  0.00    -0.130 Cl
ENDBRANCH  28  29
ENDBRANCH  27  28
ENDBRANCH  24  26
ENDBRANCH   8  24
TORSDOF 12
ENDMDL
MODEL 7
REMARK VINA RESULT:      -6.6      2.847      4.872
REMARK  12 active torsions:
REMARK  status: ('A' for Active; 'I' for Inactive)
REMARK    1  A    between atoms: C2_2  and  C3_3 
REMARK    2  A    between atoms: C3_3  and  N1_4 
REMARK    3  A    between atoms: N1_4  and  C4_5 
REMARK    4  A    between atoms: N1_4  and  C6_7 
REMARK    5  A    between atoms: C6_7  and  C7_8 
REMARK    6  A    between atoms: C7_8  and  C8_9 
REMARK    7  A    between atoms: C8_9  and  C9_10 
REMARK       I    between atoms: C9_10  and  N2_12 
REMARK    8  A    between atoms: N2_12  and  C10_13 
REMARK    9  A    between atoms: C15_20  and  N5_21 
REMARK   10  A    between atoms: N5_21  and  C16_22 
REMARK   11  A    between atoms: C17_23  and  C18_24 
REMARK   12  A    between atoms: C18_24  and  C19_25 
ROOT
HETATM    1  C10 UNL     1      20.550   0.618  52.293  1.00  0.00     0.035 A 
HETATM    2  C11 UNL     1      19.837  -0.313  53.008  1.00  0.00     0.032 A 
HETATM    3  C12 UNL     1      20.347  -1.129  53.985  1.00  0.00     0.035 A 
HETATM    4  C13 UNL     1      21.680  -1.050  54.317  1.00  0.00     0.072 A 
HETATM    5  N3  UNL     1      22.266  -1.802  55.254  1.00  0.00    -0.241 NA
HETATM    6  C14 UNL     1      23.590  -1.656  55.516  1.00  0.00     0.236 A 
HETATM    7  N4  UNL     1      24.357  -0.768  54.862  1.00  0.00    -0.224 NA
HETATM    8  C15 UNL     1      23.779  -0.007  53.919  1.00  0.00     0.141 A 
HETATM    9  C20 UNL     1      22.436  -0.119  53.615  1.00  0.00     0.041 A 
HETATM   10  C21 UNL     1      21.882   0.679  52.644  1.00  0.00     0.047 A 
ENDROOT
BRANCH   1  11
HETATM   11  N2  UNL     1      20.058   1.479  51.287  1.00  0.00    -0.327 N 
HETATM   12  C9  UNL     1      19.605   2.820  51.380  1.00  0.00     0.222 C 
HETATM   13  O1  UNL     1      19.638   3.336  52.521  1.00  0.00    -0.273 OA
HETATM   14  H19 UNL     1      20.014   1.075  50.310  1.00  0.00     0.169 HD
BRANCH  12  15
HETATM   15  C8  UNL     1      19.136   3.503  50.176  1.00  0.00     0.105 C 
BRANCH  15  16
HETATM   16  C7  UNL     1      19.680   4.896  50.050  1.00  0.00     0.039 C 
BRANCH  16  17
HETATM   17  C6  UNL     1      20.530   5.007  48.818  1.00  0.00     0.273 C 
BRANCH  17  18
HETATM   18  N1  UNL     1      21.668   4.126  48.916  1.00  0.00     0.088 N 
BRANCH  18  19
HETATM   19  C3  UNL     1      22.693   4.610  49.753  1.00  0.00     0.272 C 
BRANCH  19  20
HETATM   20  C2  UNL     1      23.131   3.656  50.837  1.00  0.00     0.026 C 
HETATM   21  C1  UNL     1      23.117   4.280  52.204  1.00  0.00     0.007 C 
ENDBRANCH  19  20
ENDBRANCH  18  19
BRANCH  18  22
HETATM   22  C4  UNL     1      22.110   3.671  47.619  1.00  0.00     0.268 C 
HETATM   23  C5  UNL     1      22.391   2.189  47.680  1.00  0.00     0.037 C 
ENDBRANCH  18  22
ENDBRANCH  17  18
ENDBRANCH  16  17
ENDBRANCH  15  16
ENDBRANCH  12  15
ENDBRANCH   1  11
BRANCH   8  24
HETATM   24  N5  UNL     1      24.633   0.928  53.248  1.00  0.00    -0.350 N 
HETATM   25  H23 UNL     1      24.454   1.799  53.782  1.00  0.00     0.166 HD
BRANCH  24  26
HETATM   26  C16 UNL     1      25.517   0.784  52.145  1.00  0.00     0.085 C 
HETATM   27  C17 UNL     1      26.823   0.746  52.058  1.00  0.00    -0.009 C 
BRANCH  27  28
HETATM   28  C18 UNL     1      27.885   0.838  53.077  1.00  0.00     0.043 C 
BRANCH  28  29
HETATM   29  C19 UNL     1      28.217  -0.526  53.656  1.00  0.00     0.118 C 
HETATM   30 CL1  UNL     1      29.944  -0.884  53.609  1.00  0.00    -0.130 Cl
ENDBRANCH  28  29
ENDBRANCH  27  28
ENDBRANCH  24  26
ENDBRANCH   8  24
TORSDOF 12
ENDMDL
MODEL 8
REMARK VINA RESULT:      -6.5      2.896      5.020
REMARK  12 active torsions:
REMARK  status: ('A' for Active; 'I' for Inactive)
REMARK    1  A    between atoms: C2_2  and  C3_3 
REMARK    2  A    between atoms: C3_3  and  N1_4 
REMARK    3  A    between atoms: N1_4  and  C4_5 
REMARK    4  A    between atoms: N1_4  and  C6_7 
REMARK    5  A    between atoms: C6_7  and  C7_8 
REMARK    6  A    between atoms: C7_8  and  C8_9 
REMARK    7  A    between atoms: C8_9  and  C9_10 
REMARK       I    between atoms: C9_10  and  N2_12 
REMARK    8  A    between atoms: N2_12  and  C10_13 
REMARK    9  A    between atoms: C15_20  and  N5_21 
REMARK   10  A    between atoms: N5_21  and  C16_22 
REMARK   11  A    between atoms: C17_23  and  C18_24 
REMARK   12  A    between atoms: C18_24  and  C19_25 
ROOT
HETATM    1  C10 UNL     1      24.189   2.500  51.485  1.00  0.00     0.035 A 
HETATM    2  C11 UNL     1      25.426   2.641  50.905  1.00  0.00     0.032 A 
HETATM    3  C12 UNL     1      26.530   1.877  51.185  1.00  0.00     0.035 A 
HETATM    4  C13 UNL     1      26.447   0.870  52.120  1.00  0.00     0.072 A 
HETATM    5  N3  UNL     1      27.467   0.074  52.459  1.00  0.00    -0.241 NA
HETATM    6  C14 UNL     1      27.293  -0.895  53.392  1.00  0.00     0.236 A 
HETATM    7  N4  UNL     1      26.116  -1.098  54.006  1.00  0.00    -0.224 NA
HETATM    8  C15 UNL     1      25.085  -0.306  53.673  1.00  0.00     0.141 A 
HETATM    9  C20 UNL     1      25.211   0.695  52.730  1.00  0.00     0.041 A 
HETATM   10  C21 UNL     1      24.131   1.485  52.416  1.00  0.00     0.047 A 
ENDROOT
BRANCH   1  11
HETATM   11  N2  UNL     1      23.030   3.261  51.216  1.00  0.00    -0.327 N 
HETATM   12  C9  UNL     1      22.582   4.472  51.803  1.00  0.00     0.222 C 
HETATM   13  O1  UNL     1      23.314   4.955  52.698  1.00  0.00    -0.273 OA
HETATM   14  H19 UNL     1      22.387   2.880  50.467  1.00  0.00     0.169 HD
BRANCH  12  15
HETATM   15  C8  UNL     1      21.329   5.069  51.346  1.00  0.00     0.105 C 
BRANCH  15  16
HETATM   16  C7  UNL     1      21.253   5.189  49.853  1.00  0.00     0.039 C 
BRANCH  16  17
HETATM   17  C6  UNL     1      19.923   4.694  49.364  1.00  0.00     0.273 C 
BRANCH  17  18
HETATM   18  N1  UNL     1      19.827   3.266  49.537  1.00  0.00     0.088 N 
BRANCH  18  19
HETATM   19  C3  UNL     1      20.110   2.530  48.369  1.00  0.00     0.272 C 
BRANCH  19  20
HETATM   20  C2  UNL     1      21.344   1.664  48.449  1.00  0.00     0.026 C 
HETATM   21  C1  UNL     1      22.531   2.275  47.760  1.00  0.00     0.007 C 
ENDBRANCH  19  20
ENDBRANCH  18  19
BRANCH  18  22
HETATM   22  C4  UNL     1      18.608   2.886  50.211  1.00  0.00     0.268 C 
HETATM   23  C5  UNL     1      17.733   2.111  49.256  1.00  0.00     0.037 C 
ENDBRANCH  18  22
ENDBRANCH  17  18
ENDBRANCH  16  17
ENDBRANCH  15  16
ENDBRANCH  12  15
ENDBRANCH   1  11
BRANCH   8  24
HETATM   24  N5  UNL     1      23.847  -0.559  54.350  1.00  0.00    -0.350 N 
HETATM   25  H23 UNL     1      23.987  -0.049  55.244  1.00  0.00     0.166 HD
BRANCH  24  26
HETATM   26  C16 UNL     1      22.692  -1.294  53.974  1.00  0.00     0.085 C 
HETATM   27  C17 UNL     1      21.419  -0.987  53.945  1.00  0.00    -0.009 C 
BRANCH  27  28
HETATM   28  C18 UNL     1      20.691   0.248  54.293  1.00  0.00     0.043 C 
BRANCH  28  29
HETATM   29  C19 UNL     1      20.528   1.153  53.084  1.00  0.00     0.118 C 
HETATM   30 CL1  UNL     1      20.627   0.274  51.557  1.00  0.00    -0.130 Cl
ENDBRANCH  28  29
ENDBRANCH  27  28
ENDBRANCH  24  26
ENDBRANCH   8  24
TORSDOF 12
ENDMDL
MODEL 9
REMARK VINA RESULT:      -6.5      3.086      6.729
REMARK  12 active torsions:
REMARK  status: ('A' for Active; 'I' for Inactive)
REMARK    1  A    between atoms: C2_2  and  C3_3 
REMARK    2  A    between atoms: C3_3  and  N1_4 
REMARK    3  A    between atoms: N1_4  and  C4_5 
REMARK    4  A    between atoms: N1_4  and  C6_7 
REMARK    5  A    between atoms: C6_7  and  C7_8 
REMARK    6  A    between atoms: C7_8  and  C8_9 
REMARK    7  A    between atoms: C8_9  and  C9_10 
REMARK       I    between atoms: C9_10  and  N2_12 
REMARK    8  A    between atoms: N2_12  and  C10_13 
REMARK    9  A    between atoms: C15_20  and  N5_21 
REMARK   10  A    between atoms: N5_21  and  C16_22 
REMARK   11  A    between atoms: C17_23  and  C18_24 
REMARK   12  A    between atoms: C18_24  and  C19_25 
ROOT
HETATM    1  C10 UNL     1      24.198   2.995  50.769  1.00  0.00     0.035 A 
HETATM    2  C11 UNL     1      23.165   2.097  50.658  1.00  0.00     0.032 A 
HETATM    3  C12 UNL     1      22.964   1.009  51.468  1.00  0.00     0.035 A 
HETATM    4  C13 UNL     1      23.842   0.748  52.495  1.00  0.00     0.072 A 
HETATM    5  N3  UNL     1      23.729  -0.286  53.335  1.00  0.00    -0.241 NA
HETATM    6  C14 UNL     1      24.643  -0.466  54.322  1.00  0.00     0.236 A 
HETATM    7  N4  UNL     1      25.682   0.367  54.498  1.00  0.00    -0.224 NA
HETATM    8  C15 UNL     1      25.806   1.409  53.661  1.00  0.00     0.141 A 
HETATM    9  C20 UNL     1      24.902   1.635  52.641  1.00  0.00     0.041 A 
HETATM   10  C21 UNL     1      25.063   2.713  51.804  1.00  0.00     0.047 A 
ENDROOT
BRANCH   1  11
HETATM   11  N2  UNL     1      24.433   4.129  49.960  1.00  0.00    -0.327 N 
HETATM   12  C9  UNL     1      24.208   5.502  50.233  1.00  0.00     0.222 C 
HETATM   13  O1  UNL     1      23.730   5.770  51.359  1.00  0.00    -0.273 OA
HETATM   14  H19 UNL     1      24.835   3.939  49.000  1.00  0.00     0.169 HD
BRANCH  12  15
HETATM   15  C8  UNL     1      24.536   6.498  49.215  1.00  0.00     0.105 C 
BRANCH  15  16
HETATM   16  C7  UNL     1      25.913   6.316  48.647  1.00  0.00     0.039 C 
BRANCH  16  17
HETATM   17  C6  UNL     1      26.829   7.388  49.162  1.00  0.00     0.273 C 
BRANCH  17  18
HETATM   18  N1  UNL     1      28.025   7.450  48.359  1.00  0.00     0.088 N 
BRANCH  18  19
HETATM   19  C3  UNL     1      28.667   6.206  48.198  1.00  0.00     0.272 C 
BRANCH  19  20
HETATM   20  C2  UNL     1      30.171   6.249  48.322  1.00  0.00     0.026 C 
HETATM   21  C1  UNL     1      30.841   5.059  47.695  1.00  0.00     0.007 C 
ENDBRANCH  19  20
ENDBRANCH  18  19
BRANCH  18  22
HETATM   22  C4  UNL     1      28.892   8.530  48.768  1.00  0.00     0.268 C 
HETATM   23  C5  UNL     1      28.181   9.377  49.796  1.00  0.00     0.037 C 
ENDBRANCH  18  22
ENDBRANCH  17  18
ENDBRANCH  16  17
ENDBRANCH  15  16
ENDBRANCH  12  15
ENDBRANCH   1  11
BRANCH   8  24
HETATM   24  N5  UNL     1      26.927   2.273  53.886  1.00  0.00    -0.350 N 
HETATM   25  H23 UNL     1      26.491   3.050  54.419  1.00  0.00     0.166 HD
BRANCH  24  26
HETATM   26  C16 UNL     1      28.294   2.171  53.516  1.00  0.00     0.085 C 
HETATM   27  C17 UNL     1      29.193   1.237  53.703  1.00  0.00    -0.009 C 
BRANCH  27  28
HETATM   28  C18 UNL     1      29.131  -0.076  54.372  1.00  0.00     0.043 C 
BRANCH  28  29
HETATM   29  C19 UNL     1      29.268  -1.213  53.374  1.00  0.00     0.118 C 
HETATM   30 CL1  UNL     1      27.709  -1.832  52.828  1.00  0.00    -0.130 Cl
ENDBRANCH  28  29
ENDBRANCH  27  28
ENDBRANCH  24  26
ENDBRANCH   8  24
TORSDOF 12
ENDMDL
