MODEL 1
REMARK VINA RESULT:      -8.6      0.000      0.000
REMARK  8 active torsions:
REMARK  status: ('A' for Active; 'I' for Inactive)
REMARK    1  A    between atoms: O1_2  and  C2_3 
REMARK    2  A    between atoms: C6_9  and  N3_10 
REMARK    3  A    between atoms: N3_10  and  C7_11 
REMARK    4  A    between atoms: C15_21  and  O2_22 
REMARK    5  A    between atoms: O2_22  and  C16_23 
REMARK    6  A    between atoms: C16_23  and  C17_24 
REMARK    7  A    between atoms: C17_24  and  C18_25 
REMARK    8  A    between atoms: C18_25  and  N4_26 
ROOT
HETATM    1  C2  UNL     1      20.164  -0.128  52.576  1.00  0.00     0.103 A 
HETATM    2  C3  UNL     1      20.507  -0.709  53.776  1.00  0.00     0.072 A 
HETATM    3  C4  UNL     1      21.832  -0.805  54.158  1.00  0.00     0.075 A 
HETATM    4  N1  UNL     1      22.227  -1.369  55.312  1.00  0.00    -0.241 NA
HETATM    5  C5  UNL     1      23.541  -1.436  55.616  1.00  0.00     0.236 A 
HETATM    6  N2  UNL     1      24.427  -0.929  54.740  1.00  0.00    -0.224 NA
HETATM    7  C6  UNL     1      24.091  -0.355  53.575  1.00  0.00     0.142 A 
HETATM    8  C13 UNL     1      22.752  -0.285  53.261  1.00  0.00     0.042 A 
HETATM    9  C14 UNL     1      22.424   0.295  52.066  1.00  0.00     0.057 A 
HETATM   10  C15 UNL     1      21.102   0.387  51.691  1.00  0.00     0.103 A 
ENDROOT
BRANCH   7  11
HETATM   11  N3  UNL     1      25.151   0.119  52.760  1.00  0.00    -0.340 N 
HETATM   12  H6  UNL     1      24.927   0.692  51.919  1.00  0.00     0.167 HD
BRANCH  11  13
HETATM   13  C7  UNL     1      26.513  -0.157  53.049  1.00  0.00     0.035 A 
HETATM   14  C8  UNL     1      27.136  -1.361  52.817  1.00  0.00     0.032 A 
HETATM   15  C9  UNL     1      28.468  -1.622  53.087  1.00  0.00     0.046 A 
HETATM   16  C10 UNL     1      29.182  -0.571  53.625  1.00  0.00     0.138 A 
HETATM   17  F1  UNL     1      30.507  -0.799  53.902  1.00  0.00    -0.204 F 
HETATM   18  C11 UNL     1      28.662   0.676  53.899  1.00  0.00     0.074 A 
HETATM   19 CL1  UNL     1      29.587   1.971  54.576  1.00  0.00    -0.081 Cl
HETATM   20  C12 UNL     1      27.330   0.813  53.588  1.00  0.00     0.056 A 
ENDBRANCH  11  13
ENDBRANCH   7  11
BRANCH  10  21
HETATM   21  O2  UNL     1      20.529   0.912  50.566  1.00  0.00    -0.348 OA
BRANCH  21  22
HETATM   22  C16 UNL     1      21.163   1.134  49.330  1.00  0.00     0.177 C 
BRANCH  22  23
HETATM   23  C17 UNL     1      21.517   2.609  49.287  1.00  0.00     0.057 C 
BRANCH  23  24
HETATM   24  C18 UNL     1      22.969   2.745  48.967  1.00  0.00     0.274 C 
BRANCH  24  25
HETATM   25  N4  UNL     1      23.681   3.623  49.835  1.00  0.00     0.088 N 
HETATM   26  C19 UNL     1      24.316   2.921  50.907  1.00  0.00     0.272 C 
HETATM   27  C20 UNL     1      25.797   3.163  50.851  1.00  0.00     0.032 C 
HETATM   28  C21 UNL     1      25.993   3.749  49.444  1.00  0.00     0.032 C 
HETATM   29  C22 UNL     1      24.684   4.434  49.252  1.00  0.00     0.272 C 
ENDBRANCH  24  25
ENDBRANCH  23  24
ENDBRANCH  22  23
ENDBRANCH  21  22
ENDBRANCH  10  21
BRANCH   1  30
HETATM   30  O1  UNL     1      18.801  -0.110  52.343  1.00  0.00    -0.353 OA
HETATM   31  C1  UNL     1      17.920  -1.067  52.864  1.00  0.00     0.210 C 
ENDBRANCH   1  30
TORSDOF 8
ENDMDL
MODEL 2
REMARK VINA RESULT:      -8.5      1.643      2.029
REMARK  8 active torsions:
REMARK  status: ('A' for Active; 'I' for Inactive)
REMARK    1  A    between atoms: O1_2  and  C2_3 
REMARK    2  A    between atoms: C6_9  and  N3_10 
REMARK    3  A    between atoms: N3_10  and  C7_11 
REMARK    4  A    between atoms: C15_21  and  O2_22 
REMARK    5  A    between atoms: O2_22  and  C16_23 
REMARK    6  A    between atoms: C16_23  and  C17_24 
REMARK    7  A    between atoms: C17_24  and  C18_25 
REMARK    8  A    between atoms: C18_25  and  N4_26 
ROOT
HETATM    1  C2  UNL     1      20.684   2.111  52.496  1.00  0.00     0.103 A 
HETATM    2  C3  UNL     1      20.623   1.228  53.551  1.00  0.00     0.072 A 
HETATM    3  C4  UNL     1      21.701   0.418  53.853  1.00  0.00     0.075 A 
HETATM    4  N1  UNL     1      21.695  -0.468  54.864  1.00  0.00    -0.241 NA
HETATM    5  C5  UNL     1      22.782  -1.235  55.097  1.00  0.00     0.236 A 
HETATM    6  N2  UNL     1      23.854  -1.085  54.296  1.00  0.00    -0.224 NA
HETATM    7  C6  UNL     1      23.916  -0.218  53.274  1.00  0.00     0.142 A 
HETATM    8  C13 UNL     1      22.809   0.565  53.034  1.00  0.00     0.042 A 
HETATM    9  C14 UNL     1      22.882   1.439  51.984  1.00  0.00     0.057 A 
HETATM   10  C15 UNL     1      21.805   2.243  51.687  1.00  0.00     0.103 A 
ENDROOT
BRANCH   7  11
HETATM   11  N3  UNL     1      25.117  -0.194  52.520  1.00  0.00    -0.340 N 
HETATM   12  H6  UNL     1      25.133  -0.633  51.576  1.00  0.00     0.167 HD
BRANCH  11  13
HETATM   13  C7  UNL     1      26.306   0.410  53.006  1.00  0.00     0.035 A 
HETATM   14  C8  UNL     1      26.420   1.727  53.385  1.00  0.00     0.032 A 
HETATM   15  C9  UNL     1      27.578   2.308  53.873  1.00  0.00     0.046 A 
HETATM   16  C10 UNL     1      28.669   1.469  53.967  1.00  0.00     0.138 A 
HETATM   17  F1  UNL     1      29.832   2.017  54.450  1.00  0.00    -0.204 F 
HETATM   18  C11 UNL     1      28.670   0.136  53.617  1.00  0.00     0.074 A 
HETATM   19 CL1  UNL     1      30.059  -0.887  53.747  1.00  0.00    -0.081 Cl
HETATM   20  C12 UNL     1      27.464  -0.325  53.146  1.00  0.00     0.056 A 
ENDBRANCH  11  13
ENDBRANCH   7  11
BRANCH  10  21
HETATM   21  O2  UNL     1      21.635   3.179  50.705  1.00  0.00    -0.348 OA
BRANCH  21  22
HETATM   22  C16 UNL     1      21.525   2.933  49.324  1.00  0.00     0.177 C 
BRANCH  22  23
HETATM   23  C17 UNL     1      22.938   2.947  48.771  1.00  0.00     0.057 C 
BRANCH  23  24
HETATM   24  C18 UNL     1      23.494   4.326  48.912  1.00  0.00     0.274 C 
BRANCH  24  25
HETATM   25  N4  UNL     1      24.571   4.431  49.840  1.00  0.00     0.088 N 
HETATM   26  C19 UNL     1      25.504   3.355  49.705  1.00  0.00     0.272 C 
HETATM   27  C20 UNL     1      26.861   3.911  49.381  1.00  0.00     0.032 C 
HETATM   28  C21 UNL     1      26.546   5.358  48.971  1.00  0.00     0.032 C 
HETATM   29  C22 UNL     1      25.339   5.619  49.806  1.00  0.00     0.272 C 
ENDBRANCH  24  25
ENDBRANCH  23  24
ENDBRANCH  22  23
ENDBRANCH  21  22
ENDBRANCH  10  21
BRANCH   1  30
HETATM   30  O1  UNL     1      19.526   2.847  52.327  1.00  0.00    -0.353 OA
HETATM   31  C1  UNL     1      18.439   2.404  51.561  1.00  0.00     0.210 C 
ENDBRANCH   1  30
TORSDOF 8
ENDMDL
MODEL 3
REMARK VINA RESULT:      -8.1      1.686      2.135
REMARK  8 active torsions:
REMARK  status: ('A' for Active; 'I' for Inactive)
REMARK    1  A    between atoms: O1_2  and  C2_3 
REMARK    2  A    between atoms: C6_9  and  N3_10 
REMARK    3  A    between atoms: N3_10  and  C7_11 
REMARK    4  A    between atoms: C15_21  and  O2_22 
REMARK    5  A    between atoms: O2_22  and  C16_23 
REMARK    6  A    between atoms: C16_23  and  C17_24 
REMARK    7  A    between atoms: C17_24  and  C18_25 
REMARK    8  A    between atoms: C18_25  and  N4_26 
ROOT
HETATM    1  C2  UNL     1      19.728  -0.293  52.751  1.00  0.00     0.103 A 
HETATM    2  C3  UNL     1      20.206  -0.873  53.904  1.00  0.00     0.072 A 
HETATM    3  C4  UNL     1      21.561  -0.880  54.178  1.00  0.00     0.075 A 
HETATM    4  N1  UNL     1      22.086  -1.438  55.282  1.00  0.00    -0.241 NA
HETATM    5  C5  UNL     1      23.421  -1.416  55.480  1.00  0.00     0.236 A 
HETATM    6  N2  UNL     1      24.196  -0.825  54.552  1.00  0.00    -0.224 NA
HETATM    7  C6  UNL     1      23.728  -0.252  53.433  1.00  0.00     0.142 A 
HETATM    8  C13 UNL     1      22.367  -0.273  53.227  1.00  0.00     0.042 A 
HETATM    9  C14 UNL     1      21.903   0.307  52.078  1.00  0.00     0.057 A 
HETATM   10  C15 UNL     1      20.553   0.310  51.810  1.00  0.00     0.103 A 
ENDROOT
BRANCH   7  11
HETATM   11  N3  UNL     1      24.683   0.317  52.551  1.00  0.00    -0.340 N 
HETATM   12  H6  UNL     1      24.406   0.523  51.569  1.00  0.00     0.167 HD
BRANCH  11  13
HETATM   13  C7  UNL     1      26.008   0.619  52.960  1.00  0.00     0.035 A 
HETATM   14  C8  UNL     1      26.438   1.855  53.381  1.00  0.00     0.032 A 
HETATM   15  C9  UNL     1      27.728   2.141  53.793  1.00  0.00     0.046 A 
HETATM   16  C10 UNL     1      28.610   1.082  53.761  1.00  0.00     0.138 A 
HETATM   17  F1  UNL     1      29.897   1.335  54.166  1.00  0.00    -0.204 F 
HETATM   18  C11 UNL     1      28.291  -0.197  53.358  1.00  0.00     0.074 A 
HETATM   19 CL1  UNL     1      29.425  -1.503  53.329  1.00  0.00    -0.081 Cl
HETATM   20  C12 UNL     1      26.981  -0.357  52.972  1.00  0.00     0.056 A 
ENDBRANCH  11  13
ENDBRANCH   7  11
BRANCH  10  21
HETATM   21  O2  UNL     1      19.856   0.816  50.748  1.00  0.00    -0.348 OA
BRANCH  21  22
HETATM   22  C16 UNL     1      19.709   2.175  50.414  1.00  0.00     0.177 C 
BRANCH  22  23
HETATM   23  C17 UNL     1      19.937   2.958  51.693  1.00  0.00     0.057 C 
BRANCH  23  24
HETATM   24  C18 UNL     1      20.597   4.253  51.351  1.00  0.00     0.274 C 
BRANCH  24  25
HETATM   25  N4  UNL     1      21.979   4.136  51.021  1.00  0.00     0.088 N 
HETATM   26  C19 UNL     1      22.548   5.393  50.639  1.00  0.00     0.272 C 
HETATM   27  C20 UNL     1      23.679   5.729  51.567  1.00  0.00     0.032 C 
HETATM   28  C21 UNL     1      23.465   4.751  52.732  1.00  0.00     0.032 C 
HETATM   29  C22 UNL     1      22.837   3.606  52.013  1.00  0.00     0.272 C 
ENDBRANCH  24  25
ENDBRANCH  23  24
ENDBRANCH  22  23
ENDBRANCH  21  22
ENDBRANCH  10  21
BRANCH   1  30
HETATM   30  O1  UNL     1      18.352  -0.369  52.626  1.00  0.00    -0.353 OA
HETATM   31  C1  UNL     1      17.568  -1.297  53.323  1.00  0.00     0.210 C 
ENDBRANCH   1  30
TORSDOF 8
ENDMDL
MODEL 4
REMARK VINA RESULT:      -8.0      2.060      5.143
REMARK  8 active torsions:
REMARK  status: ('A' for Active; 'I' for Inactive)
REMARK    1  A    between atoms: O1_2  and  C2_3 
REMARK    2  A    between atoms: C6_9  and  N3_10 
REMARK    3  A    between atoms: N3_10  and  C7_11 
REMARK    4  A    between atoms: C15_21  and  O2_22 
REMARK    5  A    between atoms: O2_22  and  C16_23 
REMARK    6  A    between atoms: C16_23  and  C17_24 
REMARK    7  A    between atoms: C17_24  and  C18_25 
REMARK    8  A    between atoms: C18_25  and  N4_26 
ROOT
HETATM    1  C2  UNL     1      22.204   4.473  50.719  1.00  0.00     0.103 A 
HETATM    2  C3  UNL     1      23.307   4.645  49.912  1.00  0.00     0.072 A 
HETATM    3  C4  UNL     1      24.498   4.008  50.203  1.00  0.00     0.075 A 
HETATM    4  N1  UNL     1      25.608   4.144  49.458  1.00  0.00    -0.241 NA
HETATM    5  C5  UNL     1      26.740   3.498  49.808  1.00  0.00     0.236 A 
HETATM    6  N2  UNL     1      26.721   2.725  50.910  1.00  0.00    -0.224 NA
HETATM    7  C6  UNL     1      25.644   2.551  51.690  1.00  0.00     0.142 A 
HETATM    8  C13 UNL     1      24.488   3.209  51.336  1.00  0.00     0.042 A 
HETATM    9  C14 UNL     1      23.398   3.030  52.145  1.00  0.00     0.057 A 
HETATM   10  C15 UNL     1      22.215   3.668  51.850  1.00  0.00     0.103 A 
ENDROOT
BRANCH   7  11
HETATM   11  N3  UNL     1      25.796   1.711  52.823  1.00  0.00    -0.340 N 
HETATM   12  H6  UNL     1      24.989   1.575  53.466  1.00  0.00     0.167 HD
BRANCH  11  13
HETATM   13  C7  UNL     1      27.015   1.042  53.114  1.00  0.00     0.035 A 
HETATM   14  C8  UNL     1      28.139   1.646  53.624  1.00  0.00     0.032 A 
HETATM   15  C9  UNL     1      29.320   0.987  53.921  1.00  0.00     0.046 A 
HETATM   16  C10 UNL     1      29.323  -0.369  53.668  1.00  0.00     0.138 A 
HETATM   17  F1  UNL     1      30.480  -1.050  53.954  1.00  0.00    -0.204 F 
HETATM   18  C11 UNL     1      28.256  -1.077  53.158  1.00  0.00     0.074 A 
HETATM   19 CL1  UNL     1      28.296  -2.779  52.853  1.00  0.00    -0.081 Cl
HETATM   20  C12 UNL     1      27.141  -0.314  52.905  1.00  0.00     0.056 A 
ENDBRANCH  11  13
ENDBRANCH   7  11
BRANCH  10  21
HETATM   21  O2  UNL     1      21.008   3.651  52.493  1.00  0.00    -0.348 OA
BRANCH  21  22
HETATM   22  C16 UNL     1      19.855   2.956  52.090  1.00  0.00     0.177 C 
BRANCH  22  23
HETATM   23  C17 UNL     1      20.291   1.532  51.800  1.00  0.00     0.057 C 
BRANCH  23  24
HETATM   24  C18 UNL     1      20.098   0.711  53.033  1.00  0.00     0.274 C 
BRANCH  24  25
HETATM   25  N4  UNL     1      20.831  -0.512  53.042  1.00  0.00     0.088 N 
HETATM   26  C19 UNL     1      22.178  -0.335  52.596  1.00  0.00     0.272 C 
HETATM   27  C20 UNL     1      23.122  -0.757  53.685  1.00  0.00     0.032 C 
HETATM   28  C21 UNL     1      22.208  -0.830  54.918  1.00  0.00     0.032 C 
HETATM   29  C22 UNL     1      20.917  -1.203  54.274  1.00  0.00     0.272 C 
ENDBRANCH  24  25
ENDBRANCH  23  24
ENDBRANCH  22  23
ENDBRANCH  21  22
ENDBRANCH  10  21
BRANCH   1  30
HETATM   30  O1  UNL     1      21.094   5.178  50.290  1.00  0.00    -0.353 OA
HETATM   31  C1  UNL     1      20.562   5.062  48.999  1.00  0.00     0.210 C 
ENDBRANCH   1  30
TORSDOF 8
ENDMDL
MODEL 5
REMARK VINA RESULT:      -7.7      3.487      5.408
REMARK  8 active torsions:
REMARK  status: ('A' for Active; 'I' for Inactive)
REMARK    1  A    between atoms: O1_2  and  C2_3 
REMARK    2  A    between atoms: C6_9  and  N3_10 
REMARK    3  A    between atoms: N3_10  and  C7_11 
REMARK    4  A    between atoms: C15_21  and  O2_22 
REMARK    5  A    between atoms: O2_22  and  C16_23 
REMARK    6  A    between atoms: C16_23  and  C17_24 
REMARK    7  A    between atoms: C17_24  and  C18_25 
REMARK    8  A    between atoms: C18_25  and  N4_26 
ROOT
HETATM    1  C2  UNL     1      23.160   0.789  53.082  1.00  0.00     0.103 A 
HETATM    2  C3  UNL     1      24.349   0.885  53.769  1.00  0.00     0.072 A 
HETATM    3  C4  UNL     1      25.467   1.430  53.166  1.00  0.00     0.075 A 
HETATM    4  N1  UNL     1      26.655   1.542  53.783  1.00  0.00    -0.241 NA
HETATM    5  C5  UNL     1      27.709   2.077  53.129  1.00  0.00     0.236 A 
HETATM    6  N2  UNL     1      27.532   2.486  51.859  1.00  0.00    -0.224 NA
HETATM    7  C6  UNL     1      26.370   2.400  51.194  1.00  0.00     0.142 A 
HETATM    8  C13 UNL     1      25.294   1.855  51.858  1.00  0.00     0.042 A 
HETATM    9  C14 UNL     1      24.118   1.764  51.165  1.00  0.00     0.057 A 
HETATM   10  C15 UNL     1      23.008   1.220  51.771  1.00  0.00     0.103 A 
ENDROOT
BRANCH   7  11
HETATM   11  N3  UNL     1      26.357   2.867  49.854  1.00  0.00    -0.340 N 
HETATM   12  H6  UNL     1      26.240   2.183  49.079  1.00  0.00     0.167 HD
BRANCH  11  13
HETATM   13  C7  UNL     1      26.498   4.242  49.529  1.00  0.00     0.035 A 
HETATM   14  C8  UNL     1      27.482   4.761  48.721  1.00  0.00     0.032 A 
HETATM   15  C9  UNL     1      27.607   6.100  48.394  1.00  0.00     0.046 A 
HETATM   16  C10 UNL     1      26.656   6.936  48.941  1.00  0.00     0.138 A 
HETATM   17  F1  UNL     1      26.752   8.270  48.633  1.00  0.00    -0.204 F 
HETATM   18  C11 UNL     1      25.628   6.527  49.763  1.00  0.00     0.074 A 
HETATM   19 CL1  UNL     1      24.452   7.605  50.434  1.00  0.00    -0.081 Cl
HETATM   20  C12 UNL     1      25.609   5.176  50.015  1.00  0.00     0.056 A 
ENDBRANCH  11  13
ENDBRANCH   7  11
BRANCH  10  21
HETATM   21  O2  UNL     1      21.740   1.022  51.296  1.00  0.00    -0.348 OA
BRANCH  21  22
HETATM   22  C16 UNL     1      21.390   0.466  50.053  1.00  0.00     0.177 C 
BRANCH  22  23
HETATM   23  C17 UNL     1      20.476   1.469  49.376  1.00  0.00     0.057 C 
BRANCH  23  24
HETATM   24  C18 UNL     1      21.316   2.481  48.668  1.00  0.00     0.274 C 
BRANCH  24  25
HETATM   25  N4  UNL     1      20.983   3.834  48.969  1.00  0.00     0.088 N 
HETATM   26  C19 UNL     1      19.993   3.927  49.999  1.00  0.00     0.272 C 
HETATM   27  C20 UNL     1      20.551   4.706  51.155  1.00  0.00     0.032 C 
HETATM   28  C21 UNL     1      22.058   4.724  50.858  1.00  0.00     0.032 C 
HETATM   29  C22 UNL     1      22.040   4.685  49.368  1.00  0.00     0.272 C 
ENDBRANCH  24  25
ENDBRANCH  23  24
ENDBRANCH  22  23
ENDBRANCH  21  22
ENDBRANCH  10  21
BRANCH   1  30
HETATM   30  O1  UNL     1      22.139   0.223  53.825  1.00  0.00    -0.353 OA
HETATM   31  C1  UNL     1      22.302  -0.936  54.596  1.00  0.00     0.210 C 
ENDBRANCH   1  30
TORSDOF 8
ENDMDL
MODEL 6
REMARK VINA RESULT:      -7.7      7.926     11.770
REMARK  8 active torsions:
REMARK  status: ('A' for Active; 'I' for Inactive)
REMARK    1  A    between atoms: O1_2  and  C2_3 
REMARK    2  A    between atoms: C6_9  and  N3_10 
REMARK    3  A    between atoms: N3_10  and  C7_11 
REMARK    4  A    between atoms: C15_21  and  O2_22 
REMARK    5  A    between atoms: O2_22  and  C16_23 
REMARK    6  A    between atoms: C16_23  and  C17_24 
REMARK    7  A    between atoms: C17_24  and  C18_25 
REMARK    8  A    between atoms: C18_25  and  N4_26 
ROOT
HETATM    1  C2  UNL     1      32.962   5.860  48.718  1.00  0.00     0.103 A 
HETATM    2  C3  UNL     1      32.722   7.149  49.137  1.00  0.00     0.072 A 
HETATM    3  C4  UNL     1      31.458   7.698  49.033  1.00  0.00     0.075 A 
HETATM    4  N1  UNL     1      31.166   8.953  49.418  1.00  0.00    -0.241 NA
HETATM    5  C5  UNL     1      29.910   9.427  49.278  1.00  0.00     0.236 A 
HETATM    6  N2  UNL     1      28.975   8.617  48.749  1.00  0.00    -0.224 NA
HETATM    7  C6  UNL     1      29.208   7.358  48.348  1.00  0.00     0.142 A 
HETATM    8  C13 UNL     1      30.488   6.871  48.489  1.00  0.00     0.042 A 
HETATM    9  C14 UNL     1      30.715   5.588  48.069  1.00  0.00     0.057 A 
HETATM   10  C15 UNL     1      31.976   5.047  48.175  1.00  0.00     0.103 A 
ENDROOT
BRANCH   7  11
HETATM   11  N3  UNL     1      28.113   6.642  47.801  1.00  0.00    -0.340 N 
HETATM   12  H6  UNL     1      27.946   6.678  46.774  1.00  0.00     0.167 HD
BRANCH  11  13
HETATM   13  C7  UNL     1      27.232   5.871  48.604  1.00  0.00     0.035 A 
HETATM   14  C8  UNL     1      27.344   4.518  48.817  1.00  0.00     0.032 A 
HETATM   15  C9  UNL     1      26.491   3.773  49.613  1.00  0.00     0.046 A 
HETATM   16  C10 UNL     1      25.471   4.480  50.214  1.00  0.00     0.138 A 
HETATM   17  F1  UNL     1      24.610   3.769  51.012  1.00  0.00    -0.204 F 
HETATM   18  C11 UNL     1      25.262   5.835  50.072  1.00  0.00     0.074 A 
HETATM   19 CL1  UNL     1      23.971   6.691  50.841  1.00  0.00    -0.081 Cl
HETATM   20  C12 UNL     1      26.174   6.465  49.258  1.00  0.00     0.056 A 
ENDBRANCH  11  13
ENDBRANCH   7  11
BRANCH  10  21
HETATM   21  O2  UNL     1      32.447   3.810  47.830  1.00  0.00    -0.348 OA
BRANCH  21  22
HETATM   22  C16 UNL     1      32.628   3.318  46.524  1.00  0.00     0.177 C 
BRANCH  22  23
HETATM   23  C17 UNL     1      34.115   3.067  46.362  1.00  0.00     0.057 C 
BRANCH  23  24
HETATM   24  C18 UNL     1      34.710   4.196  45.587  1.00  0.00     0.274 C 
BRANCH  24  25
HETATM   25  N4  UNL     1      33.773   4.917  44.790  1.00  0.00     0.088 N 
HETATM   26  C19 UNL     1      33.833   6.326  45.034  1.00  0.00     0.272 C 
HETATM   27  C20 UNL     1      34.169   7.038  43.755  1.00  0.00     0.032 C 
HETATM   28  C21 UNL     1      34.665   5.898  42.852  1.00  0.00     0.032 C 
HETATM   29  C22 UNL     1      33.864   4.761  43.386  1.00  0.00     0.272 C 
ENDBRANCH  24  25
ENDBRANCH  23  24
ENDBRANCH  22  23
ENDBRANCH  21  22
ENDBRANCH  10  21
BRANCH   1  30
HETATM   30  O1  UNL     1      34.275   5.460  48.891  1.00  0.00    -0.353 OA
HETATM   31  C1  UNL     1      35.369   6.316  48.707  1.00  0.00     0.210 C 
ENDBRANCH   1  30
TORSDOF 8
ENDMDL
MODEL 7
REMARK VINA RESULT:      -7.7      5.186      8.100
REMARK  8 active torsions:
REMARK  status: ('A' for Active; 'I' for Inactive)
REMARK    1  A    between atoms: O1_2  and  C2_3 
REMARK    2  A    between atoms: C6_9  and  N3_10 
REMARK    3  A    between atoms: N3_10  and  C7_11 
REMARK    4  A    between atoms: C15_21  and  O2_22 
REMARK    5  A    between atoms: O2_22  and  C16_23 
REMARK    6  A    between atoms: C16_23  and  C17_24 
REMARK    7  A    between atoms: C17_24  and  C18_25 
REMARK    8  A    between atoms: C18_25  and  N4_26 
ROOT
HETATM    1  C2  UNL     1      27.047   6.734  48.598  1.00  0.00     0.103 A 
HETATM    2  C3  UNL     1      25.836   6.885  49.237  1.00  0.00     0.072 A 
HETATM    3  C4  UNL     1      25.249   5.819  49.891  1.00  0.00     0.075 A 
HETATM    4  N1  UNL     1      24.066   5.904  50.523  1.00  0.00    -0.241 NA
HETATM    5  C5  UNL     1      23.547   4.818  51.135  1.00  0.00     0.236 A 
HETATM    6  N2  UNL     1      24.242   3.666  51.091  1.00  0.00    -0.224 NA
HETATM    7  C6  UNL     1      25.425   3.523  50.476  1.00  0.00     0.142 A 
HETATM    8  C13 UNL     1      25.958   4.628  49.851  1.00  0.00     0.042 A 
HETATM    9  C14 UNL     1      27.161   4.466  49.221  1.00  0.00     0.057 A 
HETATM   10  C15 UNL     1      27.741   5.531  48.570  1.00  0.00     0.103 A 
ENDROOT
BRANCH   7  11
HETATM   11  N3  UNL     1      26.020   2.235  50.514  1.00  0.00    -0.340 N 
HETATM   12  H6  UNL     1      26.175   1.722  49.621  1.00  0.00     0.167 HD
BRANCH  11  13
HETATM   13  C7  UNL     1      26.415   1.617  51.729  1.00  0.00     0.035 A 
HETATM   14  C8  UNL     1      25.787   0.535  52.300  1.00  0.00     0.032 A 
HETATM   15  C9  UNL     1      26.184  -0.074  53.478  1.00  0.00     0.046 A 
HETATM   16  C10 UNL     1      27.293   0.476  54.086  1.00  0.00     0.138 A 
HETATM   17  F1  UNL     1      27.713  -0.108  55.255  1.00  0.00    -0.204 F 
HETATM   18  C11 UNL     1      28.000   1.557  53.605  1.00  0.00     0.074 A 
HETATM   19 CL1  UNL     1      29.387   2.223  54.396  1.00  0.00    -0.081 Cl
HETATM   20  C12 UNL     1      27.509   2.076  52.430  1.00  0.00     0.056 A 
ENDBRANCH  11  13
ENDBRANCH   7  11
BRANCH  10  21
HETATM   21  O2  UNL     1      28.917   5.620  47.877  1.00  0.00    -0.348 OA
BRANCH  21  22
HETATM   22  C16 UNL     1      30.195   5.837  48.423  1.00  0.00     0.177 C 
BRANCH  22  23
HETATM   23  C17 UNL     1      31.182   5.672  47.283  1.00  0.00     0.057 C 
BRANCH  23  24
HETATM   24  C18 UNL     1      32.377   4.932  47.787  1.00  0.00     0.274 C 
BRANCH  24  25
HETATM   25  N4  UNL     1      32.775   3.835  46.968  1.00  0.00     0.088 N 
HETATM   26  C19 UNL     1      33.347   4.268  45.730  1.00  0.00     0.272 C 
HETATM   27  C20 UNL     1      34.752   3.747  45.622  1.00  0.00     0.032 C 
HETATM   28  C21 UNL     1      35.061   3.304  47.060  1.00  0.00     0.032 C 
HETATM   29  C22 UNL     1      33.698   2.917  47.522  1.00  0.00     0.272 C 
ENDBRANCH  24  25
ENDBRANCH  23  24
ENDBRANCH  22  23
ENDBRANCH  21  22
ENDBRANCH  10  21
BRANCH   1  30
HETATM   30  O1  UNL     1      27.499   7.893  47.993  1.00  0.00    -0.353 OA
HETATM   31  C1  UNL     1      26.965   8.394  46.798  1.00  0.00     0.210 C 
ENDBRANCH   1  30
TORSDOF 8
ENDMDL
MODEL 8
REMARK VINA RESULT:      -7.7      3.671      7.144
REMARK  8 active torsions:
REMARK  status: ('A' for Active; 'I' for Inactive)
REMARK    1  A    between atoms: O1_2  and  C2_3 
REMARK    2  A    between atoms: C6_9  and  N3_10 
REMARK    3  A    between atoms: N3_10  and  C7_11 
REMARK    4  A    between atoms: C15_21  and  O2_22 
REMARK    5  A    between atoms: O2_22  and  C16_23 
REMARK    6  A    between atoms: C16_23  and  C17_24 
REMARK    7  A    between atoms: C17_24  and  C18_25 
REMARK    8  A    between atoms: C18_25  and  N4_26 
ROOT
HETATM    1  C2  UNL     1      23.285   1.461  52.228  1.00  0.00     0.103 A 
HETATM    2  C3  UNL     1      22.051   1.965  51.883  1.00  0.00     0.072 A 
HETATM    3  C4  UNL     1      21.881   3.318  51.662  1.00  0.00     0.075 A 
HETATM    4  N1  UNL     1      20.700   3.867  51.331  1.00  0.00    -0.241 NA
HETATM    5  C5  UNL     1      20.605   5.200  51.139  1.00  0.00     0.236 A 
HETATM    6  N2  UNL     1      21.713   5.949  51.288  1.00  0.00    -0.224 NA
HETATM    7  C6  UNL     1      22.917   5.456  51.616  1.00  0.00     0.142 A 
HETATM    8  C13 UNL     1      23.018   4.097  51.813  1.00  0.00     0.042 A 
HETATM    9  C14 UNL     1      24.249   3.608  52.156  1.00  0.00     0.057 A 
HETATM   10  C15 UNL     1      24.412   2.259  52.375  1.00  0.00     0.103 A 
ENDROOT
BRANCH   7  11
HETATM   11  N3  UNL     1      23.982   6.385  51.745  1.00  0.00    -0.340 N 
HETATM   12  H6  UNL     1      24.294   6.670  52.696  1.00  0.00     0.167 HD
BRANCH  11  13
HETATM   13  C7  UNL     1      24.642   6.943  50.619  1.00  0.00     0.035 A 
HETATM   14  C8  UNL     1      24.340   8.159  50.055  1.00  0.00     0.032 A 
HETATM   15  C9  UNL     1      24.997   8.707  48.966  1.00  0.00     0.046 A 
HETATM   16  C10 UNL     1      26.019   7.942  48.443  1.00  0.00     0.138 A 
HETATM   17  F1  UNL     1      26.690   8.459  47.363  1.00  0.00    -0.204 F 
HETATM   18  C11 UNL     1      26.407   6.711  48.926  1.00  0.00     0.074 A 
HETATM   19 CL1  UNL     1      27.694   5.777  48.243  1.00  0.00    -0.081 Cl
HETATM   20  C12 UNL     1      25.681   6.273  50.008  1.00  0.00     0.056 A 
ENDBRANCH  11  13
ENDBRANCH   7  11
BRANCH  10  21
HETATM   21  O2  UNL     1      25.522   1.540  52.723  1.00  0.00    -0.348 OA
BRANCH  21  22
HETATM   22  C16 UNL     1      26.562   1.138  51.865  1.00  0.00     0.177 C 
BRANCH  22  23
HETATM   23  C17 UNL     1      26.773  -0.344  52.110  1.00  0.00     0.057 C 
BRANCH  23  24
HETATM   24  C18 UNL     1      26.625  -0.614  53.571  1.00  0.00     0.274 C 
BRANCH  24  25
HETATM   25  N4  UNL     1      27.858  -0.831  54.254  1.00  0.00     0.088 N 
HETATM   26  C19 UNL     1      28.906  -1.222  53.361  1.00  0.00     0.272 C 
HETATM   27  C20 UNL     1      30.025  -0.224  53.442  1.00  0.00     0.032 C 
HETATM   28  C21 UNL     1      29.371   0.962  54.167  1.00  0.00     0.032 C 
HETATM   29  C22 UNL     1      28.374   0.246  55.012  1.00  0.00     0.272 C 
ENDBRANCH  24  25
ENDBRANCH  23  24
ENDBRANCH  22  23
ENDBRANCH  21  22
ENDBRANCH  10  21
BRANCH   1  30
HETATM   30  O1  UNL     1      23.288   0.090  52.413  1.00  0.00    -0.353 OA
HETATM   31  C1  UNL     1      22.723  -0.536  53.532  1.00  0.00     0.210 C 
ENDBRANCH   1  30
TORSDOF 8
ENDMDL
MODEL 9
REMARK VINA RESULT:      -7.6      2.736      4.601
REMARK  8 active torsions:
REMARK  status: ('A' for Active; 'I' for Inactive)
REMARK    1  A    between atoms: O1_2  and  C2_3 
REMARK    2  A    between atoms: C6_9  and  N3_10 
REMARK    3  A    between atoms: N3_10  and  C7_11 
REMARK    4  A    between atoms: C15_21  and  O2_22 
REMARK    5  A    between atoms: O2_22  and  C16_23 
REMARK    6  A    between atoms: C16_23  and  C17_24 
REMARK    7  A    between atoms: C17_24  and  C18_25 
REMARK    8  A    between atoms: C18_25  and  N4_26 
ROOT
HETATM    1  C2  UNL     1      23.405   3.282  49.212  1.00  0.00     0.103 A 
HETATM    2  C3  UNL     1      22.645   2.342  49.872  1.00  0.00     0.072 A 
HETATM    3  C4  UNL     1      23.063   1.825  51.084  1.00  0.00     0.075 A 
HETATM    4  N1  UNL     1      22.368   0.901  51.769  1.00  0.00    -0.241 NA
HETATM    5  C5  UNL     1      22.842   0.433  52.944  1.00  0.00     0.236 A 
HETATM    6  N2  UNL     1      24.013   0.915  53.399  1.00  0.00    -0.224 NA
HETATM    7  C6  UNL     1      24.748   1.837  52.759  1.00  0.00     0.142 A 
HETATM    8  C13 UNL     1      24.268   2.316  51.561  1.00  0.00     0.042 A 
HETATM    9  C14 UNL     1      25.032   3.250  50.914  1.00  0.00     0.057 A 
HETATM   10  C15 UNL     1      24.610   3.760  49.708  1.00  0.00     0.103 A 
ENDROOT
BRANCH   7  11
HETATM   11  N3  UNL     1      25.967   2.229  53.371  1.00  0.00    -0.340 N 
HETATM   12  H6  UNL     1      26.044   3.183  53.781  1.00  0.00     0.167 HD
BRANCH  11  13
HETATM   13  C7  UNL     1      27.090   1.365  53.447  1.00  0.00     0.035 A 
HETATM   14  C8  UNL     1      28.349   1.747  53.847  1.00  0.00     0.032 A 
HETATM   15  C9  UNL     1      29.438   0.897  53.934  1.00  0.00     0.046 A 
HETATM   16  C10 UNL     1      29.197  -0.415  53.586  1.00  0.00     0.138 A 
HETATM   17  F1  UNL     1      30.258  -1.283  53.664  1.00  0.00    -0.204 F 
HETATM   18  C11 UNL     1      27.979  -0.909  53.171  1.00  0.00     0.074 A 
HETATM   19 CL1  UNL     1      27.712  -2.563  52.740  1.00  0.00    -0.081 Cl
HETATM   20  C12 UNL     1      26.975   0.030  53.125  1.00  0.00     0.056 A 
ENDBRANCH  11  13
ENDBRANCH   7  11
BRANCH  10  21
HETATM   21  O2  UNL     1      25.187   4.686  48.881  1.00  0.00    -0.348 OA
BRANCH  21  22
HETATM   22  C16 UNL     1      26.445   5.291  49.051  1.00  0.00     0.177 C 
BRANCH  22  23
HETATM   23  C17 UNL     1      26.251   6.770  48.773  1.00  0.00     0.057 C 
BRANCH  23  24
HETATM   24  C18 UNL     1      25.994   7.471  50.066  1.00  0.00     0.274 C 
BRANCH  24  25
HETATM   25  N4  UNL     1      24.798   8.247  50.083  1.00  0.00     0.088 N 
HETATM   26  C19 UNL     1      24.229   8.387  48.778  1.00  0.00     0.272 C 
HETATM   27  C20 UNL     1      22.840   7.817  48.777  1.00  0.00     0.032 C 
HETATM   28  C21 UNL     1      22.806   7.003  50.080  1.00  0.00     0.032 C 
HETATM   29  C22 UNL     1      23.749   7.797  50.918  1.00  0.00     0.272 C 
ENDBRANCH  24  25
ENDBRANCH  23  24
ENDBRANCH  22  23
ENDBRANCH  21  22
ENDBRANCH  10  21
BRANCH   1  30
HETATM   30  O1  UNL     1      22.849   3.698  48.016  1.00  0.00    -0.353 OA
HETATM   31  C1  UNL     1      21.913   2.940  47.300  1.00  0.00     0.210 C 
ENDBRANCH   1  30
TORSDOF 8
ENDMDL
