MODEL 1
REMARK VINA RESULT:      -7.9      0.000      0.000
REMARK  3 active torsions:
REMARK  status: ('A' for Active; 'I' for Inactive)
REMARK    1  A    between atoms: N1_2  and  C2_3 
REMARK    2  A    between atoms: C10_12  and  C11_13 
REMARK    3  A    between atoms: C11_13  and  C12_14 
ROOT
HETATM    1  C12 UNL     1      26.655  -1.056  52.697  1.00  0.00    -0.013 C 
HETATM    2  C13 UNL     1      27.916  -0.908  53.082  1.00  0.00     0.160 C 
HETATM    3 BR1  UNL     1      29.772  -0.811  53.597  1.00  0.00    -0.172 Br
ENDROOT
BRANCH   1   4
HETATM    4  C11 UNL     1      25.683   0.052  52.913  1.00  0.00     0.089 C 
BRANCH   4   5
HETATM    5  C10 UNL     1      24.644  -0.450  53.853  1.00  0.00     0.070 A 
HETATM    6  C9  UNL     1      23.285  -0.249  53.607  1.00  0.00     0.107 A 
HETATM    7  N2  UNL     1      23.066   0.460  52.406  1.00  0.00    -0.380 N 
HETATM    8  C15 UNL     1      22.331  -0.712  54.472  1.00  0.00     0.200 A 
HETATM    9  C8  UNL     1      21.925   1.072  51.812  1.00  0.00     0.161 C 
HETATM   10  H8  UNL     1      23.899   0.585  51.789  1.00  0.00     0.160 HD
HETATM   11  C6  UNL     1      20.632   0.401  52.132  1.00  0.00    -0.004 A 
HETATM   12  C5  UNL     1      20.192  -0.324  53.233  1.00  0.00     0.086 A 
HETATM   13  C7  UNL     1      19.694   0.541  51.110  1.00  0.00     0.043 A 
HETATM   14  C4  UNL     1      18.918  -0.851  53.277  1.00  0.00     0.040 A 
HETATM   15  O1  UNL     1      20.949  -0.593  54.369  1.00  0.00    -0.289 OA
HETATM   16  C3  UNL     1      18.025  -0.673  52.215  1.00  0.00     0.034 A 
HETATM   17  C2  UNL     1      18.413   0.038  51.100  1.00  0.00     0.056 A 
HETATM   18  N4  UNL     1      22.657  -1.386  55.607  1.00  0.00    -0.215 NA
HETATM   19  C14 UNL     1      23.991  -1.555  55.798  1.00  0.00     0.236 A 
HETATM   20  N3  UNL     1      24.934  -1.111  54.967  1.00  0.00    -0.244 NA
BRANCH  17  21
HETATM   21  N1  UNL     1      17.575   0.266  49.980  1.00  0.00    -0.272 NA
HETATM   22  C1  UNL     1      16.502  -0.477  49.901  1.00  0.00     0.149 C 
ENDBRANCH  17  21
ENDBRANCH   4   5
ENDBRANCH   1   4
TORSDOF 3
ENDMDL
MODEL 2
REMARK VINA RESULT:      -7.4      3.896      7.489
REMARK  3 active torsions:
REMARK  status: ('A' for Active; 'I' for Inactive)
REMARK    1  A    between atoms: N1_2  and  C2_3 
REMARK    2  A    between atoms: C10_12  and  C11_13 
REMARK    3  A    between atoms: C11_13  and  C12_14 
ROOT
HETATM    1  C12 UNL     1      17.250  -3.719  53.263  1.00  0.00    -0.013 C 
HETATM    2  C13 UNL     1      16.484  -4.632  53.844  1.00  0.00     0.160 C 
HETATM    3 BR1  UNL     1      15.339  -6.004  54.571  1.00  0.00    -0.172 Br
ENDROOT
BRANCH   1   4
HETATM    4  C11 UNL     1      18.018  -2.758  54.103  1.00  0.00     0.089 C 
BRANCH   4   5
HETATM    5  C10 UNL     1      18.275  -1.552  53.270  1.00  0.00     0.070 A 
HETATM    6  C9  UNL     1      19.505  -0.893  53.308  1.00  0.00     0.107 A 
HETATM    7  N2  UNL     1      20.406  -1.509  54.202  1.00  0.00    -0.380 N 
HETATM    8  C15 UNL     1      19.741   0.216  52.540  1.00  0.00     0.200 A 
HETATM    9  C8  UNL     1      21.673  -1.142  54.741  1.00  0.00     0.161 C 
HETATM   10  H8  UNL     1      20.117  -2.441  54.574  1.00  0.00     0.160 HD
HETATM   11  C6  UNL     1      22.509  -0.308  53.832  1.00  0.00    -0.004 A 
HETATM   12  C5  UNL     1      22.193   0.615  52.840  1.00  0.00     0.086 A 
HETATM   13  C7  UNL     1      23.874  -0.508  54.030  1.00  0.00     0.043 A 
HETATM   14  C4  UNL     1      23.180   1.263  52.129  1.00  0.00     0.040 A 
HETATM   15  O1  UNL     1      20.902   0.977  52.467  1.00  0.00    -0.289 OA
HETATM   16  C3  UNL     1      24.533   1.015  52.380  1.00  0.00     0.034 A 
HETATM   17  C2  UNL     1      24.899   0.109  53.351  1.00  0.00     0.056 A 
HETATM   18  N4  UNL     1      18.795   0.727  51.708  1.00  0.00    -0.215 NA
HETATM   19  C14 UNL     1      17.618   0.049  51.709  1.00  0.00     0.236 A 
HETATM   20  N3  UNL     1      17.370  -1.032  52.449  1.00  0.00    -0.244 NA
BRANCH  17  21
HETATM   21  N1  UNL     1      26.245  -0.203  53.671  1.00  0.00    -0.272 NA
HETATM   22  C1  UNL     1      26.653   0.154  54.860  1.00  0.00     0.149 C 
ENDBRANCH  17  21
ENDBRANCH   4   5
ENDBRANCH   1   4
TORSDOF 3
ENDMDL
MODEL 3
REMARK VINA RESULT:      -7.3      3.753      7.954
REMARK  3 active torsions:
REMARK  status: ('A' for Active; 'I' for Inactive)
REMARK    1  A    between atoms: N1_2  and  C2_3 
REMARK    2  A    between atoms: C10_12  and  C11_13 
REMARK    3  A    between atoms: C11_13  and  C12_14 
ROOT
HETATM    1  C12 UNL     1      20.208   0.687  52.269  1.00  0.00    -0.013 C 
HETATM    2  C13 UNL     1      19.103   0.399  51.595  1.00  0.00     0.160 C 
HETATM    3 BR1  UNL     1      17.429   0.005  50.721  1.00  0.00    -0.172 Br
ENDROOT
BRANCH   1   4
HETATM    4  C11 UNL     1      21.529   0.619  51.585  1.00  0.00     0.089 C 
BRANCH   4   5
HETATM    5  C10 UNL     1      22.316   1.801  52.027  1.00  0.00     0.070 A 
HETATM    6  C9  UNL     1      23.578   1.657  52.606  1.00  0.00     0.107 A 
HETATM    7  N2  UNL     1      23.964   0.303  52.701  1.00  0.00    -0.380 N 
HETATM    8  C15 UNL     1      24.302   2.746  53.011  1.00  0.00     0.200 A 
HETATM    9  C8  UNL     1      25.026  -0.381  53.360  1.00  0.00     0.161 C 
HETATM   10  H8  UNL     1      23.363  -0.381  52.189  1.00  0.00     0.160 HD
HETATM   11  C6  UNL     1      26.283   0.410  53.480  1.00  0.00    -0.004 A 
HETATM   12  C5  UNL     1      26.535   1.773  53.585  1.00  0.00     0.086 A 
HETATM   13  C7  UNL     1      27.421  -0.397  53.487  1.00  0.00     0.043 A 
HETATM   14  C4  UNL     1      27.823   2.255  53.685  1.00  0.00     0.040 A 
HETATM   15  O1  UNL     1      25.562   2.767  53.599  1.00  0.00    -0.289 OA
HETATM   16  C3  UNL     1      28.921   1.388  53.686  1.00  0.00     0.034 A 
HETATM   17  C2  UNL     1      28.725   0.028  53.584  1.00  0.00     0.056 A 
HETATM   18  N4  UNL     1      23.832   4.014  52.871  1.00  0.00    -0.215 NA
HETATM   19  C14 UNL     1      22.601   4.098  52.302  1.00  0.00     0.236 A 
HETATM   20  N3  UNL     1      21.881   3.049  51.902  1.00  0.00    -0.244 NA
BRANCH  17  21
HETATM   21  N1  UNL     1      29.778  -0.922  53.577  1.00  0.00    -0.272 NA
HETATM   22  C1  UNL     1      29.434  -2.162  53.351  1.00  0.00     0.149 C 
ENDBRANCH  17  21
ENDBRANCH   4   5
ENDBRANCH   1   4
TORSDOF 3
ENDMDL
MODEL 4
REMARK VINA RESULT:      -7.1      4.858      7.819
REMARK  3 active torsions:
REMARK  status: ('A' for Active; 'I' for Inactive)
REMARK    1  A    between atoms: N1_2  and  C2_3 
REMARK    2  A    between atoms: C10_12  and  C11_13 
REMARK    3  A    between atoms: C11_13  and  C12_14 
ROOT
HETATM    1  C12 UNL     1      23.591   7.498  50.874  1.00  0.00    -0.013 C 
HETATM    2  C13 UNL     1      23.583   8.237  49.774  1.00  0.00     0.160 C 
HETATM    3 BR1  UNL     1      23.492   9.393  48.232  1.00  0.00    -0.172 Br
ENDROOT
BRANCH   1   4
HETATM    4  C11 UNL     1      24.397   6.246  50.917  1.00  0.00     0.089 C 
BRANCH   4   5
HETATM    5  C10 UNL     1      23.485   5.147  51.333  1.00  0.00     0.070 A 
HETATM    6  C9  UNL     1      23.957   3.849  51.532  1.00  0.00     0.107 A 
HETATM    7  N2  UNL     1      25.344   3.748  51.291  1.00  0.00    -0.380 N 
HETATM    8  C15 UNL     1      23.116   2.839  51.916  1.00  0.00     0.200 A 
HETATM    9  C8  UNL     1      26.250   2.657  51.165  1.00  0.00     0.161 C 
HETATM   10  H8  UNL     1      25.854   4.651  51.172  1.00  0.00     0.160 HD
HETATM   11  C6  UNL     1      25.892   1.464  51.984  1.00  0.00    -0.004 A 
HETATM   12  C5  UNL     1      24.676   0.949  52.422  1.00  0.00     0.086 A 
HETATM   13  C7  UNL     1      27.012   0.733  52.379  1.00  0.00     0.043 A 
HETATM   14  C4  UNL     1      24.621  -0.196  53.186  1.00  0.00     0.040 A 
HETATM   15  O1  UNL     1      23.429   1.505  52.152  1.00  0.00    -0.289 OA
HETATM   16  C3  UNL     1      25.786  -0.882  53.548  1.00  0.00     0.034 A 
HETATM   17  C2  UNL     1      27.015  -0.413  53.139  1.00  0.00     0.056 A 
HETATM   18  N4  UNL     1      21.788   3.049  52.121  1.00  0.00    -0.215 NA
HETATM   19  C14 UNL     1      21.382   4.329  51.914  1.00  0.00     0.236 A 
HETATM   20  N3  UNL     1      22.185   5.324  51.540  1.00  0.00    -0.244 NA
BRANCH  17  21
HETATM   21  N1  UNL     1      28.244  -1.043  53.460  1.00  0.00    -0.272 NA
HETATM   22  C1  UNL     1      29.065  -0.357  54.212  1.00  0.00     0.149 C 
ENDBRANCH  17  21
ENDBRANCH   4   5
ENDBRANCH   1   4
TORSDOF 3
ENDMDL
MODEL 5
REMARK VINA RESULT:      -7.0      4.604      7.488
REMARK  3 active torsions:
REMARK  status: ('A' for Active; 'I' for Inactive)
REMARK    1  A    between atoms: N1_2  and  C2_3 
REMARK    2  A    between atoms: C10_12  and  C11_13 
REMARK    3  A    between atoms: C11_13  and  C12_14 
ROOT
HETATM    1  C12 UNL     1      25.036   6.569  49.290  1.00  0.00    -0.013 C 
HETATM    2  C13 UNL     1      26.233   6.737  48.744  1.00  0.00     0.160 C 
HETATM    3 BR1  UNL     1      27.917   6.976  47.834  1.00  0.00    -0.172 Br
ENDROOT
BRANCH   1   4
HETATM    4  C11 UNL     1      24.901   6.530  50.773  1.00  0.00     0.089 C 
BRANCH   4   5
HETATM    5  C10 UNL     1      23.859   5.518  51.094  1.00  0.00     0.070 A 
HETATM    6  C9  UNL     1      24.190   4.177  51.301  1.00  0.00     0.107 A 
HETATM    7  N2  UNL     1      25.575   3.948  51.166  1.00  0.00    -0.380 N 
HETATM    8  C15 UNL     1      23.230   3.247  51.598  1.00  0.00     0.200 A 
HETATM    9  C8  UNL     1      26.383   2.777  51.089  1.00  0.00     0.161 C 
HETATM   10  H8  UNL     1      26.176   4.800  51.106  1.00  0.00     0.160 HD
HETATM   11  C6  UNL     1      25.850   1.613  51.852  1.00  0.00    -0.004 A 
HETATM   12  C5  UNL     1      24.561   1.211  52.183  1.00  0.00     0.086 A 
HETATM   13  C7  UNL     1      26.862   0.774  52.317  1.00  0.00     0.043 A 
HETATM   14  C4  UNL     1      24.337   0.065  52.917  1.00  0.00     0.040 A 
HETATM   15  O1  UNL     1      23.397   1.886  51.830  1.00  0.00    -0.289 OA
HETATM   16  C3  UNL     1      25.401  -0.733  53.353  1.00  0.00     0.034 A 
HETATM   17  C2  UNL     1      26.697  -0.378  53.051  1.00  0.00     0.056 A 
HETATM   18  N4  UNL     1      21.916   3.580  51.705  1.00  0.00    -0.215 NA
HETATM   19  C14 UNL     1      21.649   4.895  51.494  1.00  0.00     0.236 A 
HETATM   20  N3  UNL     1      22.569   5.815  51.204  1.00  0.00    -0.244 NA
BRANCH  17  21
HETATM   21  N1  UNL     1      27.833  -1.127  53.452  1.00  0.00    -0.272 NA
HETATM   22  C1  UNL     1      28.838  -0.439  53.928  1.00  0.00     0.149 C 
ENDBRANCH  17  21
ENDBRANCH   4   5
ENDBRANCH   1   4
TORSDOF 3
ENDMDL
MODEL 6
REMARK VINA RESULT:      -7.0      2.743      3.551
REMARK  3 active torsions:
REMARK  status: ('A' for Active; 'I' for Inactive)
REMARK    1  A    between atoms: N1_2  and  C2_3 
REMARK    2  A    between atoms: C10_12  and  C11_13 
REMARK    3  A    between atoms: C11_13  and  C12_14 
ROOT
HETATM    1  C12 UNL     1      26.807   2.833  51.177  1.00  0.00    -0.013 C 
HETATM    2  C13 UNL     1      26.235   3.764  50.426  1.00  0.00     0.160 C 
HETATM    3 BR1  UNL     1      25.452   5.206  49.412  1.00  0.00    -0.172 Br
ENDROOT
BRANCH   1   4
HETATM    4  C11 UNL     1      26.655   1.396  50.814  1.00  0.00     0.089 C 
BRANCH   4   5
HETATM    5  C10 UNL     1      26.466   0.639  52.081  1.00  0.00     0.070 A 
HETATM    6  C9  UNL     1      25.197   0.447  52.629  1.00  0.00     0.107 A 
HETATM    7  N2  UNL     1      24.188   1.045  51.845  1.00  0.00    -0.380 N 
HETATM    8  C15 UNL     1      25.025  -0.252  53.794  1.00  0.00     0.200 A 
HETATM    9  C8  UNL     1      22.801   1.302  52.045  1.00  0.00     0.161 C 
HETATM   10  H8  UNL     1      24.482   1.388  50.904  1.00  0.00     0.160 HD
HETATM   11  C6  UNL     1      22.109   0.301  52.906  1.00  0.00    -0.004 A 
HETATM   12  C5  UNL     1      22.541  -0.501  53.956  1.00  0.00     0.086 A 
HETATM   13  C7  UNL     1      20.762   0.154  52.574  1.00  0.00     0.043 A 
HETATM   14  C4  UNL     1      21.677  -1.363  54.598  1.00  0.00     0.040 A 
HETATM   15  O1  UNL     1      23.837  -0.527  54.462  1.00  0.00    -0.289 OA
HETATM   16  C3  UNL     1      20.335  -1.460  54.213  1.00  0.00     0.034 A 
HETATM   17  C2  UNL     1      19.857  -0.688  53.178  1.00  0.00     0.056 A 
HETATM   18  N4  UNL     1      26.075  -0.789  54.471  1.00  0.00    -0.215 NA
HETATM   19  C14 UNL     1      27.286  -0.573  53.895  1.00  0.00     0.236 A 
HETATM   20  N3  UNL     1      27.473   0.104  52.762  1.00  0.00    -0.244 NA
BRANCH  17  21
HETATM   21  N1  UNL     1      18.515  -0.723  52.723  1.00  0.00    -0.272 NA
HETATM   22  C1  UNL     1      17.713  -1.540  53.354  1.00  0.00     0.149 C 
ENDBRANCH  17  21
ENDBRANCH   4   5
ENDBRANCH   1   4
TORSDOF 3
ENDMDL
MODEL 7
REMARK VINA RESULT:      -7.0      2.273      3.648
REMARK  3 active torsions:
REMARK  status: ('A' for Active; 'I' for Inactive)
REMARK    1  A    between atoms: N1_2  and  C2_3 
REMARK    2  A    between atoms: C10_12  and  C11_13 
REMARK    3  A    between atoms: C11_13  and  C12_14 
ROOT
HETATM    1  C12 UNL     1      27.250   1.793  52.579  1.00  0.00    -0.013 C 
HETATM    2  C13 UNL     1      28.103   0.947  53.139  1.00  0.00     0.160 C 
HETATM    3 BR1  UNL     1      29.433  -0.245  53.869  1.00  0.00    -0.172 Br
ENDROOT
BRANCH   1   4
HETATM    4  C11 UNL     1      25.857   1.888  53.099  1.00  0.00     0.089 C 
BRANCH   4   5
HETATM    5  C10 UNL     1      24.970   2.158  51.936  1.00  0.00     0.070 A 
HETATM    6  C9  UNL     1      23.741   1.511  51.795  1.00  0.00     0.107 A 
HETATM    7  N2  UNL     1      23.490   0.618  52.858  1.00  0.00    -0.380 N 
HETATM    8  C15 UNL     1      22.926   1.762  50.724  1.00  0.00     0.200 A 
HETATM    9  C8  UNL     1      22.514  -0.393  53.093  1.00  0.00     0.161 C 
HETATM   10  H8  UNL     1      24.142   0.681  53.672  1.00  0.00     0.160 HD
HETATM   11  C6  UNL     1      21.189  -0.125  52.464  1.00  0.00    -0.004 A 
HETATM   12  C5  UNL     1      20.810   0.564  51.318  1.00  0.00     0.086 A 
HETATM   13  C7  UNL     1      20.136  -0.684  53.186  1.00  0.00     0.043 A 
HETATM   14  C4  UNL     1      19.484   0.667  50.953  1.00  0.00     0.040 A 
HETATM   15  O1  UNL     1      21.683   1.203  50.443  1.00  0.00    -0.289 OA
HETATM   16  C3  UNL     1      18.475   0.080  51.724  1.00  0.00     0.034 A 
HETATM   17  C2  UNL     1      18.799  -0.614  52.870  1.00  0.00     0.056 A 
HETATM   18  N4  UNL     1      23.269   2.647  49.751  1.00  0.00    -0.215 NA
HETATM   19  C14 UNL     1      24.473   3.249  49.937  1.00  0.00     0.236 A 
HETATM   20  N3  UNL     1      25.280   3.018  50.972  1.00  0.00    -0.244 NA
BRANCH  17  21
HETATM   21  N1  UNL     1      17.842  -1.238  53.710  1.00  0.00    -0.272 NA
HETATM   22  C1  UNL     1      17.780  -2.542  53.643  1.00  0.00     0.149 C 
ENDBRANCH  17  21
ENDBRANCH   4   5
ENDBRANCH   1   4
TORSDOF 3
ENDMDL
MODEL 8
REMARK VINA RESULT:      -6.8      3.699      7.212
REMARK  3 active torsions:
REMARK  status: ('A' for Active; 'I' for Inactive)
REMARK    1  A    between atoms: N1_2  and  C2_3 
REMARK    2  A    between atoms: C10_12  and  C11_13 
REMARK    3  A    between atoms: C11_13  and  C12_14 
ROOT
HETATM    1  C12 UNL     1      21.253   5.794  50.473  1.00  0.00    -0.013 C 
HETATM    2  C13 UNL     1      21.956   5.759  49.349  1.00  0.00     0.160 C 
HETATM    3 BR1  UNL     1      22.876   5.754  47.654  1.00  0.00    -0.172 Br
ENDROOT
BRANCH   1   4
HETATM    4  C11 UNL     1      21.878   5.347  51.749  1.00  0.00     0.089 C 
BRANCH   4   5
HETATM    5  C10 UNL     1      21.388   3.969  52.021  1.00  0.00     0.070 A 
HETATM    6  C9  UNL     1      22.272   2.930  52.314  1.00  0.00     0.107 A 
HETATM    7  N2  UNL     1      23.616   3.362  52.310  1.00  0.00    -0.380 N 
HETATM    8  C15 UNL     1      21.820   1.662  52.565  1.00  0.00     0.200 A 
HETATM    9  C8  UNL     1      24.872   2.692  52.353  1.00  0.00     0.161 C 
HETATM   10  H8  UNL     1      23.764   4.395  52.266  1.00  0.00     0.160 HD
HETATM   11  C6  UNL     1      24.859   1.412  53.116  1.00  0.00    -0.004 A 
HETATM   12  C5  UNL     1      23.870   0.462  53.351  1.00  0.00     0.086 A 
HETATM   13  C7  UNL     1      26.092   1.130  53.704  1.00  0.00     0.043 A 
HETATM   14  C4  UNL     1      24.125  -0.659  54.111  1.00  0.00     0.040 A 
HETATM   15  O1  UNL     1      22.567   0.529  52.869  1.00  0.00    -0.289 OA
HETATM   16  C3  UNL     1      25.388  -0.881  54.672  1.00  0.00     0.034 A 
HETATM   17  C2  UNL     1      26.401   0.029  54.469  1.00  0.00     0.056 A 
HETATM   18  N4  UNL     1      20.496   1.354  52.543  1.00  0.00    -0.215 NA
HETATM   19  C14 UNL     1      19.679   2.401  52.253  1.00  0.00     0.236 A 
HETATM   20  N3  UNL     1      20.101   3.641  52.005  1.00  0.00    -0.244 NA
BRANCH  17  21
HETATM   21  N1  UNL     1      27.708  -0.115  55.000  1.00  0.00    -0.272 NA
HETATM   22  C1  UNL     1      28.664   0.501  54.354  1.00  0.00     0.149 C 
ENDBRANCH  17  21
ENDBRANCH   4   5
ENDBRANCH   1   4
TORSDOF 3
ENDMDL
MODEL 9
REMARK VINA RESULT:      -6.4      3.573      4.592
REMARK  3 active torsions:
REMARK  status: ('A' for Active; 'I' for Inactive)
REMARK    1  A    between atoms: N1_2  and  C2_3 
REMARK    2  A    between atoms: C10_12  and  C11_13 
REMARK    3  A    between atoms: C11_13  and  C12_14 
ROOT
HETATM    1  C12 UNL     1      24.927   4.404  49.093  1.00  0.00    -0.013 C 
HETATM    2  C13 UNL     1      25.802   5.388  48.935  1.00  0.00     0.160 C 
HETATM    3 BR1  UNL     1      27.103   6.770  48.592  1.00  0.00    -0.172 Br
ENDROOT
BRANCH   1   4
HETATM    4  C11 UNL     1      24.113   4.333  50.337  1.00  0.00     0.089 C 
BRANCH   4   5
HETATM    5  C10 UNL     1      24.645   3.207  51.150  1.00  0.00     0.070 A 
HETATM    6  C9  UNL     1      23.800   2.394  51.906  1.00  0.00     0.107 A 
HETATM    7  N2  UNL     1      22.449   2.783  51.788  1.00  0.00    -0.380 N 
HETATM    8  C15 UNL     1      24.292   1.357  52.653  1.00  0.00     0.200 A 
HETATM    9  C8  UNL     1      21.252   2.427  52.474  1.00  0.00     0.161 C 
HETATM   10  H8  UNL     1      22.238   3.486  51.045  1.00  0.00     0.160 HD
HETATM   11  C6  UNL     1      21.229   1.026  52.982  1.00  0.00    -0.004 A 
HETATM   12  C5  UNL     1      22.230   0.160  53.410  1.00  0.00     0.086 A 
HETATM   13  C7  UNL     1      19.939   0.498  53.029  1.00  0.00     0.043 A 
HETATM   14  C4  UNL     1      21.932  -1.115  53.840  1.00  0.00     0.040 A 
HETATM   15  O1  UNL     1      23.586   0.465  53.452  1.00  0.00    -0.289 OA
HETATM   16  C3  UNL     1      20.614  -1.582  53.862  1.00  0.00     0.034 A 
HETATM   17  C2  UNL     1      19.586  -0.764  53.448  1.00  0.00     0.056 A 
HETATM   18  N4  UNL     1      25.621   1.069  52.694  1.00  0.00    -0.215 NA
HETATM   19  C14 UNL     1      26.398   1.890  51.941  1.00  0.00     0.236 A 
HETATM   20  N3  UNL     1      25.938   2.904  51.209  1.00  0.00    -0.244 NA
BRANCH  17  21
HETATM   21  N1  UNL     1      18.223  -1.154  53.436  1.00  0.00    -0.272 NA
HETATM   22  C1  UNL     1      17.983  -2.417  53.677  1.00  0.00     0.149 C 
ENDBRANCH  17  21
ENDBRANCH   4   5
ENDBRANCH   1   4
TORSDOF 3
ENDMDL
