MODEL 1
REMARK VINA RESULT:      -7.2      0.000      0.000
REMARK  8 active torsions:
REMARK  status: ('A' for Active; 'I' for Inactive)
REMARK    1  A    between atoms: S1_2  and  C1_4 
REMARK    2  A    between atoms: S1_2  and  O4_7 
REMARK    3  A    between atoms: C1_4  and  C2_5 
REMARK    4  A    between atoms: C2_5  and  O3_6 
REMARK    5  A    between atoms: O4_7  and  N1_8 
REMARK    6  A    between atoms: C3_9  and  C4_10 
REMARK    7  A    between atoms: C6_13  and  N3_14 
REMARK    8  A    between atoms: N3_14  and  C7_15 
ROOT
HETATM    1  C4  UNL     1      24.091   1.906  52.829  1.00  0.00     0.095 A 
HETATM    2  C5  UNL     1      24.102   3.375  53.207  1.00  0.00     0.106 A 
HETATM    3  N2  UNL     1      24.189   4.135  52.155  1.00  0.00    -0.247 NA
HETATM    4  C6  UNL     1      24.242   3.267  51.032  1.00  0.00     0.124 A 
HETATM    5  C13 UNL     1      24.189   1.968  51.375  1.00  0.00     0.039 A 
ENDROOT
BRANCH   1   6
HETATM    6  C3  UNL     1      25.272   1.304  53.507  1.00  0.00     0.134 C 
HETATM    7  N1  UNL     1      26.205   2.006  54.111  1.00  0.00    -0.131 NA
BRANCH   7   8
HETATM    8  O4  UNL     1      27.265   1.284  54.705  1.00  0.00    -0.127 OA
BRANCH   8   9
HETATM    9  S1  UNL     1      28.794   1.598  53.999  1.00  0.00     0.289 S 
HETATM   10  O1  UNL     1      28.575   2.373  52.737  1.00  0.00    -0.197 OA
HETATM   11  O2  UNL     1      29.578   2.393  55.022  1.00  0.00    -0.197 OA
BRANCH   9  12
HETATM   12  C1  UNL     1      29.705   0.146  53.646  1.00  0.00     0.198 C 
BRANCH  12  13
HETATM   13  C2  UNL     1      28.775  -1.038  53.408  1.00  0.00     0.181 C 
BRANCH  13  14
HETATM   14  O3  UNL     1      27.693  -0.556  52.666  1.00  0.00    -0.400 OA
HETATM   15  H5  UNL     1      28.057  -0.319  51.769  1.00  0.00     0.209 HD
ENDBRANCH  13  14
ENDBRANCH  12  13
ENDBRANCH   9  12
ENDBRANCH   8   9
ENDBRANCH   7   8
ENDBRANCH   1   6
BRANCH   4  16
HETATM   16  N3  UNL     1      24.343   3.667  49.662  1.00  0.00    -0.341 N 
HETATM   17  H9  UNL     1      23.612   3.343  48.995  1.00  0.00     0.167 HD
BRANCH  16  18
HETATM   18  C7  UNL     1      25.428   4.491  49.230  1.00  0.00     0.034 A 
HETATM   19  C8  UNL     1      26.731   4.039  49.180  1.00  0.00     0.029 A 
HETATM   20  C9  UNL     1      27.772   4.841  48.763  1.00  0.00     0.004 A 
HETATM   21  C10 UNL     1      27.479   6.156  48.381  1.00  0.00     0.019 A 
HETATM   22  C11 UNL     1      26.156   6.583  48.444  1.00  0.00     0.013 A 
HETATM   23 BR1  UNL     1      25.750   8.371  47.948  1.00  0.00    -0.051 Br
HETATM   24  C12 UNL     1      25.123   5.785  48.858  1.00  0.00     0.048 A 
ENDBRANCH  16  18
ENDBRANCH   4  16
TORSDOF 8
ENDMDL
MODEL 2
REMARK VINA RESULT:      -7.0      1.258      1.838
REMARK  8 active torsions:
REMARK  status: ('A' for Active; 'I' for Inactive)
REMARK    1  A    between atoms: S1_2  and  C1_4 
REMARK    2  A    between atoms: S1_2  and  O4_7 
REMARK    3  A    between atoms: C1_4  and  C2_5 
REMARK    4  A    between atoms: C2_5  and  O3_6 
REMARK    5  A    between atoms: O4_7  and  N1_8 
REMARK    6  A    between atoms: C3_9  and  C4_10 
REMARK    7  A    between atoms: C6_13  and  N3_14 
REMARK    8  A    between atoms: N3_14  and  C7_15 
ROOT
HETATM    1  C4  UNL     1      23.532   1.328  52.729  1.00  0.00     0.095 A 
HETATM    2  C5  UNL     1      24.065   2.664  53.208  1.00  0.00     0.106 A 
HETATM    3  N2  UNL     1      24.282   3.474  52.213  1.00  0.00    -0.247 NA
HETATM    4  C6  UNL     1      23.925   2.768  51.033  1.00  0.00     0.124 A 
HETATM    5  C13 UNL     1      23.487   1.522  51.284  1.00  0.00     0.039 A 
ENDROOT
BRANCH   1   6
HETATM    6  C3  UNL     1      24.517   0.310  53.189  1.00  0.00     0.134 C 
HETATM    7  N1  UNL     1      25.518   0.575  54.000  1.00  0.00    -0.131 NA
BRANCH   7   8
HETATM    8  O4  UNL     1      26.368  -0.502  54.340  1.00  0.00    -0.127 OA
BRANCH   8   9
HETATM    9  S1  UNL     1      28.035  -0.143  54.179  1.00  0.00     0.289 S 
HETATM   10  O1  UNL     1      28.534   0.356  55.500  1.00  0.00    -0.197 OA
HETATM   11  O2  UNL     1      28.709  -1.437  53.772  1.00  0.00    -0.197 OA
BRANCH   9  12
HETATM   12  C1  UNL     1      28.372   1.042  52.938  1.00  0.00     0.198 C 
BRANCH  12  13
HETATM   13  C2  UNL     1      28.711   2.395  53.552  1.00  0.00     0.181 C 
BRANCH  13  14
HETATM   14  O3  UNL     1      27.556   2.845  54.196  1.00  0.00    -0.400 OA
HETATM   15  H5  UNL     1      27.091   2.030  54.531  1.00  0.00     0.209 HD
ENDBRANCH  13  14
ENDBRANCH  12  13
ENDBRANCH   9  12
ENDBRANCH   8   9
ENDBRANCH   7   8
ENDBRANCH   1   6
BRANCH   4  16
HETATM   16  N3  UNL     1      24.002   3.269  49.695  1.00  0.00    -0.341 N 
HETATM   17  H9  UNL     1      23.268   2.982  49.014  1.00  0.00     0.167 HD
BRANCH  16  18
HETATM   18  C7  UNL     1      25.067   4.144  49.313  1.00  0.00     0.034 A 
HETATM   19  C8  UNL     1      26.385   3.740  49.284  1.00  0.00     0.029 A 
HETATM   20  C9  UNL     1      27.407   4.590  48.916  1.00  0.00     0.004 A 
HETATM   21  C10 UNL     1      27.076   5.904  48.563  1.00  0.00     0.019 A 
HETATM   22  C11 UNL     1      25.737   6.282  48.603  1.00  0.00     0.013 A 
HETATM   23 BR1  UNL     1      25.278   8.067  48.145  1.00  0.00    -0.051 Br
HETATM   24  C12 UNL     1      24.724   5.436  48.969  1.00  0.00     0.048 A 
ENDBRANCH  16  18
ENDBRANCH   4  16
TORSDOF 8
ENDMDL
MODEL 3
REMARK VINA RESULT:      -6.9      3.256      4.220
REMARK  8 active torsions:
REMARK  status: ('A' for Active; 'I' for Inactive)
REMARK    1  A    between atoms: S1_2  and  C1_4 
REMARK    2  A    between atoms: S1_2  and  O4_7 
REMARK    3  A    between atoms: C1_4  and  C2_5 
REMARK    4  A    between atoms: C2_5  and  O3_6 
REMARK    5  A    between atoms: O4_7  and  N1_8 
REMARK    6  A    between atoms: C3_9  and  C4_10 
REMARK    7  A    between atoms: C6_13  and  N3_14 
REMARK    8  A    between atoms: N3_14  and  C7_15 
ROOT
HETATM    1  C4  UNL     1      22.306  -1.299  54.488  1.00  0.00     0.095 A 
HETATM    2  C5  UNL     1      21.367  -0.181  54.897  1.00  0.00     0.106 A 
HETATM    3  N2  UNL     1      20.893   0.444  53.860  1.00  0.00    -0.247 NA
HETATM    4  C6  UNL     1      21.458  -0.183  52.717  1.00  0.00     0.124 A 
HETATM    5  C13 UNL     1      22.282  -1.196  53.033  1.00  0.00     0.039 A 
ENDROOT
BRANCH   1   6
HETATM    6  C3  UNL     1      23.618  -0.975  55.113  1.00  0.00     0.134 C 
HETATM    7  N1  UNL     1      24.740  -0.854  54.437  1.00  0.00    -0.131 NA
BRANCH   7   8
HETATM    8  O4  UNL     1      25.903  -0.545  55.178  1.00  0.00    -0.127 OA
BRANCH   8   9
HETATM    9  S1  UNL     1      27.075   0.333  54.289  1.00  0.00     0.289 S 
HETATM   10  O1  UNL     1      26.924  -0.020  52.842  1.00  0.00    -0.197 OA
HETATM   11  O2  UNL     1      26.790   1.798  54.546  1.00  0.00    -0.197 OA
BRANCH   9  12
HETATM   12  C1  UNL     1      28.716   0.015  54.803  1.00  0.00     0.198 C 
BRANCH  12  13
HETATM   13  C2  UNL     1      29.712   0.373  53.706  1.00  0.00     0.181 C 
BRANCH  13  14
HETATM   14  O3  UNL     1      29.314   1.610  53.192  1.00  0.00    -0.400 OA
HETATM   15  H5  UNL     1      28.626   1.963  53.820  1.00  0.00     0.209 HD
ENDBRANCH  13  14
ENDBRANCH  12  13
ENDBRANCH   9  12
ENDBRANCH   8   9
ENDBRANCH   7   8
ENDBRANCH   1   6
BRANCH   4  16
HETATM   16  N3  UNL     1      21.217   0.177  51.353  1.00  0.00    -0.341 N 
HETATM   17  H9  UNL     1      20.434  -0.287  50.847  1.00  0.00     0.167 HD
BRANCH  16  18
HETATM   18  C7  UNL     1      22.042   1.152  50.709  1.00  0.00     0.034 A 
HETATM   19  C8  UNL     1      23.171   1.678  51.301  1.00  0.00     0.029 A 
HETATM   20  C9  UNL     1      23.960   2.619  50.674  1.00  0.00     0.004 A 
HETATM   21  C10 UNL     1      23.587   3.043  49.393  1.00  0.00     0.019 A 
HETATM   22  C11 UNL     1      22.442   2.495  48.822  1.00  0.00     0.013 A 
HETATM   23 BR1  UNL     1      21.915   3.076  47.092  1.00  0.00    -0.051 Br
HETATM   24  C12 UNL     1      21.660   1.559  49.447  1.00  0.00     0.048 A 
ENDBRANCH  16  18
ENDBRANCH   4  16
TORSDOF 8
ENDMDL
MODEL 4
REMARK VINA RESULT:      -6.8      5.212      6.920
REMARK  8 active torsions:
REMARK  status: ('A' for Active; 'I' for Inactive)
REMARK    1  A    between atoms: S1_2  and  C1_4 
REMARK    2  A    between atoms: S1_2  and  O4_7 
REMARK    3  A    between atoms: C1_4  and  C2_5 
REMARK    4  A    between atoms: C2_5  and  O3_6 
REMARK    5  A    between atoms: O4_7  and  N1_8 
REMARK    6  A    between atoms: C3_9  and  C4_10 
REMARK    7  A    between atoms: C6_13  and  N3_14 
REMARK    8  A    between atoms: N3_14  and  C7_15 
ROOT
HETATM    1  C4  UNL     1      23.319  -0.899  53.555  1.00  0.00     0.095 A 
HETATM    2  C5  UNL     1      22.545  -1.311  54.791  1.00  0.00     0.106 A 
HETATM    3  N2  UNL     1      21.395  -0.708  54.856  1.00  0.00    -0.247 NA
HETATM    4  C6  UNL     1      21.313   0.128  53.710  1.00  0.00     0.124 A 
HETATM    5  C13 UNL     1      22.404   0.050  52.929  1.00  0.00     0.039 A 
ENDROOT
BRANCH   1   6
HETATM    6  C3  UNL     1      24.589  -0.301  54.052  1.00  0.00     0.134 C 
HETATM    7  N1  UNL     1      25.643  -1.008  54.401  1.00  0.00    -0.131 NA
BRANCH   7   8
HETATM    8  O4  UNL     1      26.772  -0.290  54.856  1.00  0.00    -0.127 OA
BRANCH   8   9
HETATM    9  S1  UNL     1      28.053  -0.227  53.720  1.00  0.00     0.289 S 
HETATM   10  O1  UNL     1      28.717  -1.569  53.692  1.00  0.00    -0.197 OA
HETATM   11  O2  UNL     1      27.421   0.119  52.388  1.00  0.00    -0.197 OA
BRANCH   9  12
HETATM   12  C1  UNL     1      29.238   1.008  54.080  1.00  0.00     0.198 C 
BRANCH  12  13
HETATM   13  C2  UNL     1      28.743   2.383  53.649  1.00  0.00     0.181 C 
BRANCH  13  14
HETATM   14  O3  UNL     1      27.404   2.468  54.040  1.00  0.00    -0.400 OA
HETATM   15  H5  UNL     1      27.390   2.296  55.021  1.00  0.00     0.209 HD
ENDBRANCH  13  14
ENDBRANCH  12  13
ENDBRANCH   9  12
ENDBRANCH   8   9
ENDBRANCH   7   8
ENDBRANCH   1   6
BRANCH   4  16
HETATM   16  N3  UNL     1      20.218   0.983  53.367  1.00  0.00    -0.341 N 
HETATM   17  H9  UNL     1      20.105   1.878  53.887  1.00  0.00     0.167 HD
BRANCH  16  18
HETATM   18  C7  UNL     1      19.304   0.606  52.334  1.00  0.00     0.034 A 
HETATM   19  C8  UNL     1      19.424   1.057  51.035  1.00  0.00     0.029 A 
HETATM   20  C9  UNL     1      18.538   0.690  50.045  1.00  0.00     0.004 A 
HETATM   21  C10 UNL     1      17.487  -0.169  50.387  1.00  0.00     0.019 A 
HETATM   22  C11 UNL     1      17.391  -0.605  51.704  1.00  0.00     0.013 A 
HETATM   23 BR1  UNL     1      15.958  -1.755  52.184  1.00  0.00    -0.051 Br
HETATM   24  C12 UNL     1      18.273  -0.240  52.687  1.00  0.00     0.048 A 
ENDBRANCH  16  18
ENDBRANCH   4  16
TORSDOF 8
ENDMDL
MODEL 5
REMARK VINA RESULT:      -6.6      3.687      5.856
REMARK  8 active torsions:
REMARK  status: ('A' for Active; 'I' for Inactive)
REMARK    1  A    between atoms: S1_2  and  C1_4 
REMARK    2  A    between atoms: S1_2  and  O4_7 
REMARK    3  A    between atoms: C1_4  and  C2_5 
REMARK    4  A    between atoms: C2_5  and  O3_6 
REMARK    5  A    between atoms: O4_7  and  N1_8 
REMARK    6  A    between atoms: C3_9  and  C4_10 
REMARK    7  A    between atoms: C6_13  and  N3_14 
REMARK    8  A    between atoms: N3_14  and  C7_15 
ROOT
HETATM    1  C4  UNL     1      24.471   3.874  50.511  1.00  0.00     0.095 A 
HETATM    2  C5  UNL     1      23.911   2.785  49.616  1.00  0.00     0.106 A 
HETATM    3  N2  UNL     1      22.855   2.235  50.140  1.00  0.00    -0.247 NA
HETATM    4  C6  UNL     1      22.634   2.889  51.382  1.00  0.00     0.124 A 
HETATM    5  C13 UNL     1      23.545   3.843  51.638  1.00  0.00     0.039 A 
ENDROOT
BRANCH   1   6
HETATM    6  C3  UNL     1      25.862   3.455  50.837  1.00  0.00     0.134 C 
HETATM    7  N1  UNL     1      26.161   2.569  51.762  1.00  0.00    -0.131 NA
BRANCH   7   8
HETATM    8  O4  UNL     1      27.532   2.283  51.953  1.00  0.00    -0.127 OA
BRANCH   8   9
HETATM    9  S1  UNL     1      27.903   1.704  53.522  1.00  0.00     0.289 S 
HETATM   10  O1  UNL     1      28.880   2.650  54.149  1.00  0.00    -0.197 OA
HETATM   11  O2  UNL     1      26.592   1.662  54.279  1.00  0.00    -0.197 OA
BRANCH   9  12
HETATM   12  C1  UNL     1      28.568   0.086  53.525  1.00  0.00     0.198 C 
BRANCH  12  13
HETATM   13  C2  UNL     1      27.533  -0.931  53.061  1.00  0.00     0.181 C 
BRANCH  13  14
HETATM   14  O3  UNL     1      26.758  -0.298  52.085  1.00  0.00    -0.400 OA
HETATM   15  H5  UNL     1      26.701  -0.936  51.321  1.00  0.00     0.209 HD
ENDBRANCH  13  14
ENDBRANCH  12  13
ENDBRANCH   9  12
ENDBRANCH   8   9
ENDBRANCH   7   8
ENDBRANCH   1   6
BRANCH   4  16
HETATM   16  N3  UNL     1      21.578   2.608  52.306  1.00  0.00    -0.341 N 
HETATM   17  H9  UNL     1      20.927   3.378  52.566  1.00  0.00     0.167 HD
BRANCH  16  18
HETATM   18  C7  UNL     1      21.430   1.295  52.854  1.00  0.00     0.034 A 
HETATM   19  C8  UNL     1      22.491   0.582  53.371  1.00  0.00     0.029 A 
HETATM   20  C9  UNL     1      22.340  -0.684  53.897  1.00  0.00     0.004 A 
HETATM   21  C10 UNL     1      21.059  -1.249  53.897  1.00  0.00     0.019 A 
HETATM   22  C11 UNL     1      20.009  -0.505  53.366  1.00  0.00     0.013 A 
HETATM   23 BR1  UNL     1      18.270  -1.269  53.343  1.00  0.00    -0.051 Br
HETATM   24  C12 UNL     1      20.161   0.753  52.845  1.00  0.00     0.048 A 
ENDBRANCH  16  18
ENDBRANCH   4  16
TORSDOF 8
ENDMDL
MODEL 6
REMARK VINA RESULT:      -6.4      3.062      4.032
REMARK  8 active torsions:
REMARK  status: ('A' for Active; 'I' for Inactive)
REMARK    1  A    between atoms: S1_2  and  C1_4 
REMARK    2  A    between atoms: S1_2  and  O4_7 
REMARK    3  A    between atoms: C1_4  and  C2_5 
REMARK    4  A    between atoms: C2_5  and  O3_6 
REMARK    5  A    between atoms: O4_7  and  N1_8 
REMARK    6  A    between atoms: C3_9  and  C4_10 
REMARK    7  A    between atoms: C6_13  and  N3_14 
REMARK    8  A    between atoms: N3_14  and  C7_15 
ROOT
HETATM    1  C4  UNL     1      22.412  -1.185  53.975  1.00  0.00     0.095 A 
HETATM    2  C5  UNL     1      21.480  -0.381  54.860  1.00  0.00     0.106 A 
HETATM    3  N2  UNL     1      20.945   0.610  54.211  1.00  0.00    -0.247 NA
HETATM    4  C6  UNL     1      21.460   0.550  52.888  1.00  0.00     0.124 A 
HETATM    5  C13 UNL     1      22.313  -0.471  52.707  1.00  0.00     0.039 A 
ENDROOT
BRANCH   1   6
HETATM    6  C3  UNL     1      23.750  -1.114  54.626  1.00  0.00     0.134 C 
HETATM    7  N1  UNL     1      24.799  -0.537  54.080  1.00  0.00    -0.131 NA
BRANCH   7   8
HETATM    8  O4  UNL     1      25.999  -0.557  54.826  1.00  0.00    -0.127 OA
BRANCH   8   9
HETATM    9  S1  UNL     1      27.341   0.102  53.990  1.00  0.00     0.289 S 
HETATM   10  O1  UNL     1      26.823   0.994  52.905  1.00  0.00    -0.197 OA
HETATM   11  O2  UNL     1      28.144   0.872  55.019  1.00  0.00    -0.197 OA
BRANCH   9  12
HETATM   12  C1  UNL     1      28.393  -1.114  53.300  1.00  0.00     0.198 C 
BRANCH  12  13
HETATM   13  C2  UNL     1      27.587  -2.279  52.740  1.00  0.00     0.181 C 
BRANCH  13  14
HETATM   14  O3  UNL     1      28.391  -3.416  52.855  1.00  0.00    -0.400 OA
HETATM   15  H5  UNL     1      28.187  -3.810  53.747  1.00  0.00     0.209 HD
ENDBRANCH  13  14
ENDBRANCH  12  13
ENDBRANCH   9  12
ENDBRANCH   8   9
ENDBRANCH   7   8
ENDBRANCH   1   6
BRANCH   4  16
HETATM   16  N3  UNL     1      21.146   1.450  51.821  1.00  0.00    -0.341 N 
HETATM   17  H9  UNL     1      20.362   1.207  51.179  1.00  0.00     0.167 HD
BRANCH  16  18
HETATM   18  C7  UNL     1      21.900   2.653  51.646  1.00  0.00     0.034 A 
HETATM   19  C8  UNL     1      21.448   3.882  52.081  1.00  0.00     0.029 A 
HETATM   20  C9  UNL     1      22.180   5.038  51.908  1.00  0.00     0.004 A 
HETATM   21  C10 UNL     1      23.421   4.942  51.267  1.00  0.00     0.019 A 
HETATM   22  C11 UNL     1      23.849   3.689  50.839  1.00  0.00     0.013 A 
HETATM   23 BR1  UNL     1      25.522   3.549  49.951  1.00  0.00    -0.051 Br
HETATM   24  C12 UNL     1      23.120   2.542  51.013  1.00  0.00     0.048 A 
ENDBRANCH  16  18
ENDBRANCH   4  16
TORSDOF 8
ENDMDL
MODEL 7
REMARK VINA RESULT:      -6.4      1.614      2.507
REMARK  8 active torsions:
REMARK  status: ('A' for Active; 'I' for Inactive)
REMARK    1  A    between atoms: S1_2  and  C1_4 
REMARK    2  A    between atoms: S1_2  and  O4_7 
REMARK    3  A    between atoms: C1_4  and  C2_5 
REMARK    4  A    between atoms: C2_5  and  O3_6 
REMARK    5  A    between atoms: O4_7  and  N1_8 
REMARK    6  A    between atoms: C3_9  and  C4_10 
REMARK    7  A    between atoms: C6_13  and  N3_14 
REMARK    8  A    between atoms: N3_14  and  C7_15 
ROOT
HETATM    1  C4  UNL     1      23.397   1.373  52.779  1.00  0.00     0.095 A 
HETATM    2  C5  UNL     1      24.185   2.621  53.127  1.00  0.00     0.106 A 
HETATM    3  N2  UNL     1      24.377   3.369  52.081  1.00  0.00    -0.247 NA
HETATM    4  C6  UNL     1      23.755   2.705  50.990  1.00  0.00     0.124 A 
HETATM    5  C13 UNL     1      23.176   1.546  51.347  1.00  0.00     0.039 A 
ENDROOT
BRANCH   1   6
HETATM    6  C3  UNL     1      24.274   0.226  53.139  1.00  0.00     0.134 C 
HETATM    7  N1  UNL     1      25.265   0.304  54.001  1.00  0.00    -0.131 NA
BRANCH   7   8
HETATM    8  O4  UNL     1      26.007  -0.876  54.232  1.00  0.00    -0.127 OA
BRANCH   8   9
HETATM    9  S1  UNL     1      27.297  -1.106  53.129  1.00  0.00     0.289 S 
HETATM   10  O1  UNL     1      27.300  -2.543  52.707  1.00  0.00    -0.197 OA
HETATM   11  O2  UNL     1      27.029  -0.176  51.964  1.00  0.00    -0.197 OA
BRANCH   9  12
HETATM   12  C1  UNL     1      28.860  -0.686  53.793  1.00  0.00     0.198 C 
BRANCH  12  13
HETATM   13  C2  UNL     1      28.729   0.405  54.849  1.00  0.00     0.181 C 
BRANCH  13  14
HETATM   14  O3  UNL     1      27.870   1.373  54.323  1.00  0.00    -0.400 OA
HETATM   15  H5  UNL     1      28.451   2.122  54.017  1.00  0.00     0.209 HD
ENDBRANCH  13  14
ENDBRANCH  12  13
ENDBRANCH   9  12
ENDBRANCH   8   9
ENDBRANCH   7   8
ENDBRANCH   1   6
BRANCH   4  16
HETATM   16  N3  UNL     1      23.715   3.164  49.636  1.00  0.00    -0.341 N 
HETATM   17  H9  UNL     1      23.176   2.610  48.938  1.00  0.00     0.167 HD
BRANCH  16  18
HETATM   18  C7  UNL     1      24.405   4.359  49.259  1.00  0.00     0.034 A 
HETATM   19  C8  UNL     1      23.755   5.556  49.044  1.00  0.00     0.029 A 
HETATM   20  C9  UNL     1      24.428   6.703  48.680  1.00  0.00     0.004 A 
HETATM   21  C10 UNL     1      25.818   6.632  48.526  1.00  0.00     0.019 A 
HETATM   22  C11 UNL     1      26.445   5.409  48.748  1.00  0.00     0.013 A 
HETATM   23 BR1  UNL     1      28.327   5.295  48.524  1.00  0.00    -0.051 Br
HETATM   24  C12 UNL     1      25.775   4.271  49.111  1.00  0.00     0.048 A 
ENDBRANCH  16  18
ENDBRANCH   4  16
TORSDOF 8
ENDMDL
MODEL 8
REMARK VINA RESULT:      -6.4      3.958      6.062
REMARK  8 active torsions:
REMARK  status: ('A' for Active; 'I' for Inactive)
REMARK    1  A    between atoms: S1_2  and  C1_4 
REMARK    2  A    between atoms: S1_2  and  O4_7 
REMARK    3  A    between atoms: C1_4  and  C2_5 
REMARK    4  A    between atoms: C2_5  and  O3_6 
REMARK    5  A    between atoms: O4_7  and  N1_8 
REMARK    6  A    between atoms: C3_9  and  C4_10 
REMARK    7  A    between atoms: C6_13  and  N3_14 
REMARK    8  A    between atoms: N3_14  and  C7_15 
ROOT
HETATM    1  C4  UNL     1      23.813   3.682  52.162  1.00  0.00     0.095 A 
HETATM    2  C5  UNL     1      24.350   2.979  50.930  1.00  0.00     0.106 A 
HETATM    3  N2  UNL     1      23.420   2.297  50.329  1.00  0.00    -0.247 NA
HETATM    4  C6  UNL     1      22.231   2.482  51.084  1.00  0.00     0.124 A 
HETATM    5  C13 UNL     1      22.412   3.275  52.154  1.00  0.00     0.039 A 
ENDROOT
BRANCH   1   6
HETATM    6  C3  UNL     1      24.606   3.156  53.307  1.00  0.00     0.134 C 
HETATM    7  N1  UNL     1      25.599   2.302  53.178  1.00  0.00    -0.131 NA
BRANCH   7   8
HETATM    8  O4  UNL     1      26.251   1.896  54.365  1.00  0.00    -0.127 OA
BRANCH   8   9
HETATM    9  S1  UNL     1      27.054   0.389  54.230  1.00  0.00     0.289 S 
HETATM   10  O1  UNL     1      26.361  -0.591  55.124  1.00  0.00    -0.197 OA
HETATM   11  O2  UNL     1      26.960  -0.011  52.772  1.00  0.00    -0.197 OA
BRANCH   9  12
HETATM   12  C1  UNL     1      28.751   0.469  54.648  1.00  0.00     0.198 C 
BRANCH  12  13
HETATM   13  C2  UNL     1      29.574  -0.468  53.772  1.00  0.00     0.181 C 
BRANCH  13  14
HETATM   14  O3  UNL     1      28.915  -1.700  53.770  1.00  0.00    -0.400 OA
HETATM   15  H5  UNL     1      28.739  -1.919  52.814  1.00  0.00     0.209 HD
ENDBRANCH  13  14
ENDBRANCH  12  13
ENDBRANCH   9  12
ENDBRANCH   8   9
ENDBRANCH   7   8
ENDBRANCH   1   6
BRANCH   4  16
HETATM   16  N3  UNL     1      20.951   1.913  50.793  1.00  0.00    -0.341 N 
HETATM   17  H9  UNL     1      20.446   2.235  49.941  1.00  0.00     0.167 HD
BRANCH  16  18
HETATM   18  C7  UNL     1      20.386   0.927  51.661  1.00  0.00     0.034 A 
HETATM   19  C8  UNL     1      19.054   0.569  51.612  1.00  0.00     0.029 A 
HETATM   20  C9  UNL     1      18.517  -0.382  52.453  1.00  0.00     0.004 A 
HETATM   21  C10 UNL     1      19.366  -0.995  53.382  1.00  0.00     0.019 A 
HETATM   22  C11 UNL     1      20.704  -0.613  53.408  1.00  0.00     0.013 A 
HETATM   23 BR1  UNL     1      21.861  -1.425  54.676  1.00  0.00    -0.051 Br
HETATM   24  C12 UNL     1      21.236   0.332  52.570  1.00  0.00     0.048 A 
ENDBRANCH  16  18
ENDBRANCH   4  16
TORSDOF 8
ENDMDL
MODEL 9
REMARK VINA RESULT:      -6.3      3.696      4.802
REMARK  8 active torsions:
REMARK  status: ('A' for Active; 'I' for Inactive)
REMARK    1  A    between atoms: S1_2  and  C1_4 
REMARK    2  A    between atoms: S1_2  and  O4_7 
REMARK    3  A    between atoms: C1_4  and  C2_5 
REMARK    4  A    between atoms: C2_5  and  O3_6 
REMARK    5  A    between atoms: O4_7  and  N1_8 
REMARK    6  A    between atoms: C3_9  and  C4_10 
REMARK    7  A    between atoms: C6_13  and  N3_14 
REMARK    8  A    between atoms: N3_14  and  C7_15 
ROOT
HETATM    1  C4  UNL     1      25.037   2.095  52.865  1.00  0.00     0.095 A 
HETATM    2  C5  UNL     1      26.538   1.912  52.748  1.00  0.00     0.106 A 
HETATM    3  N2  UNL     1      26.974   2.294  51.584  1.00  0.00    -0.247 NA
HETATM    4  C6  UNL     1      25.840   2.746  50.857  1.00  0.00     0.124 A 
HETATM    5  C13 UNL     1      24.698   2.648  51.558  1.00  0.00     0.039 A 
ENDROOT
BRANCH   1   6
HETATM    6  C3  UNL     1      24.483   0.739  53.129  1.00  0.00     0.134 C 
HETATM    7  N1  UNL     1      23.269   0.366  52.787  1.00  0.00    -0.131 NA
BRANCH   7   8
HETATM    8  O4  UNL     1      22.891  -0.957  53.112  1.00  0.00    -0.127 OA
BRANCH   8   9
HETATM    9  S1  UNL     1      21.741  -1.055  54.378  1.00  0.00     0.289 S 
HETATM   10  O1  UNL     1      22.283  -1.972  55.430  1.00  0.00    -0.197 OA
HETATM   11  O2  UNL     1      21.562   0.357  54.896  1.00  0.00    -0.197 OA
BRANCH   9  12
HETATM   12  C1  UNL     1      20.175  -1.628  53.849  1.00  0.00     0.198 C 
BRANCH  12  13
HETATM   13  C2  UNL     1      19.398  -0.522  53.144  1.00  0.00     0.181 C 
BRANCH  13  14
HETATM   14  O3  UNL     1      20.299   0.121  52.291  1.00  0.00    -0.400 OA
HETATM   15  H5  UNL     1      19.931   0.018  51.371  1.00  0.00     0.209 HD
ENDBRANCH  13  14
ENDBRANCH  12  13
ENDBRANCH   9  12
ENDBRANCH   8   9
ENDBRANCH   7   8
ENDBRANCH   1   6
BRANCH   4  16
HETATM   16  N3  UNL     1      25.846   3.257  49.521  1.00  0.00    -0.341 N 
HETATM   17  H9  UNL     1      25.453   2.665  48.760  1.00  0.00     0.167 HD
BRANCH  16  18
HETATM   18  C7  UNL     1      26.383   4.555  49.247  1.00  0.00     0.034 A 
HETATM   19  C8  UNL     1      27.609   4.739  48.642  1.00  0.00     0.029 A 
HETATM   20  C9  UNL     1      28.120   5.993  48.384  1.00  0.00     0.004 A 
HETATM   21  C10 UNL     1      27.355   7.106  48.754  1.00  0.00     0.019 A 
HETATM   22  C11 UNL     1      26.123   6.888  49.364  1.00  0.00     0.013 A 
HETATM   23 BR1  UNL     1      25.086   8.389  49.889  1.00  0.00    -0.051 Br
HETATM   24  C12 UNL     1      25.617   5.641  49.619  1.00  0.00     0.048 A 
ENDBRANCH  16  18
ENDBRANCH   4  16
TORSDOF 8
ENDMDL
