MODEL 1
REMARK VINA RESULT:      -7.4      0.000      0.000
REMARK  4 active torsions:
REMARK  status: ('A' for Active; 'I' for Inactive)
REMARK    1  A    between atoms: C2_2  and  O1_3 
REMARK    2  A    between atoms: O1_3  and  C3_4 
REMARK    3  A    between atoms: N3_12  and  C9_13 
REMARK    4  A    between atoms: C16_20  and  O2_21 
ROOT
HETATM    1  C3  UNL     1      26.667   1.534  52.260  1.00  0.00     0.077 C 
HETATM    2  C4  UNL     1      25.613   0.738  52.156  1.00  0.00     0.040 C 
HETATM    3  C5  UNL     1      24.813  -0.087  53.046  1.00  0.00     0.163 C 
HETATM    4  C6  UNL     1      25.427  -0.480  54.309  1.00  0.00     0.062 C 
HETATM    5  N1  UNL     1      24.824  -1.098  55.263  1.00  0.00    -0.244 NA
HETATM    6  C7  UNL     1      23.483  -1.557  55.381  1.00  0.00     0.229 C 
HETATM    7  N2  UNL     1      22.428  -1.022  54.871  1.00  0.00    -0.263 NA
HETATM    8  C8  UNL     1      22.311   0.147  54.066  1.00  0.00     0.275 C 
HETATM    9  N3  UNL     1      23.467   0.456  53.255  1.00  0.00    -0.352 N 
HETATM   10  C14 UNL     1      26.783  -0.302  54.813  1.00  0.00     0.028 C 
HETATM   11  C15 UNL     1      27.578   0.708  54.420  1.00  0.00     0.013 C 
HETATM   12  C16 UNL     1      27.399   1.820  53.492  1.00  0.00     0.197 C 
ENDROOT
BRANCH   9  13
HETATM   13  C9  UNL     1      23.097   1.612  52.496  1.00  0.00     0.013 A 
HETATM   14  C10 UNL     1      23.215   2.911  52.588  1.00  0.00     0.025 A 
HETATM   15  C11 UNL     1      22.611   3.610  51.460  1.00  0.00    -0.002 A 
HETATM   16  C12 UNL     1      22.106   2.685  50.650  1.00  0.00    -0.021 A 
HETATM   17  C13 UNL     1      22.363   1.340  51.227  1.00  0.00     0.084 A 
ENDBRANCH   9  13
BRANCH   1  18
HETATM   18  O1  UNL     1      27.112   2.150  51.085  1.00  0.00    -0.353 OA
BRANCH  18  19
HETATM   19  C2  UNL     1      26.204   2.774  50.219  1.00  0.00     0.171 C 
HETATM   20  C1  UNL     1      26.753   3.965  49.491  1.00  0.00     0.034 C 
ENDBRANCH  18  19
ENDBRANCH   1  18
BRANCH  12  21
HETATM   21  O2  UNL     1      26.824   2.945  54.077  1.00  0.00    -0.385 OA
HETATM   22  H19 UNL     1      27.165   3.092  54.979  1.00  0.00     0.210 HD
ENDBRANCH  12  21
TORSDOF 4
ENDMDL
MODEL 2
REMARK VINA RESULT:      -7.2      1.049      1.265
REMARK  4 active torsions:
REMARK  status: ('A' for Active; 'I' for Inactive)
REMARK    1  A    between atoms: C2_2  and  O1_3 
REMARK    2  A    between atoms: O1_3  and  C3_4 
REMARK    3  A    between atoms: N3_12  and  C9_13 
REMARK    4  A    between atoms: C16_20  and  O2_21 
ROOT
HETATM    1  C3  UNL     1      26.590   2.093  51.874  1.00  0.00     0.077 C 
HETATM    2  C4  UNL     1      25.381   1.630  51.592  1.00  0.00     0.040 C 
HETATM    3  C5  UNL     1      24.388   0.790  52.240  1.00  0.00     0.163 C 
HETATM    4  C6  UNL     1      24.861  -0.086  53.306  1.00  0.00     0.062 C 
HETATM    5  N1  UNL     1      24.106  -0.799  54.066  1.00  0.00    -0.244 NA
HETATM    6  C7  UNL     1      22.692  -0.948  54.106  1.00  0.00     0.229 C 
HETATM    7  N2  UNL     1      21.805  -0.058  53.821  1.00  0.00    -0.263 NA
HETATM    8  C8  UNL     1      21.986   1.289  53.396  1.00  0.00     0.275 C 
HETATM    9  N3  UNL     1      23.203   1.544  52.658  1.00  0.00    -0.352 N 
HETATM   10  C14 UNL     1      26.207  -0.383  53.778  1.00  0.00     0.028 C 
HETATM   11  C15 UNL     1      27.226   0.485  53.660  1.00  0.00     0.013 C 
HETATM   12  C16 UNL     1      27.337   1.830  53.102  1.00  0.00     0.197 C 
ENDROOT
BRANCH   9  13
HETATM   13  C9  UNL     1      23.133   2.924  52.284  1.00  0.00     0.013 A 
HETATM   14  C10 UNL     1      23.579   4.072  52.725  1.00  0.00     0.025 A 
HETATM   15  C11 UNL     1      23.165   5.193  51.889  1.00  0.00    -0.002 A 
HETATM   16  C12 UNL     1      22.435   4.693  50.897  1.00  0.00    -0.021 A 
HETATM   17  C13 UNL     1      22.346   3.218  51.052  1.00  0.00     0.084 A 
ENDBRANCH   9  13
BRANCH   1  18
HETATM   18  O1  UNL     1      27.197   2.905  50.910  1.00  0.00    -0.353 OA
BRANCH  18  19
HETATM   19  C2  UNL     1      26.430   3.523  49.913  1.00  0.00     0.171 C 
HETATM   20  C1  UNL     1      27.198   4.453  49.020  1.00  0.00     0.034 C 
ENDBRANCH  18  19
ENDBRANCH   1  18
BRANCH  12  21
HETATM   21  O2  UNL     1      27.028   2.835  54.014  1.00  0.00    -0.385 OA
HETATM   22  H19 UNL     1      26.539   3.565  53.590  1.00  0.00     0.210 HD
ENDBRANCH  12  21
TORSDOF 4
ENDMDL
MODEL 3
REMARK VINA RESULT:      -7.1      1.857      4.549
REMARK  4 active torsions:
REMARK  status: ('A' for Active; 'I' for Inactive)
REMARK    1  A    between atoms: C2_2  and  O1_3 
REMARK    2  A    between atoms: O1_3  and  C3_4 
REMARK    3  A    between atoms: N3_12  and  C9_13 
REMARK    4  A    between atoms: C16_20  and  O2_21 
ROOT
HETATM    1  C3  UNL     1      25.836   1.899  53.147  1.00  0.00     0.077 C 
HETATM    2  C4  UNL     1      24.568   2.278  53.084  1.00  0.00     0.040 C 
HETATM    3  C5  UNL     1      23.598   2.572  52.044  1.00  0.00     0.163 C 
HETATM    4  C6  UNL     1      24.125   2.892  50.723  1.00  0.00     0.062 C 
HETATM    5  N1  UNL     1      23.414   3.053  49.662  1.00  0.00    -0.244 NA
HETATM    6  C7  UNL     1      22.009   2.978  49.457  1.00  0.00     0.229 C 
HETATM    7  N2  UNL     1      21.169   2.221  50.075  1.00  0.00    -0.263 NA
HETATM    8  C8  UNL     1      21.406   1.274  51.112  1.00  0.00     0.275 C 
HETATM    9  N3  UNL     1      22.539   1.561  51.963  1.00  0.00    -0.352 N 
HETATM   10  C14 UNL     1      25.491   3.103  50.260  1.00  0.00     0.028 C 
HETATM   11  C15 UNL     1      26.555   2.538  50.854  1.00  0.00     0.013 C 
HETATM   12  C16 UNL     1      26.706   1.646  52.000  1.00  0.00     0.197 C 
ENDROOT
BRANCH   9  13
HETATM   13  C9  UNL     1      22.537   0.527  52.953  1.00  0.00     0.013 A 
HETATM   14  C10 UNL     1      23.278  -0.498  53.286  1.00  0.00     0.025 A 
HETATM   15  C11 UNL     1      22.749  -1.221  54.437  1.00  0.00    -0.002 A 
HETATM   16  C12 UNL     1      21.637  -0.599  54.814  1.00  0.00    -0.021 A 
HETATM   17  C13 UNL     1      21.398   0.560  53.915  1.00  0.00     0.084 A 
ENDBRANCH   9  13
BRANCH   1  18
HETATM   18  O1  UNL     1      26.383   1.729  54.423  1.00  0.00    -0.353 OA
BRANCH  18  19
HETATM   19  C2  UNL     1      26.711   0.451  54.894  1.00  0.00     0.171 C 
HETATM   20  C1  UNL     1      28.180   0.146  54.907  1.00  0.00     0.034 C 
ENDBRANCH  18  19
ENDBRANCH   1  18
BRANCH  12  21
HETATM   21  O2  UNL     1      26.596   0.298  51.671  1.00  0.00    -0.385 OA
HETATM   22  H19 UNL     1      27.471  -0.109  51.530  1.00  0.00     0.210 HD
ENDBRANCH  12  21
TORSDOF 4
ENDMDL
MODEL 4
REMARK VINA RESULT:      -6.6      1.972      2.516
REMARK  4 active torsions:
REMARK  status: ('A' for Active; 'I' for Inactive)
REMARK    1  A    between atoms: C2_2  and  O1_3 
REMARK    2  A    between atoms: O1_3  and  C3_4 
REMARK    3  A    between atoms: N3_12  and  C9_13 
REMARK    4  A    between atoms: C16_20  and  O2_21 
ROOT
HETATM    1  C3  UNL     1      24.105   2.146  51.389  1.00  0.00     0.077 C 
HETATM    2  C4  UNL     1      23.280   1.121  51.542  1.00  0.00     0.040 C 
HETATM    3  C5  UNL     1      22.971   0.152  52.581  1.00  0.00     0.163 C 
HETATM    4  C6  UNL     1      23.981  -0.052  53.612  1.00  0.00     0.062 C 
HETATM    5  N1  UNL     1      23.825  -0.771  54.668  1.00  0.00    -0.244 NA
HETATM    6  C7  UNL     1      22.714  -1.531  55.126  1.00  0.00     0.229 C 
HETATM    7  N2  UNL     1      21.465  -1.275  54.944  1.00  0.00    -0.263 NA
HETATM    8  C8  UNL     1      20.861  -0.188  54.250  1.00  0.00     0.275 C 
HETATM    9  N3  UNL     1      21.646   0.366  53.169  1.00  0.00    -0.352 N 
HETATM   10  C14 UNL     1      25.342   0.455  53.737  1.00  0.00     0.028 C 
HETATM   11  C15 UNL     1      25.739   1.614  53.185  1.00  0.00     0.013 C 
HETATM   12  C16 UNL     1      25.058   2.629  52.386  1.00  0.00     0.197 C 
ENDROOT
BRANCH   9  13
HETATM   13  C9  UNL     1      20.821   1.382  52.588  1.00  0.00     0.013 A 
HETATM   14  C10 UNL     1      20.643   2.672  52.706  1.00  0.00     0.025 A 
HETATM   15  C11 UNL     1      19.613   3.181  51.808  1.00  0.00    -0.002 A 
HETATM   16  C12 UNL     1      19.151   2.145  51.116  1.00  0.00    -0.021 A 
HETATM   17  C13 UNL     1      19.867   0.914  51.542  1.00  0.00     0.084 A 
ENDBRANCH   9  13
BRANCH   1  18
HETATM   18  O1  UNL     1      24.055   2.820  50.164  1.00  0.00    -0.353 OA
BRANCH  18  19
HETATM   19  C2  UNL     1      22.823   3.130  49.570  1.00  0.00     0.171 C 
HETATM   20  C1  UNL     1      22.631   2.560  48.195  1.00  0.00     0.034 C 
ENDBRANCH  18  19
ENDBRANCH   1  18
BRANCH  12  21
HETATM   21  O2  UNL     1      24.418   3.599  53.152  1.00  0.00    -0.385 OA
HETATM   22  H19 UNL     1      24.223   4.398  52.627  1.00  0.00     0.210 HD
ENDBRANCH  12  21
TORSDOF 4
ENDMDL
MODEL 5
REMARK VINA RESULT:      -6.4      2.794      4.789
REMARK  4 active torsions:
REMARK  status: ('A' for Active; 'I' for Inactive)
REMARK    1  A    between atoms: C2_2  and  O1_3 
REMARK    2  A    between atoms: O1_3  and  C3_4 
REMARK    3  A    between atoms: N3_12  and  C9_13 
REMARK    4  A    between atoms: C16_20  and  O2_21 
ROOT
HETATM    1  C3  UNL     1      21.676   1.940  52.445  1.00  0.00     0.077 C 
HETATM    2  C4  UNL     1      22.762   2.690  52.561  1.00  0.00     0.040 C 
HETATM    3  C5  UNL     1      24.200   2.484  52.553  1.00  0.00     0.163 C 
HETATM    4  C6  UNL     1      24.673   1.134  52.832  1.00  0.00     0.062 C 
HETATM    5  N1  UNL     1      25.898   0.746  52.743  1.00  0.00    -0.244 NA
HETATM    6  C7  UNL     1      27.077   1.450  52.375  1.00  0.00     0.229 C 
HETATM    7  N2  UNL     1      27.176   2.423  51.537  1.00  0.00    -0.263 NA
HETATM    8  C8  UNL     1      26.159   3.052  50.765  1.00  0.00     0.275 C 
HETATM    9  N3  UNL     1      24.838   3.033  51.352  1.00  0.00    -0.352 N 
HETATM   10  C14 UNL     1      23.961  -0.065  53.257  1.00  0.00     0.028 C 
HETATM   11  C15 UNL     1      22.665  -0.278  52.974  1.00  0.00     0.013 C 
HETATM   12  C16 UNL     1      21.658   0.492  52.250  1.00  0.00     0.197 C 
ENDROOT
BRANCH   9  13
HETATM   13  C9  UNL     1      24.011   3.769  50.444  1.00  0.00     0.013 A 
HETATM   14  C10 UNL     1      23.485   4.963  50.362  1.00  0.00     0.025 A 
HETATM   15  C11 UNL     1      22.699   5.148  49.147  1.00  0.00    -0.002 A 
HETATM   16  C12 UNL     1      22.757   4.008  48.467  1.00  0.00    -0.021 A 
HETATM   17  C13 UNL     1      23.588   3.032  49.219  1.00  0.00     0.084 A 
ENDBRANCH   9  13
BRANCH   1  18
HETATM   18  O1  UNL     1      20.443   2.598  52.516  1.00  0.00    -0.353 OA
BRANCH  18  19
HETATM   19  C2  UNL     1      20.143   3.649  51.638  1.00  0.00     0.171 C 
HETATM   20  C1  UNL     1      19.647   3.215  50.290  1.00  0.00     0.034 C 
ENDBRANCH  18  19
ENDBRANCH   1  18
BRANCH  12  21
HETATM   21  O2  UNL     1      21.651   0.246  50.880  1.00  0.00    -0.385 OA
HETATM   22  H19 UNL     1      22.396   0.690  50.433  1.00  0.00     0.210 HD
ENDBRANCH  12  21
TORSDOF 4
ENDMDL
MODEL 6
REMARK VINA RESULT:      -6.3      3.287      5.368
REMARK  4 active torsions:
REMARK  status: ('A' for Active; 'I' for Inactive)
REMARK    1  A    between atoms: C2_2  and  O1_3 
REMARK    2  A    between atoms: O1_3  and  C3_4 
REMARK    3  A    between atoms: N3_12  and  C9_13 
REMARK    4  A    between atoms: C16_20  and  O2_21 
ROOT
HETATM    1  C3  UNL     1      19.730   2.592  51.494  1.00  0.00     0.077 C 
HETATM    2  C4  UNL     1      20.424   2.340  52.593  1.00  0.00     0.040 C 
HETATM    3  C5  UNL     1      20.800   1.170  53.368  1.00  0.00     0.163 C 
HETATM    4  C6  UNL     1      19.995  -0.031  53.180  1.00  0.00     0.062 C 
HETATM    5  N1  UNL     1      20.259  -1.185  53.685  1.00  0.00    -0.244 NA
HETATM    6  C7  UNL     1      21.327  -1.620  54.516  1.00  0.00     0.229 C 
HETATM    7  N2  UNL     1      22.539  -1.183  54.523  1.00  0.00    -0.263 NA
HETATM    8  C8  UNL     1      23.133  -0.167  53.722  1.00  0.00     0.275 C 
HETATM    9  N3  UNL     1      22.232   0.871  53.273  1.00  0.00    -0.352 N 
HETATM   10  C14 UNL     1      18.765  -0.254  52.430  1.00  0.00     0.028 C 
HETATM   11  C15 UNL     1      18.425   0.480  51.357  1.00  0.00     0.013 C 
HETATM   12  C16 UNL     1      19.065   1.592  50.660  1.00  0.00     0.197 C 
ENDROOT
BRANCH   9  13
HETATM   13  C9  UNL     1      23.053   1.798  52.555  1.00  0.00     0.013 A 
HETATM   14  C10 UNL     1      23.755   2.872  52.810  1.00  0.00     0.025 A 
HETATM   15  C11 UNL     1      24.408   3.410  51.623  1.00  0.00    -0.002 A 
HETATM   16  C12 UNL     1      24.083   2.620  50.605  1.00  0.00    -0.021 A 
HETATM   17  C13 UNL     1      23.199   1.531  51.095  1.00  0.00     0.084 A 
ENDBRANCH   9  13
BRANCH   1  18
HETATM   18  O1  UNL     1      19.627   3.931  51.103  1.00  0.00    -0.353 OA
BRANCH  18  19
HETATM   19  C2  UNL     1      20.676   4.555  50.413  1.00  0.00     0.171 C 
HETATM   20  C1  UNL     1      21.425   5.581  51.211  1.00  0.00     0.034 C 
ENDBRANCH  18  19
ENDBRANCH   1  18
BRANCH  12  21
HETATM   21  O2  UNL     1      19.967   1.187  49.680  1.00  0.00    -0.385 OA
HETATM   22  H19 UNL     1      20.060   0.217  49.658  1.00  0.00     0.210 HD
ENDBRANCH  12  21
TORSDOF 4
ENDMDL
MODEL 7
REMARK VINA RESULT:      -6.2      3.518      5.844
REMARK  4 active torsions:
REMARK  status: ('A' for Active; 'I' for Inactive)
REMARK    1  A    between atoms: C2_2  and  O1_3 
REMARK    2  A    between atoms: O1_3  and  C3_4 
REMARK    3  A    between atoms: N3_12  and  C9_13 
REMARK    4  A    between atoms: C16_20  and  O2_21 
ROOT
HETATM    1  C3  UNL     1      19.461   2.369  51.655  1.00  0.00     0.077 C 
HETATM    2  C4  UNL     1      20.265   2.201  52.694  1.00  0.00     0.040 C 
HETATM    3  C5  UNL     1      20.803   1.084  53.451  1.00  0.00     0.163 C 
HETATM    4  C6  UNL     1      20.089  -0.184  53.351  1.00  0.00     0.062 C 
HETATM    5  N1  UNL     1      20.491  -1.300  53.849  1.00  0.00    -0.244 NA
HETATM    6  C7  UNL     1      21.658  -1.627  54.592  1.00  0.00     0.229 C 
HETATM    7  N2  UNL     1      22.825  -1.091  54.487  1.00  0.00    -0.263 NA
HETATM    8  C8  UNL     1      23.262  -0.048  53.622  1.00  0.00     0.275 C 
HETATM    9  N3  UNL     1      22.241   0.902  53.237  1.00  0.00    -0.352 N 
HETATM   10  C14 UNL     1      18.823  -0.524  52.713  1.00  0.00     0.028 C 
HETATM   11  C15 UNL     1      18.333   0.154  51.662  1.00  0.00     0.013 C 
HETATM   12  C16 UNL     1      18.815   1.300  50.897  1.00  0.00     0.197 C 
ENDROOT
BRANCH   9  13
HETATM   13  C9  UNL     1      22.918   1.878  52.437  1.00  0.00     0.013 A 
HETATM   14  C10 UNL     1      23.500   3.036  52.607  1.00  0.00     0.025 A 
HETATM   15  C11 UNL     1      24.035   3.583  51.365  1.00  0.00    -0.002 A 
HETATM   16  C12 UNL     1      23.761   2.708  50.403  1.00  0.00    -0.021 A 
HETATM   17  C13 UNL     1      23.031   1.553  50.986  1.00  0.00     0.084 A 
ENDBRANCH   9  13
BRANCH   1  18
HETATM   18  O1  UNL     1      19.214   3.687  51.254  1.00  0.00    -0.353 OA
BRANCH  18  19
HETATM   19  C2  UNL     1      17.969   4.047  50.719  1.00  0.00     0.171 C 
HETATM   20  C1  UNL     1      16.845   4.073  51.713  1.00  0.00     0.034 C 
ENDBRANCH  18  19
ENDBRANCH   1  18
BRANCH  12  21
HETATM   21  O2  UNL     1      19.662   0.950  49.848  1.00  0.00    -0.385 OA
HETATM   22  H19 UNL     1      20.488   0.548  50.174  1.00  0.00     0.210 HD
ENDBRANCH  12  21
TORSDOF 4
ENDMDL
MODEL 8
REMARK VINA RESULT:      -6.2      3.548      6.599
REMARK  4 active torsions:
REMARK  status: ('A' for Active; 'I' for Inactive)
REMARK    1  A    between atoms: C2_2  and  O1_3 
REMARK    2  A    between atoms: O1_3  and  C3_4 
REMARK    3  A    between atoms: N3_12  and  C9_13 
REMARK    4  A    between atoms: C16_20  and  O2_21 
ROOT
HETATM    1  C3  UNL     1      20.626   0.408  52.167  1.00  0.00     0.077 C 
HETATM    2  C4  UNL     1      21.528   0.407  51.197  1.00  0.00     0.040 C 
HETATM    3  C5  UNL     1      21.707   1.064  49.913  1.00  0.00     0.163 C 
HETATM    4  C6  UNL     1      20.514   1.614  49.283  1.00  0.00     0.062 C 
HETATM    5  N1  UNL     1      20.506   2.333  48.215  1.00  0.00    -0.244 NA
HETATM    6  C7  UNL     1      21.567   2.780  47.381  1.00  0.00     0.229 C 
HETATM    7  N2  UNL     1      22.771   3.070  47.737  1.00  0.00    -0.263 NA
HETATM    8  C8  UNL     1      23.362   3.023  49.032  1.00  0.00     0.275 C 
HETATM    9  N3  UNL     1      22.798   2.042  49.932  1.00  0.00    -0.352 N 
HETATM   10  C14 UNL     1      19.105   1.520  49.646  1.00  0.00     0.028 C 
HETATM   11  C15 UNL     1      18.692   1.339  50.912  1.00  0.00     0.013 C 
HETATM   12  C16 UNL     1      19.395   1.196  52.184  1.00  0.00     0.197 C 
ENDROOT
BRANCH   9  13
HETATM   13  C9  UNL     1      23.583   2.133  51.126  1.00  0.00     0.013 A 
HETATM   14  C10 UNL     1      24.554   1.473  51.701  1.00  0.00     0.025 A 
HETATM   15  C11 UNL     1      24.964   2.068  52.968  1.00  0.00    -0.002 A 
HETATM   16  C12 UNL     1      24.202   3.139  53.162  1.00  0.00    -0.021 A 
HETATM   17  C13 UNL     1      23.260   3.281  52.022  1.00  0.00     0.084 A 
ENDBRANCH   9  13
BRANCH   1  18
HETATM   18  O1  UNL     1      20.880  -0.417  53.268  1.00  0.00    -0.353 OA
BRANCH  18  19
HETATM   19  C2  UNL     1      21.882  -0.088  54.191  1.00  0.00     0.171 C 
HETATM   20  C1  UNL     1      22.449  -1.256  54.942  1.00  0.00     0.034 C 
ENDBRANCH  18  19
ENDBRANCH   1  18
BRANCH  12  21
HETATM   21  O2  UNL     1      19.674   2.411  52.803  1.00  0.00    -0.385 OA
HETATM   22  H19 UNL     1      19.569   2.352  53.771  1.00  0.00     0.210 HD
ENDBRANCH  12  21
TORSDOF 4
ENDMDL
MODEL 9
REMARK VINA RESULT:      -6.1      3.298      6.287
REMARK  4 active torsions:
REMARK  status: ('A' for Active; 'I' for Inactive)
REMARK    1  A    between atoms: C2_2  and  O1_3 
REMARK    2  A    between atoms: O1_3  and  C3_4 
REMARK    3  A    between atoms: N3_12  and  C9_13 
REMARK    4  A    between atoms: C16_20  and  O2_21 
ROOT
HETATM    1  C3  UNL     1      20.037   1.514  50.852  1.00  0.00     0.077 C 
HETATM    2  C4  UNL     1      21.242   0.970  50.767  1.00  0.00     0.040 C 
HETATM    3  C5  UNL     1      22.620   1.423  50.850  1.00  0.00     0.163 C 
HETATM    4  C6  UNL     1      22.859   2.845  50.632  1.00  0.00     0.062 C 
HETATM    5  N1  UNL     1      23.991   3.437  50.791  1.00  0.00    -0.244 NA
HETATM    6  C7  UNL     1      25.260   2.937  51.194  1.00  0.00     0.229 C 
HETATM    7  N2  UNL     1      25.494   1.966  52.007  1.00  0.00    -0.263 NA
HETATM    8  C8  UNL     1      24.571   1.140  52.712  1.00  0.00     0.275 C 
HETATM    9  N3  UNL     1      23.293   0.950  52.062  1.00  0.00    -0.352 N 
HETATM   10  C14 UNL     1      21.965   3.916  50.209  1.00  0.00     0.028 C 
HETATM   11  C15 UNL     1      20.641   3.889  50.436  1.00  0.00     0.013 C 
HETATM   12  C16 UNL     1      19.756   2.928  51.089  1.00  0.00     0.197 C 
ENDROOT
BRANCH   9  13
HETATM   13  C9  UNL     1      22.572   0.048  52.908  1.00  0.00     0.013 A 
HETATM   14  C10 UNL     1      22.428  -1.244  53.049  1.00  0.00     0.025 A 
HETATM   15  C11 UNL     1      21.519  -1.592  54.135  1.00  0.00    -0.002 A 
HETATM   16  C12 UNL     1      21.096  -0.453  54.672  1.00  0.00    -0.021 A 
HETATM   17  C13 UNL     1      21.718   0.687  53.950  1.00  0.00     0.084 A 
ENDBRANCH   9  13
BRANCH   1  18
HETATM   18  O1  UNL     1      18.943   0.654  50.704  1.00  0.00    -0.353 OA
BRANCH  18  19
HETATM   19  C2  UNL     1      18.631  -0.282  51.699  1.00  0.00     0.171 C 
HETATM   20  C1  UNL     1      17.198  -0.269  52.142  1.00  0.00     0.034 C 
ENDBRANCH  18  19
ENDBRANCH   1  18
BRANCH  12  21
HETATM   21  O2  UNL     1      19.649   3.118  52.464  1.00  0.00    -0.385 OA
HETATM   22  H19 UNL     1      20.025   2.367  52.959  1.00  0.00     0.210 HD
ENDBRANCH  12  21
TORSDOF 4
ENDMDL
