MODEL 1
REMARK VINA RESULT:      -7.6      0.000      0.000
REMARK  5 active torsions:
REMARK  status: ('A' for Active; 'I' for Inactive)
REMARK    1  A    between atoms: C2_2  and  C3_3 
REMARK    2  A    between atoms: C2_2  and  N2_5 
REMARK    3  A    between atoms: C3_3  and  N1_4 
REMARK    4  A    between atoms: N2_5  and  C4_6 
REMARK    5  A    between atoms: C7_12  and  C8_13 
ROOT
HETATM    1  C4  UNL     1      26.159   0.120  54.493  1.00  0.00     0.396 A 
HETATM    2  N3  UNL     1      25.865  -0.784  55.583  1.00  0.00    -0.243 NA
HETATM    3  C5  UNL     1      24.651  -1.183  55.462  1.00  0.00     0.212 A 
HETATM    4  N4  UNL     1      23.959  -0.651  54.342  1.00  0.00    -0.298 N 
HETATM    5  C6  UNL     1      22.794  -0.636  53.673  1.00  0.00     0.216 A 
HETATM    6  N5  UNL     1      22.947   0.187  52.617  1.00  0.00    -0.241 NA
HETATM    7  C7  UNL     1      24.203   0.668  52.647  1.00  0.00     0.095 A 
HETATM    8  C14 UNL     1      24.867   0.140  53.747  1.00  0.00     0.102 A 
ENDROOT
BRANCH   1   9
HETATM    9  N2  UNL     1      27.219  -0.457  53.706  1.00  0.00     0.120 N 
HETATM   10  H9  UNL     1      27.132  -1.471  53.622  1.00  0.00     0.319 HD
BRANCH   9  11
HETATM   11  C2  UNL     1      28.486   0.013  54.153  1.00  0.00     0.247 C 
HETATM   12  C1  UNL     1      29.670  -0.824  53.781  1.00  0.00     0.044 C 
BRANCH  11  13
HETATM   13  C3  UNL     1      28.779   1.430  53.645  1.00  0.00     0.302 C 
BRANCH  13  14
HETATM   14  N1  UNL     1      29.555   2.076  54.689  1.00  0.00     0.080 N 
HETATM   15  H7  UNL     1      30.424   1.572  54.927  1.00  0.00     0.312 HD
HETATM   16  H8  UNL     1      29.770   3.037  54.395  1.00  0.00     0.312 HD
ENDBRANCH  13  14
ENDBRANCH  11  13
ENDBRANCH   9  11
ENDBRANCH   1   9
BRANCH   7  17
HETATM   17  C8  UNL     1      24.769   1.596  51.676  1.00  0.00    -0.004 A 
HETATM   18  C9  UNL     1      26.109   1.867  51.503  1.00  0.00     0.014 A 
HETATM   19  C10 UNL     1      26.548   2.766  50.552  1.00  0.00     0.002 A 
HETATM   20  C11 UNL     1      25.594   3.385  49.779  1.00  0.00     0.019 A 
HETATM   21  C12 UNL     1      24.227   3.149  49.912  1.00  0.00     0.011 A 
HETATM   22 BR1  UNL     1      22.931   4.032  48.817  1.00  0.00    -0.051 Br
HETATM   23  C13 UNL     1      23.831   2.247  50.870  1.00  0.00     0.033 A 
ENDBRANCH   7  17
TORSDOF 5
ENDMDL
MODEL 2
REMARK VINA RESULT:      -7.5      2.551      4.609
REMARK  5 active torsions:
REMARK  status: ('A' for Active; 'I' for Inactive)
REMARK    1  A    between atoms: C2_2  and  C3_3 
REMARK    2  A    between atoms: C2_2  and  N2_5 
REMARK    3  A    between atoms: C3_3  and  N1_4 
REMARK    4  A    between atoms: N2_5  and  C4_6 
REMARK    5  A    between atoms: C7_12  and  C8_13 
ROOT
HETATM    1  C4  UNL     1      25.868   0.491  51.967  1.00  0.00     0.396 A 
HETATM    2  N3  UNL     1      26.859   1.363  51.378  1.00  0.00    -0.243 NA
HETATM    3  C5  UNL     1      26.392   2.559  51.366  1.00  0.00     0.212 A 
HETATM    4  N4  UNL     1      25.087   2.693  51.911  1.00  0.00    -0.298 N 
HETATM    5  C6  UNL     1      24.094   3.552  52.189  1.00  0.00     0.216 A 
HETATM    6  N5  UNL     1      23.094   2.843  52.753  1.00  0.00    -0.241 NA
HETATM    7  C7  UNL     1      23.484   1.557  52.815  1.00  0.00     0.095 A 
HETATM    8  C14 UNL     1      24.761   1.442  52.279  1.00  0.00     0.102 A 
ENDROOT
BRANCH   1   9
HETATM    9  N2  UNL     1      26.430  -0.082  53.164  1.00  0.00     0.120 N 
HETATM   10  H9  UNL     1      26.545   0.608  53.907  1.00  0.00     0.319 HD
BRANCH   9  11
HETATM   11  C2  UNL     1      27.589  -0.847  52.854  1.00  0.00     0.247 C 
HETATM   12  C1  UNL     1      28.718  -0.763  53.835  1.00  0.00     0.044 C 
BRANCH  11  13
HETATM   13  C3  UNL     1      27.262  -2.338  52.696  1.00  0.00     0.302 C 
BRANCH  13  14
HETATM   14  N1  UNL     1      28.462  -3.053  53.091  1.00  0.00     0.080 N 
HETATM   15  H7  UNL     1      29.123  -2.478  53.637  1.00  0.00     0.312 HD
HETATM   16  H8  UNL     1      28.189  -3.886  53.627  1.00  0.00     0.312 HD
ENDBRANCH  13  14
ENDBRANCH  11  13
ENDBRANCH   9  11
ENDBRANCH   1   9
BRANCH   7  17
HETATM   17  C8  UNL     1      22.688   0.465  53.358  1.00  0.00    -0.004 A 
HETATM   18  C9  UNL     1      23.132  -0.503  54.232  1.00  0.00     0.014 A 
HETATM   19  C10 UNL     1      22.298  -1.501  54.693  1.00  0.00     0.002 A 
HETATM   20  C11 UNL     1      20.998  -1.495  54.244  1.00  0.00     0.019 A 
HETATM   21  C12 UNL     1      20.496  -0.541  53.360  1.00  0.00     0.011 A 
HETATM   22 BR1  UNL     1      18.681  -0.568  52.759  1.00  0.00    -0.051 Br
HETATM   23  C13 UNL     1      21.359   0.435  52.926  1.00  0.00     0.033 A 
ENDBRANCH   7  17
TORSDOF 5
ENDMDL
MODEL 3
REMARK VINA RESULT:      -7.3      2.425      4.421
REMARK  5 active torsions:
REMARK  status: ('A' for Active; 'I' for Inactive)
REMARK    1  A    between atoms: C2_2  and  C3_3 
REMARK    2  A    between atoms: C2_2  and  N2_5 
REMARK    3  A    between atoms: C3_3  and  N1_4 
REMARK    4  A    between atoms: N2_5  and  C4_6 
REMARK    5  A    between atoms: C7_12  and  C8_13 
ROOT
HETATM    1  C4  UNL     1      26.141   1.145  52.255  1.00  0.00     0.396 A 
HETATM    2  N3  UNL     1      27.014   2.014  51.498  1.00  0.00    -0.243 NA
HETATM    3  C5  UNL     1      26.289   2.849  50.846  1.00  0.00     0.212 A 
HETATM    4  N4  UNL     1      24.889   2.698  51.038  1.00  0.00    -0.298 N 
HETATM    5  C6  UNL     1      23.676   3.169  50.709  1.00  0.00     0.216 A 
HETATM    6  N5  UNL     1      22.763   2.425  51.365  1.00  0.00    -0.241 NA
HETATM    7  C7  UNL     1      23.425   1.505  52.090  1.00  0.00     0.095 A 
HETATM    8  C14 UNL     1      24.791   1.665  51.892  1.00  0.00     0.102 A 
ENDROOT
BRANCH   1   9
HETATM    9  N2  UNL     1      26.426   1.333  53.655  1.00  0.00     0.120 N 
HETATM   10  H9  UNL     1      26.841   2.245  53.847  1.00  0.00     0.319 HD
BRANCH   9  11
HETATM   11  C2  UNL     1      27.139   0.215  54.174  1.00  0.00     0.247 C 
HETATM   12  C1  UNL     1      27.216  -0.989  53.287  1.00  0.00     0.044 C 
BRANCH  11  13
HETATM   13  C3  UNL     1      28.584   0.579  54.538  1.00  0.00     0.302 C 
BRANCH  13  14
HETATM   14  N1  UNL     1      28.703   2.009  54.315  1.00  0.00     0.080 N 
HETATM   15  H7  UNL     1      28.698   2.563  55.186  1.00  0.00     0.312 HD
HETATM   16  H8  UNL     1      29.565   2.190  53.784  1.00  0.00     0.312 HD
ENDBRANCH  13  14
ENDBRANCH  11  13
ENDBRANCH   9  11
ENDBRANCH   1   9
BRANCH   7  17
HETATM   17  C8  UNL     1      22.801   0.502  52.944  1.00  0.00    -0.004 A 
HETATM   18  C9  UNL     1      23.435  -0.242  53.914  1.00  0.00     0.014 A 
HETATM   19  C10 UNL     1      22.755  -1.171  54.674  1.00  0.00     0.002 A 
HETATM   20  C11 UNL     1      21.412  -1.328  54.426  1.00  0.00     0.019 A 
HETATM   21  C12 UNL     1      20.720  -0.603  53.457  1.00  0.00     0.011 A 
HETATM   22 BR1  UNL     1      18.850  -0.852  53.143  1.00  0.00    -0.051 Br
HETATM   23  C13 UNL     1      21.434   0.312  52.723  1.00  0.00     0.033 A 
ENDBRANCH   7  17
TORSDOF 5
ENDMDL
MODEL 4
REMARK VINA RESULT:      -7.3      1.998      2.785
REMARK  5 active torsions:
REMARK  status: ('A' for Active; 'I' for Inactive)
REMARK    1  A    between atoms: C2_2  and  C3_3 
REMARK    2  A    between atoms: C2_2  and  N2_5 
REMARK    3  A    between atoms: C3_3  and  N1_4 
REMARK    4  A    between atoms: N2_5  and  C4_6 
REMARK    5  A    between atoms: C7_12  and  C8_13 
ROOT
HETATM    1  C4  UNL     1      25.052  -0.353  53.788  1.00  0.00     0.396 A 
HETATM    2  N3  UNL     1      25.379  -1.014  55.031  1.00  0.00    -0.243 NA
HETATM    3  C5  UNL     1      24.284  -1.357  55.608  1.00  0.00     0.212 A 
HETATM    4  N4  UNL     1      23.104  -1.008  54.900  1.00  0.00    -0.298 N 
HETATM    5  C6  UNL     1      21.762  -1.052  54.908  1.00  0.00     0.216 A 
HETATM    6  N5  UNL     1      21.333  -0.455  53.778  1.00  0.00    -0.241 NA
HETATM    7  C7  UNL     1      22.414  -0.051  53.087  1.00  0.00     0.095 A 
HETATM    8  C14 UNL     1      23.560  -0.399  53.793  1.00  0.00     0.102 A 
ENDROOT
BRANCH   1   9
HETATM    9  N2  UNL     1      25.605  -1.130  52.708  1.00  0.00     0.120 N 
HETATM   10  H9  UNL     1      25.624  -2.129  52.919  1.00  0.00     0.319 HD
BRANCH   9  11
HETATM   11  C2  UNL     1      26.840  -0.573  52.274  1.00  0.00     0.247 C 
HETATM   12  C1  UNL     1      26.990   0.908  52.434  1.00  0.00     0.044 C 
BRANCH  11  13
HETATM   13  C3  UNL     1      28.037  -1.210  52.991  1.00  0.00     0.302 C 
BRANCH  13  14
HETATM   14  N1  UNL     1      27.727  -2.624  53.106  1.00  0.00     0.080 N 
HETATM   15  H7  UNL     1      27.624  -2.945  54.082  1.00  0.00     0.312 HD
HETATM   16  H8  UNL     1      26.868  -2.819  52.576  1.00  0.00     0.312 HD
ENDBRANCH  13  14
ENDBRANCH  11  13
ENDBRANCH   9  11
ENDBRANCH   1   9
BRANCH   7  17
HETATM   17  C8  UNL     1      22.381   0.640  51.805  1.00  0.00    -0.004 A 
HETATM   18  C9  UNL     1      21.458   0.440  50.803  1.00  0.00     0.014 A 
HETATM   19  C10 UNL     1      21.510   1.148  49.618  1.00  0.00     0.002 A 
HETATM   20  C11 UNL     1      22.524   2.066  49.476  1.00  0.00     0.019 A 
HETATM   21  C12 UNL     1      23.485   2.308  50.457  1.00  0.00     0.011 A 
HETATM   22 BR1  UNL     1      24.880   3.594  50.218  1.00  0.00    -0.051 Br
HETATM   23  C13 UNL     1      23.396   1.583  51.620  1.00  0.00     0.033 A 
ENDBRANCH   7  17
TORSDOF 5
ENDMDL
MODEL 5
REMARK VINA RESULT:      -7.2      1.404      1.683
REMARK  5 active torsions:
REMARK  status: ('A' for Active; 'I' for Inactive)
REMARK    1  A    between atoms: C2_2  and  C3_3 
REMARK    2  A    between atoms: C2_2  and  N2_5 
REMARK    3  A    between atoms: C3_3  and  N1_4 
REMARK    4  A    between atoms: N2_5  and  C4_6 
REMARK    5  A    between atoms: C7_12  and  C8_13 
ROOT
HETATM    1  C4  UNL     1      26.398   0.616  53.800  1.00  0.00     0.396 A 
HETATM    2  N3  UNL     1      26.107  -0.450  54.733  1.00  0.00    -0.243 NA
HETATM    3  C5  UNL     1      24.880  -0.795  54.583  1.00  0.00     0.212 A 
HETATM    4  N4  UNL     1      24.175  -0.069  53.586  1.00  0.00    -0.298 N 
HETATM    5  C6  UNL     1      22.996   0.084  52.963  1.00  0.00     0.216 A 
HETATM    6  N5  UNL     1      23.145   1.068  52.054  1.00  0.00    -0.241 NA
HETATM    7  C7  UNL     1      24.414   1.509  52.127  1.00  0.00     0.095 A 
HETATM    8  C14 UNL     1      25.090   0.790  53.105  1.00  0.00     0.102 A 
ENDROOT
BRANCH   1   9
HETATM    9  N2  UNL     1      27.423   0.154  52.899  1.00  0.00     0.120 N 
HETATM   10  H9  UNL     1      27.562  -0.856  52.953  1.00  0.00     0.319 HD
BRANCH   9  11
HETATM   11  C2  UNL     1      28.600   0.941  53.035  1.00  0.00     0.247 C 
HETATM   12  C1  UNL     1      28.420   2.300  53.637  1.00  0.00     0.044 C 
BRANCH  11  13
HETATM   13  C3  UNL     1      29.667   0.231  53.878  1.00  0.00     0.302 C 
BRANCH  13  14
HETATM   14  N1  UNL     1      29.258  -1.160  53.950  1.00  0.00     0.080 N 
HETATM   15  H7  UNL     1      29.254  -1.539  54.910  1.00  0.00     0.312 HD
HETATM   16  H8  UNL     1      28.326  -1.253  53.527  1.00  0.00     0.312 HD
ENDBRANCH  13  14
ENDBRANCH  11  13
ENDBRANCH   9  11
ENDBRANCH   1   9
BRANCH   7  17
HETATM   17  C8  UNL     1      24.981   2.572  51.308  1.00  0.00    -0.004 A 
HETATM   18  C9  UNL     1      26.144   2.494  50.574  1.00  0.00     0.014 A 
HETATM   19  C10 UNL     1      26.601   3.560  49.825  1.00  0.00     0.002 A 
HETATM   20  C11 UNL     1      25.849   4.711  49.841  1.00  0.00     0.019 A 
HETATM   21  C12 UNL     1      24.666   4.845  50.566  1.00  0.00     0.011 A 
HETATM   22 BR1  UNL     1      23.648   6.464  50.560  1.00  0.00    -0.051 Br
HETATM   23  C13 UNL     1      24.246   3.760  51.296  1.00  0.00     0.033 A 
ENDBRANCH   7  17
TORSDOF 5
ENDMDL
MODEL 6
REMARK VINA RESULT:      -7.0      2.998      5.829
REMARK  5 active torsions:
REMARK  status: ('A' for Active; 'I' for Inactive)
REMARK    1  A    between atoms: C2_2  and  C3_3 
REMARK    2  A    between atoms: C2_2  and  N2_5 
REMARK    3  A    between atoms: C3_3  and  N1_4 
REMARK    4  A    between atoms: N2_5  and  C4_6 
REMARK    5  A    between atoms: C7_12  and  C8_13 
ROOT
HETATM    1  C4  UNL     1      23.947   2.308  52.839  1.00  0.00     0.396 A 
HETATM    2  N3  UNL     1      22.856   3.028  52.222  1.00  0.00    -0.243 NA
HETATM    3  C5  UNL     1      23.312   3.659  51.201  1.00  0.00     0.212 A 
HETATM    4  N4  UNL     1      24.702   3.484  50.966  1.00  0.00    -0.298 N 
HETATM    5  C6  UNL     1      25.733   3.808  50.169  1.00  0.00     0.216 A 
HETATM    6  N5  UNL     1      26.826   3.184  50.651  1.00  0.00    -0.241 NA
HETATM    7  C7  UNL     1      26.456   2.484  51.739  1.00  0.00     0.095 A 
HETATM    8  C14 UNL     1      25.096   2.664  51.956  1.00  0.00     0.102 A 
ENDROOT
BRANCH   1   9
HETATM    9  N2  UNL     1      23.646   0.900  52.777  1.00  0.00     0.120 N 
HETATM   10  H9  UNL     1      24.011   0.462  51.930  1.00  0.00     0.319 HD
BRANCH   9  11
HETATM   11  C2  UNL     1      22.265   0.673  53.037  1.00  0.00     0.247 C 
HETATM   12  C1  UNL     1      21.483   0.029  51.934  1.00  0.00     0.044 C 
BRANCH  11  13
HETATM   13  C3  UNL     1      22.055  -0.196  54.283  1.00  0.00     0.302 C 
BRANCH  13  14
HETATM   14  N1  UNL     1      20.753   0.171  54.811  1.00  0.00     0.080 N 
HETATM   15  H7  UNL     1      19.965  -0.220  54.271  1.00  0.00     0.312 HD
HETATM   16  H8  UNL     1      20.697  -0.131  55.792  1.00  0.00     0.312 HD
ENDBRANCH  13  14
ENDBRANCH  11  13
ENDBRANCH   9  11
ENDBRANCH   1   9
BRANCH   7  17
HETATM   17  C8  UNL     1      27.347   1.668  52.555  1.00  0.00    -0.004 A 
HETATM   18  C9  UNL     1      28.285   2.141  53.446  1.00  0.00     0.014 A 
HETATM   19  C10 UNL     1      29.085   1.285  54.176  1.00  0.00     0.002 A 
HETATM   20  C11 UNL     1      28.910  -0.064  53.980  1.00  0.00     0.019 A 
HETATM   21  C12 UNL     1      27.978  -0.597  53.091  1.00  0.00     0.011 A 
HETATM   22 BR1  UNL     1      27.767  -2.481  52.847  1.00  0.00    -0.051 Br
HETATM   23  C13 UNL     1      27.201   0.289  52.384  1.00  0.00     0.033 A 
ENDBRANCH   7  17
TORSDOF 5
ENDMDL
MODEL 7
REMARK VINA RESULT:      -7.0      2.923      5.155
REMARK  5 active torsions:
REMARK  status: ('A' for Active; 'I' for Inactive)
REMARK    1  A    between atoms: C2_2  and  C3_3 
REMARK    2  A    between atoms: C2_2  and  N2_5 
REMARK    3  A    between atoms: C3_3  and  N1_4 
REMARK    4  A    between atoms: N2_5  and  C4_6 
REMARK    5  A    between atoms: C7_12  and  C8_13 
ROOT
HETATM    1  C4  UNL     1      23.757   1.780  51.211  1.00  0.00     0.396 A 
HETATM    2  N3  UNL     1      22.362   1.587  50.883  1.00  0.00    -0.243 NA
HETATM    3  C5  UNL     1      21.871   0.722  51.694  1.00  0.00     0.212 A 
HETATM    4  N4  UNL     1      22.791   0.213  52.650  1.00  0.00    -0.298 N 
HETATM    5  C6  UNL     1      22.949  -0.624  53.688  1.00  0.00     0.216 A 
HETATM    6  N5  UNL     1      24.233  -0.531  54.088  1.00  0.00    -0.241 NA
HETATM    7  C7  UNL     1      24.849   0.363  53.294  1.00  0.00     0.095 A 
HETATM    8  C14 UNL     1      23.938   0.851  52.365  1.00  0.00     0.102 A 
ENDROOT
BRANCH   1   9
HETATM    9  N2  UNL     1      23.939   3.155  51.602  1.00  0.00     0.120 N 
HETATM   10  H9  UNL     1      23.207   3.478  52.237  1.00  0.00     0.319 HD
BRANCH   9  11
HETATM   11  C2  UNL     1      24.162   3.974  50.460  1.00  0.00     0.247 C 
HETATM   12  C1  UNL     1      24.322   5.440  50.719  1.00  0.00     0.044 C 
BRANCH  11  13
HETATM   13  C3  UNL     1      25.406   3.533  49.677  1.00  0.00     0.302 C 
BRANCH  13  14
HETATM   14  N1  UNL     1      26.545   4.034  50.424  1.00  0.00     0.080 N 
HETATM   15  H7  UNL     1      26.309   4.808  51.066  1.00  0.00     0.312 HD
HETATM   16  H8  UNL     1      26.968   3.256  50.946  1.00  0.00     0.312 HD
ENDBRANCH  13  14
ENDBRANCH  11  13
ENDBRANCH   9  11
ENDBRANCH   1   9
BRANCH   7  17
HETATM   17  C8  UNL     1      26.250   0.751  53.397  1.00  0.00    -0.004 A 
HETATM   18  C9  UNL     1      26.726   2.040  53.498  1.00  0.00     0.014 A 
HETATM   19  C10 UNL     1      28.077   2.307  53.591  1.00  0.00     0.002 A 
HETATM   20  C11 UNL     1      28.936   1.233  53.580  1.00  0.00     0.019 A 
HETATM   21  C12 UNL     1      28.509  -0.090  53.479  1.00  0.00     0.011 A 
HETATM   22 BR1  UNL     1      29.736  -1.556  53.466  1.00  0.00    -0.051 Br
HETATM   23  C13 UNL     1      27.156  -0.312  53.389  1.00  0.00     0.033 A 
ENDBRANCH   7  17
TORSDOF 5
ENDMDL
MODEL 8
REMARK VINA RESULT:      -6.9      2.177      4.711
REMARK  5 active torsions:
REMARK  status: ('A' for Active; 'I' for Inactive)
REMARK    1  A    between atoms: C2_2  and  C3_3 
REMARK    2  A    between atoms: C2_2  and  N2_5 
REMARK    3  A    between atoms: C3_3  and  N1_4 
REMARK    4  A    between atoms: N2_5  and  C4_6 
REMARK    5  A    between atoms: C7_12  and  C8_13 
ROOT
HETATM    1  C4  UNL     1      26.499   2.050  54.025  1.00  0.00     0.396 A 
HETATM    2  N3  UNL     1      27.874   2.433  53.795  1.00  0.00    -0.243 NA
HETATM    3  C5  UNL     1      28.525   1.397  53.409  1.00  0.00     0.212 A 
HETATM    4  N4  UNL     1      27.752   0.209  53.317  1.00  0.00    -0.298 N 
HETATM    5  C6  UNL     1      27.776  -1.099  53.014  1.00  0.00     0.216 A 
HETATM    6  N5  UNL     1      26.527  -1.576  53.193  1.00  0.00    -0.241 NA
HETATM    7  C7  UNL     1      25.751  -0.557  53.603  1.00  0.00     0.095 A 
HETATM    8  C14 UNL     1      26.520   0.597  53.689  1.00  0.00     0.102 A 
ENDROOT
BRANCH   1   9
HETATM    9  N2  UNL     1      25.668   2.795  53.113  1.00  0.00     0.120 N 
HETATM   10  H9  UNL     1      24.726   2.940  53.477  1.00  0.00     0.319 HD
BRANCH   9  11
HETATM   11  C2  UNL     1      25.740   2.240  51.805  1.00  0.00     0.247 C 
HETATM   12  C1  UNL     1      24.440   2.105  51.072  1.00  0.00     0.044 C 
BRANCH  11  13
HETATM   13  C3  UNL     1      26.670   3.050  50.892  1.00  0.00     0.302 C 
BRANCH  13  14
HETATM   14  N1  UNL     1      25.970   4.290  50.608  1.00  0.00     0.080 N 
HETATM   15  H7  UNL     1      26.008   4.970  51.384  1.00  0.00     0.312 HD
HETATM   16  H8  UNL     1      26.363   4.704  49.754  1.00  0.00     0.312 HD
ENDBRANCH  13  14
ENDBRANCH  11  13
ENDBRANCH   9  11
ENDBRANCH   1   9
BRANCH   7  17
HETATM   17  C8  UNL     1      24.329  -0.657  53.909  1.00  0.00    -0.004 A 
HETATM   18  C9  UNL     1      23.786  -1.135  55.081  1.00  0.00     0.014 A 
HETATM   19  C10 UNL     1      22.421  -1.189  55.277  1.00  0.00     0.002 A 
HETATM   20  C11 UNL     1      21.618  -0.746  54.252  1.00  0.00     0.019 A 
HETATM   21  C12 UNL     1      22.113  -0.254  53.046  1.00  0.00     0.011 A 
HETATM   22 BR1  UNL     1      20.961   0.353  51.645  1.00  0.00    -0.051 Br
HETATM   23  C13 UNL     1      23.478  -0.216  52.892  1.00  0.00     0.033 A 
ENDBRANCH   7  17
TORSDOF 5
ENDMDL
MODEL 9
REMARK VINA RESULT:      -6.9      2.648      4.872
REMARK  5 active torsions:
REMARK  status: ('A' for Active; 'I' for Inactive)
REMARK    1  A    between atoms: C2_2  and  C3_3 
REMARK    2  A    between atoms: C2_2  and  N2_5 
REMARK    3  A    between atoms: C3_3  and  N1_4 
REMARK    4  A    between atoms: N2_5  and  C4_6 
REMARK    5  A    between atoms: C7_12  and  C8_13 
ROOT
HETATM    1  C4  UNL     1      26.911   2.386  52.368  1.00  0.00     0.396 A 
HETATM    2  N3  UNL     1      28.328   2.524  52.621  1.00  0.00    -0.243 NA
HETATM    3  C5  UNL     1      28.728   1.488  53.264  1.00  0.00     0.212 A 
HETATM    4  N4  UNL     1      27.715   0.531  53.539  1.00  0.00    -0.298 N 
HETATM    5  C6  UNL     1      27.447  -0.656  54.108  1.00  0.00     0.216 A 
HETATM    6  N5  UNL     1      26.133  -0.898  53.934  1.00  0.00    -0.241 NA
HETATM    7  C7  UNL     1      25.607   0.141  53.260  1.00  0.00     0.095 A 
HETATM    8  C14 UNL     1      26.608   1.068  52.998  1.00  0.00     0.102 A 
ENDROOT
BRANCH   1   9
HETATM    9  N2  UNL     1      26.712   2.352  50.941  1.00  0.00     0.120 N 
HETATM   10  H9  UNL     1      27.460   1.855  50.457  1.00  0.00     0.319 HD
BRANCH   9  11
HETATM   11  C2  UNL     1      26.421   3.654  50.446  1.00  0.00     0.247 C 
HETATM   12  C1  UNL     1      27.051   4.018  49.137  1.00  0.00     0.044 C 
BRANCH  11  13
HETATM   13  C3  UNL     1      24.913   3.877  50.280  1.00  0.00     0.302 C 
BRANCH  13  14
HETATM   14  N1  UNL     1      24.543   4.864  51.278  1.00  0.00     0.080 N 
HETATM   15  H7  UNL     1      24.507   5.828  50.910  1.00  0.00     0.312 HD
HETATM   16  H8  UNL     1      23.635   4.603  51.682  1.00  0.00     0.312 HD
ENDBRANCH  13  14
ENDBRANCH  11  13
ENDBRANCH   9  11
ENDBRANCH   1   9
BRANCH   7  17
HETATM   17  C8  UNL     1      24.208   0.267  52.871  1.00  0.00    -0.004 A 
HETATM   18  C9  UNL     1      23.712   1.103  51.896  1.00  0.00     0.014 A 
HETATM   19  C10 UNL     1      22.365   1.151  51.599  1.00  0.00     0.002 A 
HETATM   20  C11 UNL     1      21.531   0.328  52.318  1.00  0.00     0.019 A 
HETATM   21  C12 UNL     1      21.978  -0.536  53.316  1.00  0.00     0.011 A 
HETATM   22 BR1  UNL     1      20.783  -1.665  54.293  1.00  0.00    -0.051 Br
HETATM   23  C13 UNL     1      23.326  -0.554  53.579  1.00  0.00     0.033 A 
ENDBRANCH   7  17
TORSDOF 5
ENDMDL
