MODEL 1
REMARK VINA RESULT:      -7.3      0.000      0.000
REMARK  5 active torsions:
REMARK  status: ('A' for Active; 'I' for Inactive)
REMARK    1  A    between atoms: C2_2  and  C3_3 
REMARK    2  A    between atoms: C3_3  and  C4_4 
REMARK    3  A    between atoms: C4_4  and  C5_5 
REMARK    4  A    between atoms: C5_5  and  C6_6 
REMARK    5  A    between atoms: C6_6  and  C7_7 
ROOT
HETATM    1  C7  UNL     1      24.629   2.059  51.515  1.00  0.00    -0.024 C 
HETATM    2  C8  UNL     1      24.054   1.003  52.147  1.00  0.00     0.124 C 
HETATM    3  N1  UNL     1      25.015   0.594  53.142  1.00  0.00    -0.272 NA
HETATM    4  C9  UNL     1      26.197   0.249  52.733  1.00  0.00     0.130 C 
HETATM    5  C10 UNL     1      27.515  -0.205  53.016  1.00  0.00     0.011 A 
HETATM    6  C11 UNL     1      28.060  -1.458  52.919  1.00  0.00     0.046 A 
HETATM    7 CL1  UNL     1      26.720  -2.479  52.318  1.00  0.00    -0.083 Cl
HETATM    8  C12 UNL     1      29.367  -1.746  53.235  1.00  0.00     0.025 A 
HETATM    9  C13 UNL     1      30.122  -0.667  53.669  1.00  0.00     0.002 A 
HETATM   10  C14 UNL     1      29.572   0.579  53.761  1.00  0.00     0.010 A 
HETATM   11  C15 UNL     1      28.276   0.908  53.462  1.00  0.00    -0.028 A 
HETATM   12  C16 UNL     1      27.662   2.270  53.621  1.00  0.00     0.154 C 
HETATM   13  N2  UNL     1      26.318   2.282  53.170  1.00  0.00    -0.413 N 
HETATM   14  C17 UNL     1      25.936   2.745  51.901  1.00  0.00     0.154 C 
HETATM   15  H15 UNL     1      25.647   2.625  53.934  1.00  0.00     0.153 HD
ENDROOT
BRANCH   1  16
HETATM   16  C6  UNL     1      23.914   2.727  50.409  1.00  0.00     0.007 C 
BRANCH  16  17
HETATM   17  C5  UNL     1      23.462   3.359  49.284  1.00  0.00    -0.017 C 
BRANCH  17  18
HETATM   18  C4  UNL     1      23.612   4.682  48.522  1.00  0.00     0.042 C 
BRANCH  18  19
HETATM   19  C3  UNL     1      24.723   5.127  48.968  1.00  0.00    -0.018 C 
BRANCH  19  20
HETATM   20  C2  UNL     1      25.919   5.674  49.502  1.00  0.00    -0.014 C 
HETATM   21  C1  UNL     1      26.795   4.890  48.963  1.00  0.00     0.011 C 
ENDBRANCH  19  20
ENDBRANCH  18  19
ENDBRANCH  17  18
ENDBRANCH  16  17
ENDBRANCH   1  16
TORSDOF 5
ENDMDL
MODEL 2
REMARK VINA RESULT:      -7.2      1.289      2.468
REMARK  5 active torsions:
REMARK  status: ('A' for Active; 'I' for Inactive)
REMARK    1  A    between atoms: C2_2  and  C3_3 
REMARK    2  A    between atoms: C3_3  and  C4_4 
REMARK    3  A    between atoms: C4_4  and  C5_5 
REMARK    4  A    between atoms: C5_5  and  C6_6 
REMARK    5  A    between atoms: C6_6  and  C7_7 
ROOT
HETATM    1  C7  UNL     1      24.895   2.241  51.240  1.00  0.00    -0.024 C 
HETATM    2  C8  UNL     1      24.220   1.266  51.901  1.00  0.00     0.124 C 
HETATM    3  N1  UNL     1      25.118   0.831  52.944  1.00  0.00    -0.272 NA
HETATM    4  C9  UNL     1      26.280   0.374  52.587  1.00  0.00     0.130 C 
HETATM    5  C10 UNL     1      27.549  -0.167  52.931  1.00  0.00     0.011 A 
HETATM    6  C11 UNL     1      27.994  -1.462  52.910  1.00  0.00     0.046 A 
HETATM    7 CL1  UNL     1      26.593  -2.403  52.315  1.00  0.00    -0.083 Cl
HETATM    8  C12 UNL     1      29.264  -1.837  53.278  1.00  0.00     0.025 A 
HETATM    9  C13 UNL     1      30.091  -0.801  53.685  1.00  0.00     0.002 A 
HETATM   10  C14 UNL     1      29.641   0.487  53.703  1.00  0.00     0.010 A 
HETATM   11  C15 UNL     1      28.384   0.902  53.349  1.00  0.00    -0.028 A 
HETATM   12  C16 UNL     1      27.877   2.315  53.426  1.00  0.00     0.154 C 
HETATM   13  N2  UNL     1      26.551   2.411  52.933  1.00  0.00    -0.413 N 
HETATM   14  C17 UNL     1      26.242   2.840  51.633  1.00  0.00     0.154 C 
HETATM   15  H15 UNL     1      25.889   2.843  53.659  1.00  0.00     0.153 HD
ENDROOT
BRANCH   1  16
HETATM   16  C6  UNL     1      24.266   2.909  50.083  1.00  0.00     0.007 C 
BRANCH  16  17
HETATM   17  C5  UNL     1      23.516   3.368  49.036  1.00  0.00    -0.017 C 
BRANCH  17  18
HETATM   18  C4  UNL     1      22.598   2.857  47.917  1.00  0.00     0.042 C 
BRANCH  18  19
HETATM   19  C3  UNL     1      21.978   1.900  48.491  1.00  0.00    -0.018 C 
BRANCH  19  20
HETATM   20  C2  UNL     1      21.352   0.794  49.125  1.00  0.00    -0.014 C 
HETATM   21  C1  UNL     1      20.481   1.409  49.857  1.00  0.00     0.011 C 
ENDBRANCH  19  20
ENDBRANCH  18  19
ENDBRANCH  17  18
ENDBRANCH  16  17
ENDBRANCH   1  16
TORSDOF 5
ENDMDL
MODEL 3
REMARK VINA RESULT:      -7.0      3.263      6.987
REMARK  5 active torsions:
REMARK  status: ('A' for Active; 'I' for Inactive)
REMARK    1  A    between atoms: C2_2  and  C3_3 
REMARK    2  A    between atoms: C3_3  and  C4_4 
REMARK    3  A    between atoms: C4_4  and  C5_5 
REMARK    4  A    between atoms: C5_5  and  C6_6 
REMARK    5  A    between atoms: C6_6  and  C7_7 
ROOT
HETATM    1  C7  UNL     1      25.156  -0.135  52.880  1.00  0.00    -0.024 C 
HETATM    2  C8  UNL     1      25.021   1.100  52.330  1.00  0.00     0.124 C 
HETATM    3  N1  UNL     1      23.660   1.488  52.614  1.00  0.00    -0.272 NA
HETATM    4  C9  UNL     1      22.710   0.723  52.173  1.00  0.00     0.130 C 
HETATM    5  C10 UNL     1      21.324   0.431  52.041  1.00  0.00     0.011 A 
HETATM    6  C11 UNL     1      20.473   0.638  50.989  1.00  0.00     0.046 A 
HETATM    7 CL1  UNL     1      21.500   1.378  49.725  1.00  0.00    -0.083 Cl
HETATM    8  C12 UNL     1      19.140   0.301  51.011  1.00  0.00     0.025 A 
HETATM    9  C13 UNL     1      18.695  -0.275  52.191  1.00  0.00     0.002 A 
HETATM   10  C14 UNL     1      19.550  -0.479  53.235  1.00  0.00     0.010 A 
HETATM   11  C15 UNL     1      20.881  -0.154  53.256  1.00  0.00    -0.028 A 
HETATM   12  C16 UNL     1      21.803  -0.328  54.430  1.00  0.00     0.154 C 
HETATM   13  N2  UNL     1      23.128   0.056  54.102  1.00  0.00    -0.413 N 
HETATM   14  C17 UNL     1      24.129  -0.861  53.744  1.00  0.00     0.154 C 
HETATM   15  H15 UNL     1      23.501   0.805  54.773  1.00  0.00     0.153 HD
ENDROOT
BRANCH   1  16
HETATM   16  C6  UNL     1      26.442  -0.851  52.763  1.00  0.00     0.007 C 
BRANCH  16  17
HETATM   17  C5  UNL     1      27.684  -1.414  52.859  1.00  0.00    -0.017 C 
BRANCH  17  18
HETATM   18  C4  UNL     1      29.098  -1.097  53.367  1.00  0.00     0.042 C 
BRANCH  18  19
HETATM   19  C3  UNL     1      28.940   0.049  53.907  1.00  0.00    -0.018 C 
BRANCH  19  20
HETATM   20  C2  UNL     1      28.839   1.336  54.497  1.00  0.00    -0.014 C 
HETATM   21  C1  UNL     1      28.617   2.057  53.447  1.00  0.00     0.011 C 
ENDBRANCH  19  20
ENDBRANCH  18  19
ENDBRANCH  17  18
ENDBRANCH  16  17
ENDBRANCH   1  16
TORSDOF 5
ENDMDL
MODEL 4
REMARK VINA RESULT:      -6.7      3.065      4.602
REMARK  5 active torsions:
REMARK  status: ('A' for Active; 'I' for Inactive)
REMARK    1  A    between atoms: C2_2  and  C3_3 
REMARK    2  A    between atoms: C3_3  and  C4_4 
REMARK    3  A    between atoms: C4_4  and  C5_5 
REMARK    4  A    between atoms: C5_5  and  C6_6 
REMARK    5  A    between atoms: C6_6  and  C7_7 
ROOT
HETATM    1  C7  UNL     1      25.902   3.809  50.398  1.00  0.00    -0.024 C 
HETATM    2  C8  UNL     1      24.721   4.471  50.506  1.00  0.00     0.124 C 
HETATM    3  N1  UNL     1      24.031   3.827  51.598  1.00  0.00    -0.272 NA
HETATM    4  C9  UNL     1      23.795   2.555  51.496  1.00  0.00     0.130 C 
HETATM    5  C10 UNL     1      23.257   1.355  52.038  1.00  0.00     0.011 A 
HETATM    6  C11 UNL     1      22.073   0.719  51.775  1.00  0.00     0.046 A 
HETATM    7 CL1  UNL     1      21.286   1.739  50.535  1.00  0.00    -0.083 Cl
HETATM    8  C12 UNL     1      21.685  -0.449  52.388  1.00  0.00     0.025 A 
HETATM    9  C13 UNL     1      22.585  -0.960  53.312  1.00  0.00     0.002 A 
HETATM   10  C14 UNL     1      23.763  -0.320  53.566  1.00  0.00     0.010 A 
HETATM   11  C15 UNL     1      24.186   0.845  52.983  1.00  0.00    -0.028 A 
HETATM   12  C16 UNL     1      25.458   1.574  53.311  1.00  0.00     0.154 C 
HETATM   13  N2  UNL     1      25.620   2.717  52.488  1.00  0.00    -0.413 N 
HETATM   14  C17 UNL     1      26.429   2.731  51.340  1.00  0.00     0.154 C 
HETATM   15  H15 UNL     1      25.746   3.610  53.070  1.00  0.00     0.153 HD
ENDROOT
BRANCH   1  16
HETATM   16  C6  UNL     1      26.867   4.203  49.352  1.00  0.00     0.007 C 
BRANCH  16  17
HETATM   17  C5  UNL     1      27.800   4.754  48.519  1.00  0.00    -0.017 C 
BRANCH  17  18
HETATM   18  C4  UNL     1      28.401   6.115  48.140  1.00  0.00     0.042 C 
BRANCH  18  19
HETATM   19  C3  UNL     1      27.421   6.909  48.343  1.00  0.00    -0.018 C 
BRANCH  19  20
HETATM   20  C2  UNL     1      26.289   7.731  48.584  1.00  0.00    -0.014 C 
HETATM   21  C1  UNL     1      26.440   7.971  49.845  1.00  0.00     0.011 C 
ENDBRANCH  19  20
ENDBRANCH  18  19
ENDBRANCH  17  18
ENDBRANCH  16  17
ENDBRANCH   1  16
TORSDOF 5
ENDMDL
MODEL 5
REMARK VINA RESULT:      -6.3      2.775      7.015
REMARK  5 active torsions:
REMARK  status: ('A' for Active; 'I' for Inactive)
REMARK    1  A    between atoms: C2_2  and  C3_3 
REMARK    2  A    between atoms: C3_3  and  C4_4 
REMARK    3  A    between atoms: C4_4  and  C5_5 
REMARK    4  A    between atoms: C5_5  and  C6_6 
REMARK    5  A    between atoms: C6_6  and  C7_7 
ROOT
HETATM    1  C7  UNL     1      25.290   1.811  51.588  1.00  0.00    -0.024 C 
HETATM    2  C8  UNL     1      23.991   1.865  51.195  1.00  0.00     0.124 C 
HETATM    3  N1  UNL     1      23.932   2.953  50.249  1.00  0.00    -0.272 NA
HETATM    4  C9  UNL     1      24.299   4.128  50.658  1.00  0.00     0.130 C 
HETATM    5  C10 UNL     1      24.512   5.511  50.402  1.00  0.00     0.011 A 
HETATM    6  C11 UNL     1      23.734   6.597  50.706  1.00  0.00     0.046 A 
HETATM    7 CL1  UNL     1      22.318   5.906  51.552  1.00  0.00    -0.083 Cl
HETATM    8  C12 UNL     1      24.076   7.890  50.387  1.00  0.00     0.025 A 
HETATM    9  C13 UNL     1      25.284   8.036  49.723  1.00  0.00     0.002 A 
HETATM   10  C14 UNL     1      26.053   6.949  49.425  1.00  0.00     0.010 A 
HETATM   11  C15 UNL     1      25.749   5.647  49.719  1.00  0.00    -0.028 A 
HETATM   12  C16 UNL     1      26.573   4.449  49.337  1.00  0.00     0.154 C 
HETATM   13  N2  UNL     1      26.004   3.253  49.842  1.00  0.00    -0.413 N 
HETATM   14  C17 UNL     1      26.446   2.628  51.018  1.00  0.00     0.154 C 
HETATM   15  H15 UNL     1      25.822   2.540  49.061  1.00  0.00     0.153 HD
ENDROOT
BRANCH   1  16
HETATM   16  C6  UNL     1      25.712   0.803  52.583  1.00  0.00     0.007 C 
BRANCH  16  17
HETATM   17  C5  UNL     1      26.252   0.034  53.575  1.00  0.00    -0.017 C 
BRANCH  17  18
HETATM   18  C4  UNL     1      27.165   0.147  54.804  1.00  0.00     0.042 C 
BRANCH  18  19
HETATM   19  C3  UNL     1      28.326   0.016  54.291  1.00  0.00    -0.018 C 
BRANCH  19  20
HETATM   20  C2  UNL     1      29.633  -0.060  53.741  1.00  0.00    -0.014 C 
HETATM   21  C1  UNL     1      29.698  -1.322  53.468  1.00  0.00     0.011 C 
ENDBRANCH  19  20
ENDBRANCH  18  19
ENDBRANCH  17  18
ENDBRANCH  16  17
ENDBRANCH   1  16
TORSDOF 5
ENDMDL
MODEL 6
REMARK VINA RESULT:      -6.2      3.717      4.863
REMARK  5 active torsions:
REMARK  status: ('A' for Active; 'I' for Inactive)
REMARK    1  A    between atoms: C2_2  and  C3_3 
REMARK    2  A    between atoms: C3_3  and  C4_4 
REMARK    3  A    between atoms: C4_4  and  C5_5 
REMARK    4  A    between atoms: C5_5  and  C6_6 
REMARK    5  A    between atoms: C6_6  and  C7_7 
ROOT
HETATM    1  C7  UNL     1      23.542   4.080  50.953  1.00  0.00    -0.024 C 
HETATM    2  C8  UNL     1      24.147   3.057  50.296  1.00  0.00     0.124 C 
HETATM    3  N1  UNL     1      23.379   1.886  50.641  1.00  0.00    -0.272 NA
HETATM    4  C9  UNL     1      23.277   1.579  51.898  1.00  0.00     0.130 C 
HETATM    5  C10 UNL     1      22.780   0.726  52.921  1.00  0.00     0.011 A 
HETATM    6  C11 UNL     1      23.400  -0.279  53.614  1.00  0.00     0.046 A 
HETATM    7 CL1  UNL     1      25.064  -0.310  52.957  1.00  0.00    -0.083 Cl
HETATM    8  C12 UNL     1      22.780  -1.028  54.587  1.00  0.00     0.025 A 
HETATM    9  C13 UNL     1      21.456  -0.699  54.832  1.00  0.00     0.002 A 
HETATM   10  C14 UNL     1      20.846   0.305  54.138  1.00  0.00     0.010 A 
HETATM   11  C15 UNL     1      21.423   1.071  53.161  1.00  0.00    -0.028 A 
HETATM   12  C16 UNL     1      20.728   2.136  52.360  1.00  0.00     0.154 C 
HETATM   13  N2  UNL     1      21.626   2.775  51.468  1.00  0.00    -0.413 N 
HETATM   14  C17 UNL     1      22.240   4.007  51.746  1.00  0.00     0.154 C 
HETATM   15  H15 UNL     1      21.279   2.727  50.454  1.00  0.00     0.153 HD
ENDROOT
BRANCH   1  16
HETATM   16  C6  UNL     1      24.086   5.448  50.835  1.00  0.00     0.007 C 
BRANCH  16  17
HETATM   17  C5  UNL     1      24.575   6.719  50.959  1.00  0.00    -0.017 C 
BRANCH  17  18
HETATM   18  C4  UNL     1      25.704   7.615  50.433  1.00  0.00     0.042 C 
BRANCH  18  19
HETATM   19  C3  UNL     1      26.089   6.982  49.393  1.00  0.00    -0.018 C 
BRANCH  19  20
HETATM   20  C2  UNL     1      26.586   6.270  48.269  1.00  0.00    -0.014 C 
HETATM   21  C1  UNL     1      27.165   5.276  48.860  1.00  0.00     0.011 C 
ENDBRANCH  19  20
ENDBRANCH  18  19
ENDBRANCH  17  18
ENDBRANCH  16  17
ENDBRANCH   1  16
TORSDOF 5
ENDMDL
MODEL 7
REMARK VINA RESULT:      -6.2      2.975      7.003
REMARK  5 active torsions:
REMARK  status: ('A' for Active; 'I' for Inactive)
REMARK    1  A    between atoms: C2_2  and  C3_3 
REMARK    2  A    between atoms: C3_3  and  C4_4 
REMARK    3  A    between atoms: C4_4  and  C5_5 
REMARK    4  A    between atoms: C5_5  and  C6_6 
REMARK    5  A    between atoms: C6_6  and  C7_7 
ROOT
HETATM    1  C7  UNL     1      25.227   2.567  51.420  1.00  0.00    -0.024 C 
HETATM    2  C8  UNL     1      24.001   3.049  51.088  1.00  0.00     0.124 C 
HETATM    3  N1  UNL     1      24.247   3.998  50.029  1.00  0.00    -0.272 NA
HETATM    4  C9  UNL     1      25.039   4.994  50.284  1.00  0.00     0.130 C 
HETATM    5  C10 UNL     1      25.702   6.180  49.862  1.00  0.00     0.011 A 
HETATM    6  C11 UNL     1      25.387   7.495  50.079  1.00  0.00     0.046 A 
HETATM    7 CL1  UNL     1      23.897   7.437  51.068  1.00  0.00    -0.083 Cl
HETATM    8  C12 UNL     1      26.132   8.545  49.600  1.00  0.00     0.025 A 
HETATM    9  C13 UNL     1      27.251   8.188  48.863  1.00  0.00     0.002 A 
HETATM   10  C14 UNL     1      27.559   6.875  48.652  1.00  0.00     0.010 A 
HETATM   11  C15 UNL     1      26.843   5.800  49.107  1.00  0.00    -0.028 A 
HETATM   12  C16 UNL     1      27.155   4.358  48.822  1.00  0.00     0.154 C 
HETATM   13  N2  UNL     1      26.248   3.496  49.487  1.00  0.00    -0.413 N 
HETATM   14  C17 UNL     1      26.542   2.860  50.703  1.00  0.00     0.154 C 
HETATM   15  H15 UNL     1      25.759   2.831  48.802  1.00  0.00     0.153 HD
ENDROOT
BRANCH   1  16
HETATM   16  C6  UNL     1      25.351   1.566  52.499  1.00  0.00     0.007 C 
BRANCH  16  17
HETATM   17  C5  UNL     1      25.563   0.505  53.334  1.00  0.00    -0.017 C 
BRANCH  17  18
HETATM   18  C4  UNL     1      26.494  -0.702  53.511  1.00  0.00     0.042 C 
BRANCH  18  19
HETATM   19  C3  UNL     1      27.647  -0.156  53.516  1.00  0.00    -0.018 C 
BRANCH  19  20
HETATM   20  C2  UNL     1      28.931   0.447  53.446  1.00  0.00    -0.014 C 
HETATM   21  C1  UNL     1      29.685  -0.599  53.538  1.00  0.00     0.011 C 
ENDBRANCH  19  20
ENDBRANCH  18  19
ENDBRANCH  17  18
ENDBRANCH  16  17
ENDBRANCH   1  16
TORSDOF 5
ENDMDL
MODEL 8
REMARK VINA RESULT:      -6.1      3.896      7.194
REMARK  5 active torsions:
REMARK  status: ('A' for Active; 'I' for Inactive)
REMARK    1  A    between atoms: C2_2  and  C3_3 
REMARK    2  A    between atoms: C3_3  and  C4_4 
REMARK    3  A    between atoms: C4_4  and  C5_5 
REMARK    4  A    between atoms: C5_5  and  C6_6 
REMARK    5  A    between atoms: C6_6  and  C7_7 
ROOT
HETATM    1  C7  UNL     1      24.024   1.790  51.599  1.00  0.00    -0.024 C 
HETATM    2  C8  UNL     1      22.851   2.013  50.950  1.00  0.00     0.124 C 
HETATM    3  N1  UNL     1      23.115   3.130  50.075  1.00  0.00    -0.272 NA
HETATM    4  C9  UNL     1      23.514   4.239  50.618  1.00  0.00     0.130 C 
HETATM    5  C10 UNL     1      23.928   5.594  50.490  1.00  0.00     0.011 A 
HETATM    6  C11 UNL     1      23.229   6.755  50.688  1.00  0.00     0.046 A 
HETATM    7 CL1  UNL     1      21.598   6.212  51.183  1.00  0.00    -0.083 Cl
HETATM    8  C12 UNL     1      23.771   8.007  50.520  1.00  0.00     0.025 A 
HETATM    9  C13 UNL     1      25.101   8.029  50.128  1.00  0.00     0.002 A 
HETATM   10  C14 UNL     1      25.791   6.867  49.934  1.00  0.00     0.010 A 
HETATM   11  C15 UNL     1      25.289   5.601  50.085  1.00  0.00    -0.028 A 
HETATM   12  C16 UNL     1      26.037   4.327  49.814  1.00  0.00     0.154 C 
HETATM   13  N2  UNL     1      25.246   3.192  50.122  1.00  0.00    -0.413 N 
HETATM   14  C17 UNL     1      25.357   2.480  51.326  1.00  0.00     0.154 C 
HETATM   15  H15 UNL     1      25.155   2.532  49.280  1.00  0.00     0.153 HD
ENDROOT
BRANCH   1  16
HETATM   16  C6  UNL     1      24.112   0.708  52.599  1.00  0.00     0.007 C 
BRANCH  16  17
HETATM   17  C5  UNL     1      23.986  -0.216  53.599  1.00  0.00    -0.017 C 
BRANCH  17  18
HETATM   18  C4  UNL     1      22.911  -0.998  54.367  1.00  0.00     0.042 C 
BRANCH  18  19
HETATM   19  C3  UNL     1      21.874  -0.275  54.194  1.00  0.00    -0.018 C 
BRANCH  19  20
HETATM   20  C2  UNL     1      20.730   0.522  53.926  1.00  0.00    -0.014 C 
HETATM   21  C1  UNL     1      19.917  -0.379  53.480  1.00  0.00     0.011 C 
ENDBRANCH  19  20
ENDBRANCH  18  19
ENDBRANCH  17  18
ENDBRANCH  16  17
ENDBRANCH   1  16
TORSDOF 5
ENDMDL
MODEL 9
REMARK VINA RESULT:      -6.0      4.187      6.289
REMARK  5 active torsions:
REMARK  status: ('A' for Active; 'I' for Inactive)
REMARK    1  A    between atoms: C2_2  and  C3_3 
REMARK    2  A    between atoms: C3_3  and  C4_4 
REMARK    3  A    between atoms: C4_4  and  C5_5 
REMARK    4  A    between atoms: C5_5  and  C6_6 
REMARK    5  A    between atoms: C6_6  and  C7_7 
ROOT
HETATM    1  C7  UNL     1      26.458   4.969  49.060  1.00  0.00    -0.024 C 
HETATM    2  C8  UNL     1      25.433   5.785  48.701  1.00  0.00     0.124 C 
HETATM    3  N1  UNL     1      24.280   5.263  49.394  1.00  0.00    -0.272 NA
HETATM    4  C9  UNL     1      23.942   4.032  49.161  1.00  0.00     0.130 C 
HETATM    5  C10 UNL     1      23.078   2.927  49.395  1.00  0.00     0.011 A 
HETATM    6  C11 UNL     1      22.032   2.449  48.651  1.00  0.00     0.046 A 
HETATM    7 CL1  UNL     1      21.961   3.536  47.233  1.00  0.00    -0.083 Cl
HETATM    8  C12 UNL     1      21.278   1.357  49.012  1.00  0.00     0.025 A 
HETATM    9  C13 UNL     1      21.646   0.752  50.204  1.00  0.00     0.002 A 
HETATM   10  C14 UNL     1      22.691   1.234  50.939  1.00  0.00     0.010 A 
HETATM   11  C15 UNL     1      23.463   2.319  50.619  1.00  0.00    -0.028 A 
HETATM   12  C16 UNL     1      24.574   2.879  51.461  1.00  0.00     0.154 C 
HETATM   13  N2  UNL     1      25.207   3.972  50.816  1.00  0.00    -0.413 N 
HETATM   14  C17 UNL     1      26.407   3.851  50.099  1.00  0.00     0.154 C 
HETATM   15  H15 UNL     1      25.199   4.852  51.428  1.00  0.00     0.153 HD
ENDROOT
BRANCH   1  16
HETATM   16  C6  UNL     1      27.809   5.207  48.513  1.00  0.00     0.007 C 
BRANCH  16  17
HETATM   17  C5  UNL     1      29.122   5.456  48.230  1.00  0.00    -0.017 C 
BRANCH  17  18
HETATM   18  C4  UNL     1      30.047   6.595  47.778  1.00  0.00     0.042 C 
BRANCH  18  19
HETATM   19  C3  UNL     1      29.282   7.613  47.864  1.00  0.00    -0.018 C 
BRANCH  19  20
HETATM   20  C2  UNL     1      28.390   8.709  48.010  1.00  0.00    -0.014 C 
HETATM   21  C1  UNL     1      28.609   9.024  49.245  1.00  0.00     0.011 C 
ENDBRANCH  19  20
ENDBRANCH  18  19
ENDBRANCH  17  18
ENDBRANCH  16  17
ENDBRANCH   1  16
TORSDOF 5
ENDMDL
