MODEL 1
REMARK VINA RESULT:      -7.2      0.000      0.000
REMARK  8 active torsions:
REMARK  status: ('A' for Active; 'I' for Inactive)
REMARK    1  A    between atoms: C2_2  and  C3_3 
REMARK    2  A    between atoms: C3_3  and  C4_4 
REMARK    3  A    between atoms: C4_4  and  N1_5 
REMARK    4  A    between atoms: N1_5  and  C5_6 
REMARK    5  A    between atoms: N1_5  and  C13_14 
REMARK    6  A    between atoms: C5_6  and  C6_7 
REMARK    7  A    between atoms: C13_14  and  N2_16 
REMARK    8  A    between atoms: N2_16  and  C14_17 
ROOT
HETATM    1  N1  UNL     1      25.414   2.931  50.950  1.00  0.00    -0.354 N 
ENDROOT
BRANCH   1   2
HETATM    2  C4  UNL     1      25.468   3.352  49.566  1.00  0.00     0.125 C 
BRANCH   2   3
HETATM    3  C3  UNL     1      26.829   3.944  49.273  1.00  0.00     0.020 C 
BRANCH   3   4
HETATM    4  C2  UNL     1      26.610   5.412  48.910  1.00  0.00    -0.003 C 
HETATM    5  C1  UNL     1      27.907   5.926  48.335  1.00  0.00     0.005 C 
ENDBRANCH   3   4
ENDBRANCH   2   3
ENDBRANCH   1   2
BRANCH   1   6
HETATM    6  C5  UNL     1      26.679   2.581  51.502  1.00  0.00     0.163 C 
BRANCH   6   7
HETATM    7  C6  UNL     1      26.682   1.486  52.475  1.00  0.00    -0.040 A 
HETATM    8  C7  UNL     1      26.598   1.615  53.840  1.00  0.00     0.009 A 
HETATM    9  C8  UNL     1      26.603   0.577  54.748  1.00  0.00     0.001 A 
HETATM   10  C9  UNL     1      26.706  -0.702  54.185  1.00  0.00     0.007 A 
HETATM   11  C10 UNL     1      26.795  -0.931  52.828  1.00  0.00    -0.061 A 
HETATM   12  C11 UNL     1      26.902  -2.306  52.282  1.00  0.00     0.048 C 
HETATM   13  C12 UNL     1      26.780   0.184  52.017  1.00  0.00     0.015 A 
ENDBRANCH   6   7
ENDBRANCH   1   6
BRANCH   1  14
HETATM   14  C13 UNL     1      24.172   2.904  51.610  1.00  0.00     0.174 C 
HETATM   15  S1  UNL     1      23.625   4.064  52.616  1.00  0.00    -0.041 SA
BRANCH  14  16
HETATM   16  N2  UNL     1      23.303   1.799  51.411  1.00  0.00    -0.333 N 
HETATM   17  H19 UNL     1      22.913   1.208  50.662  1.00  0.00     0.168 HD
BRANCH  16  18
HETATM   18  C14 UNL     1      22.611   1.090  52.432  1.00  0.00     0.034 A 
HETATM   19  C15 UNL     1      21.287   1.299  52.755  1.00  0.00     0.029 A 
HETATM   20  C16 UNL     1      20.641   0.595  53.756  1.00  0.00     0.002 A 
HETATM   21  C17 UNL     1      21.338  -0.370  54.480  1.00  0.00     0.000 A 
HETATM   22  C18 UNL     1      22.671  -0.633  54.210  1.00  0.00     0.002 A 
HETATM   23  C19 UNL     1      23.243   0.118  53.189  1.00  0.00     0.029 A 
ENDBRANCH  16  18
ENDBRANCH  14  16
ENDBRANCH   1  14
TORSDOF 8
ENDMDL
MODEL 2
REMARK VINA RESULT:      -7.1      1.424      5.694
REMARK  8 active torsions:
REMARK  status: ('A' for Active; 'I' for Inactive)
REMARK    1  A    between atoms: C2_2  and  C3_3 
REMARK    2  A    between atoms: C3_3  and  C4_4 
REMARK    3  A    between atoms: C4_4  and  N1_5 
REMARK    4  A    between atoms: N1_5  and  C5_6 
REMARK    5  A    between atoms: N1_5  and  C13_14 
REMARK    6  A    between atoms: C5_6  and  C6_7 
REMARK    7  A    between atoms: C13_14  and  N2_16 
REMARK    8  A    between atoms: N2_16  and  C14_17 
ROOT
HETATM    1  N1  UNL     1      24.553   1.707  52.221  1.00  0.00    -0.354 N 
ENDROOT
BRANCH   1   2
HETATM    2  C4  UNL     1      23.870   1.174  53.380  1.00  0.00     0.125 C 
BRANCH   2   3
HETATM    3  C3  UNL     1      23.399  -0.233  53.085  1.00  0.00     0.020 C 
BRANCH   3   4
HETATM    4  C2  UNL     1      22.848  -0.805  54.390  1.00  0.00    -0.003 C 
HETATM    5  C1  UNL     1      21.351  -0.618  54.360  1.00  0.00     0.005 C 
ENDBRANCH   3   4
ENDBRANCH   2   3
ENDBRANCH   1   2
BRANCH   1   6
HETATM    6  C5  UNL     1      25.637   0.903  51.765  1.00  0.00     0.163 C 
BRANCH   6   7
HETATM    7  C6  UNL     1      26.905   1.058  52.481  1.00  0.00    -0.040 A 
HETATM    8  C7  UNL     1      27.449   2.242  52.919  1.00  0.00     0.009 A 
HETATM    9  C8  UNL     1      28.646   2.376  53.591  1.00  0.00     0.001 A 
HETATM   10  C9  UNL     1      29.333   1.178  53.825  1.00  0.00     0.007 A 
HETATM   11  C10 UNL     1      28.867  -0.056  53.423  1.00  0.00    -0.061 A 
HETATM   12  C11 UNL     1      29.634  -1.297  53.694  1.00  0.00     0.048 C 
HETATM   13  C12 UNL     1      27.659  -0.068  52.759  1.00  0.00     0.015 A 
ENDBRANCH   6   7
ENDBRANCH   1   6
BRANCH   1  14
HETATM   14  C13 UNL     1      24.112   2.919  51.662  1.00  0.00     0.174 C 
HETATM   15  S1  UNL     1      23.403   4.128  52.497  1.00  0.00    -0.041 SA
BRANCH  14  16
HETATM   16  N2  UNL     1      24.276   3.144  50.270  1.00  0.00    -0.333 N 
HETATM   17  H19 UNL     1      23.893   2.855  49.358  1.00  0.00     0.168 HD
BRANCH  16  18
HETATM   18  C14 UNL     1      25.225   4.022  49.675  1.00  0.00     0.034 A 
HETATM   19  C15 UNL     1      26.550   3.704  49.471  1.00  0.00     0.029 A 
HETATM   20  C16 UNL     1      27.451   4.580  48.892  1.00  0.00     0.002 A 
HETATM   21  C17 UNL     1      27.021   5.843  48.491  1.00  0.00     0.000 A 
HETATM   22  C18 UNL     1      25.703   6.233  48.664  1.00  0.00     0.002 A 
HETATM   23  C19 UNL     1      24.865   5.291  49.253  1.00  0.00     0.029 A 
ENDBRANCH  16  18
ENDBRANCH  14  16
ENDBRANCH   1  14
TORSDOF 8
ENDMDL
MODEL 3
REMARK VINA RESULT:      -7.1      1.547      5.764
REMARK  8 active torsions:
REMARK  status: ('A' for Active; 'I' for Inactive)
REMARK    1  A    between atoms: C2_2  and  C3_3 
REMARK    2  A    between atoms: C3_3  and  C4_4 
REMARK    3  A    between atoms: C4_4  and  N1_5 
REMARK    4  A    between atoms: N1_5  and  C5_6 
REMARK    5  A    between atoms: N1_5  and  C13_14 
REMARK    6  A    between atoms: C5_6  and  C6_7 
REMARK    7  A    between atoms: C13_14  and  N2_16 
REMARK    8  A    between atoms: N2_16  and  C14_17 
ROOT
HETATM    1  N1  UNL     1      22.860   1.556  52.122  1.00  0.00    -0.354 N 
ENDROOT
BRANCH   1   2
HETATM    2  C4  UNL     1      21.930   0.461  52.303  1.00  0.00     0.125 C 
BRANCH   2   3
HETATM    3  C3  UNL     1      21.630   0.293  53.776  1.00  0.00     0.020 C 
BRANCH   3   4
HETATM    4  C2  UNL     1      21.784  -1.192  54.098  1.00  0.00    -0.003 C 
HETATM    5  C1  UNL     1      22.812  -1.303  55.198  1.00  0.00     0.005 C 
ENDBRANCH   3   4
ENDBRANCH   2   3
ENDBRANCH   1   2
BRANCH   1   6
HETATM    6  C5  UNL     1      23.745   1.753  53.219  1.00  0.00     0.163 C 
BRANCH   6   7
HETATM    7  C6  UNL     1      25.093   1.198  53.073  1.00  0.00    -0.040 A 
HETATM    8  C7  UNL     1      25.404  -0.072  52.651  1.00  0.00     0.009 A 
HETATM    9  C8  UNL     1      26.677  -0.585  52.519  1.00  0.00     0.001 A 
HETATM   10  C9  UNL     1      27.711   0.298  52.856  1.00  0.00     0.007 A 
HETATM   11  C10 UNL     1      27.497   1.589  53.290  1.00  0.00    -0.061 A 
HETATM   12  C11 UNL     1      28.627   2.486  53.636  1.00  0.00     0.048 C 
HETATM   13  C12 UNL     1      26.182   1.993  53.383  1.00  0.00     0.015 A 
ENDBRANCH   6   7
ENDBRANCH   1   6
BRANCH   1  14
HETATM   14  C13 UNL     1      22.817   2.301  50.931  1.00  0.00     0.174 C 
HETATM   15  S1  UNL     1      22.146   1.792  49.535  1.00  0.00    -0.041 SA
BRANCH  14  16
HETATM   16  N2  UNL     1      23.393   3.599  50.902  1.00  0.00    -0.333 N 
HETATM   17  H19 UNL     1      23.232   4.557  51.245  1.00  0.00     0.168 HD
BRANCH  16  18
HETATM   18  C14 UNL     1      24.600   3.960  50.241  1.00  0.00     0.034 A 
HETATM   19  C15 UNL     1      25.663   3.102  50.052  1.00  0.00     0.029 A 
HETATM   20  C16 UNL     1      26.826   3.483  49.407  1.00  0.00     0.002 A 
HETATM   21  C17 UNL     1      26.951   4.783  48.921  1.00  0.00     0.000 A 
HETATM   22  C18 UNL     1      25.924   5.699  49.075  1.00  0.00     0.002 A 
HETATM   23  C19 UNL     1      24.790   5.234  49.733  1.00  0.00     0.029 A 
ENDBRANCH  16  18
ENDBRANCH  14  16
ENDBRANCH   1  14
TORSDOF 8
ENDMDL
MODEL 4
REMARK VINA RESULT:      -7.0      2.084      5.433
REMARK  8 active torsions:
REMARK  status: ('A' for Active; 'I' for Inactive)
REMARK    1  A    between atoms: C2_2  and  C3_3 
REMARK    2  A    between atoms: C3_3  and  C4_4 
REMARK    3  A    between atoms: C4_4  and  N1_5 
REMARK    4  A    between atoms: N1_5  and  C5_6 
REMARK    5  A    between atoms: N1_5  and  C13_14 
REMARK    6  A    between atoms: C5_6  and  C6_7 
REMARK    7  A    between atoms: C13_14  and  N2_16 
REMARK    8  A    between atoms: N2_16  and  C14_17 
ROOT
HETATM    1  N1  UNL     1      24.293   2.432  51.888  1.00  0.00    -0.354 N 
ENDROOT
BRANCH   1   2
HETATM    2  C4  UNL     1      23.516   3.452  52.561  1.00  0.00     0.125 C 
BRANCH   2   3
HETATM    3  C3  UNL     1      22.506   4.033  51.597  1.00  0.00     0.020 C 
BRANCH   3   4
HETATM    4  C2  UNL     1      21.146   3.989  52.293  1.00  0.00    -0.003 C 
HETATM    5  C1  UNL     1      20.133   3.555  51.262  1.00  0.00     0.005 C 
ENDBRANCH   3   4
ENDBRANCH   2   3
ENDBRANCH   1   2
BRANCH   1   6
HETATM    6  C5  UNL     1      23.528   1.316  51.445  1.00  0.00     0.163 C 
BRANCH   6   7
HETATM    7  C6  UNL     1      22.903   0.503  52.490  1.00  0.00    -0.040 A 
HETATM    8  C7  UNL     1      23.550  -0.107  53.538  1.00  0.00     0.009 A 
HETATM    9  C8  UNL     1      22.951  -0.873  54.516  1.00  0.00     0.001 A 
HETATM   10  C9  UNL     1      21.563  -1.016  54.391  1.00  0.00     0.007 A 
HETATM   11  C10 UNL     1      20.828  -0.443  53.375  1.00  0.00    -0.061 A 
HETATM   12  C11 UNL     1      19.359  -0.625  53.287  1.00  0.00     0.048 C 
HETATM   13  C12 UNL     1      21.534   0.302  52.454  1.00  0.00     0.015 A 
ENDBRANCH   6   7
ENDBRANCH   1   6
BRANCH   1  14
HETATM   14  C13 UNL     1      25.678   2.618  51.732  1.00  0.00     0.174 C 
HETATM   15  S1  UNL     1      26.409   3.066  50.346  1.00  0.00    -0.041 SA
BRANCH  14  16
HETATM   16  N2  UNL     1      26.538   2.407  52.844  1.00  0.00    -0.333 N 
HETATM   17  H19 UNL     1      26.834   2.850  53.726  1.00  0.00     0.168 HD
BRANCH  16  18
HETATM   18  C14 UNL     1      27.381   1.279  53.041  1.00  0.00     0.034 A 
HETATM   19  C15 UNL     1      28.658   1.350  53.555  1.00  0.00     0.029 A 
HETATM   20  C16 UNL     1      29.456   0.234  53.734  1.00  0.00     0.002 A 
HETATM   21  C17 UNL     1      28.969  -1.025  53.386  1.00  0.00     0.000 A 
HETATM   22  C18 UNL     1      27.695  -1.172  52.864  1.00  0.00     0.002 A 
HETATM   23  C19 UNL     1      26.960  -0.000  52.717  1.00  0.00     0.029 A 
ENDBRANCH  16  18
ENDBRANCH  14  16
ENDBRANCH   1  14
TORSDOF 8
ENDMDL
MODEL 5
REMARK VINA RESULT:      -6.9      1.046      5.960
REMARK  8 active torsions:
REMARK  status: ('A' for Active; 'I' for Inactive)
REMARK    1  A    between atoms: C2_2  and  C3_3 
REMARK    2  A    between atoms: C3_3  and  C4_4 
REMARK    3  A    between atoms: C4_4  and  N1_5 
REMARK    4  A    between atoms: N1_5  and  C5_6 
REMARK    5  A    between atoms: N1_5  and  C13_14 
REMARK    6  A    between atoms: C5_6  and  C6_7 
REMARK    7  A    between atoms: C13_14  and  N2_16 
REMARK    8  A    between atoms: N2_16  and  C14_17 
ROOT
HETATM    1  N1  UNL     1      24.456   2.494  51.672  1.00  0.00    -0.354 N 
ENDROOT
BRANCH   1   2
HETATM    2  C4  UNL     1      25.698   2.349  52.403  1.00  0.00     0.125 C 
BRANCH   2   3
HETATM    3  C3  UNL     1      26.527   1.252  51.774  1.00  0.00     0.020 C 
BRANCH   3   4
HETATM    4  C2  UNL     1      26.954   0.311  52.899  1.00  0.00    -0.003 C 
HETATM    5  C1  UNL     1      26.676  -1.097  52.430  1.00  0.00     0.005 C 
ENDBRANCH   3   4
ENDBRANCH   2   3
ENDBRANCH   1   2
BRANCH   1   6
HETATM    6  C5  UNL     1      23.764   1.269  51.453  1.00  0.00     0.163 C 
BRANCH   6   7
HETATM    7  C6  UNL     1      22.829   0.856  52.502  1.00  0.00    -0.040 A 
HETATM    8  C7  UNL     1      21.539   1.304  52.660  1.00  0.00     0.009 A 
HETATM    9  C8  UNL     1      20.667   0.910  53.652  1.00  0.00     0.001 A 
HETATM   10  C9  UNL     1      21.183  -0.027  54.557  1.00  0.00     0.007 A 
HETATM   11  C10 UNL     1      22.463  -0.534  54.480  1.00  0.00    -0.061 A 
HETATM   12  C11 UNL     1      22.961  -1.526  55.465  1.00  0.00     0.048 C 
HETATM   13  C12 UNL     1      23.244  -0.067  53.445  1.00  0.00     0.015 A 
ENDBRANCH   6   7
ENDBRANCH   1   6
BRANCH   1  14
HETATM   14  C13 UNL     1      24.051   3.774  51.257  1.00  0.00     0.174 C 
HETATM   15  S1  UNL     1      23.368   4.896  52.223  1.00  0.00    -0.041 SA
BRANCH  14  16
HETATM   16  N2  UNL     1      24.234   4.156  49.901  1.00  0.00    -0.333 N 
HETATM   17  H19 UNL     1      23.746   4.157  48.994  1.00  0.00     0.168 HD
BRANCH  16  18
HETATM   18  C14 UNL     1      25.399   4.765  49.357  1.00  0.00     0.034 A 
HETATM   19  C15 UNL     1      26.621   4.138  49.253  1.00  0.00     0.029 A 
HETATM   20  C16 UNL     1      27.738   4.757  48.722  1.00  0.00     0.002 A 
HETATM   21  C17 UNL     1      27.646   6.071  48.266  1.00  0.00     0.000 A 
HETATM   22  C18 UNL     1      26.449   6.765  48.340  1.00  0.00     0.002 A 
HETATM   23  C19 UNL     1      25.377   6.068  48.887  1.00  0.00     0.029 A 
ENDBRANCH  16  18
ENDBRANCH  14  16
ENDBRANCH   1  14
TORSDOF 8
ENDMDL
MODEL 6
REMARK VINA RESULT:      -6.8      1.954      5.212
REMARK  8 active torsions:
REMARK  status: ('A' for Active; 'I' for Inactive)
REMARK    1  A    between atoms: C2_2  and  C3_3 
REMARK    2  A    between atoms: C3_3  and  C4_4 
REMARK    3  A    between atoms: C4_4  and  N1_5 
REMARK    4  A    between atoms: N1_5  and  C5_6 
REMARK    5  A    between atoms: N1_5  and  C13_14 
REMARK    6  A    between atoms: C5_6  and  C6_7 
REMARK    7  A    between atoms: C13_14  and  N2_16 
REMARK    8  A    between atoms: N2_16  and  C14_17 
ROOT
HETATM    1  N1  UNL     1      24.108   2.573  51.232  1.00  0.00    -0.354 N 
ENDROOT
BRANCH   1   2
HETATM    2  C4  UNL     1      23.443   2.108  50.033  1.00  0.00     0.125 C 
BRANCH   2   3
HETATM    3  C3  UNL     1      22.367   3.094  49.639  1.00  0.00     0.020 C 
BRANCH   3   4
HETATM    4  C2  UNL     1      21.402   2.358  48.711  1.00  0.00    -0.003 C 
HETATM    5  C1  UNL     1      21.386   0.912  49.142  1.00  0.00     0.005 C 
ENDBRANCH   3   4
ENDBRANCH   2   3
ENDBRANCH   1   2
BRANCH   1   6
HETATM    6  C5  UNL     1      23.269   2.615  52.382  1.00  0.00     0.163 C 
BRANCH   6   7
HETATM    7  C6  UNL     1      22.786   1.326  52.881  1.00  0.00    -0.040 A 
HETATM    8  C7  UNL     1      23.557   0.330  53.432  1.00  0.00     0.009 A 
HETATM    9  C8  UNL     1      23.092  -0.882  53.897  1.00  0.00     0.001 A 
HETATM   10  C9  UNL     1      21.709  -1.072  53.776  1.00  0.00     0.007 A 
HETATM   11  C10 UNL     1      20.856  -0.133  53.237  1.00  0.00    -0.061 A 
HETATM   12  C11 UNL     1      19.398  -0.384  53.131  1.00  0.00     0.048 C 
HETATM   13  C12 UNL     1      21.434   1.042  52.806  1.00  0.00     0.015 A 
ENDBRANCH   6   7
ENDBRANCH   1   6
BRANCH   1  14
HETATM   14  C13 UNL     1      25.467   2.928  51.169  1.00  0.00     0.174 C 
HETATM   15  S1  UNL     1      26.241   3.416  49.820  1.00  0.00    -0.041 SA
BRANCH  14  16
HETATM   16  N2  UNL     1      26.257   2.867  52.347  1.00  0.00    -0.333 N 
HETATM   17  H19 UNL     1      26.507   3.426  53.176  1.00  0.00     0.168 HD
BRANCH  16  18
HETATM   18  C14 UNL     1      27.073   1.773  52.747  1.00  0.00     0.034 A 
HETATM   19  C15 UNL     1      26.825   0.460  52.408  1.00  0.00     0.029 A 
HETATM   20  C16 UNL     1      27.636  -0.584  52.815  1.00  0.00     0.002 A 
HETATM   21  C17 UNL     1      28.756  -0.321  53.601  1.00  0.00     0.000 A 
HETATM   22  C18 UNL     1      29.068   0.974  53.980  1.00  0.00     0.002 A 
HETATM   23  C19 UNL     1      28.201   1.963  53.529  1.00  0.00     0.029 A 
ENDBRANCH  16  18
ENDBRANCH  14  16
ENDBRANCH   1  14
TORSDOF 8
ENDMDL
MODEL 7
REMARK VINA RESULT:      -6.7      2.188      6.361
REMARK  8 active torsions:
REMARK  status: ('A' for Active; 'I' for Inactive)
REMARK    1  A    between atoms: C2_2  and  C3_3 
REMARK    2  A    between atoms: C3_3  and  C4_4 
REMARK    3  A    between atoms: C4_4  and  N1_5 
REMARK    4  A    between atoms: N1_5  and  C5_6 
REMARK    5  A    between atoms: N1_5  and  C13_14 
REMARK    6  A    between atoms: C5_6  and  C6_7 
REMARK    7  A    between atoms: C13_14  and  N2_16 
REMARK    8  A    between atoms: N2_16  and  C14_17 
ROOT
HETATM    1  N1  UNL     1      23.595   0.398  53.172  1.00  0.00    -0.354 N 
ENDROOT
BRANCH   1   2
HETATM    2  C4  UNL     1      22.373  -0.323  52.882  1.00  0.00     0.125 C 
BRANCH   2   3
HETATM    3  C3  UNL     1      21.339  -0.005  53.938  1.00  0.00     0.020 C 
BRANCH   3   4
HETATM    4  C2  UNL     1      19.969  -0.284  53.322  1.00  0.00    -0.003 C 
HETATM    5  C1  UNL     1      20.009   0.223  51.901  1.00  0.00     0.005 C 
ENDBRANCH   3   4
ENDBRANCH   2   3
ENDBRANCH   1   2
BRANCH   1   6
HETATM    6  C5  UNL     1      23.497   1.806  52.984  1.00  0.00     0.163 C 
BRANCH   6   7
HETATM    7  C6  UNL     1      23.705   2.294  51.618  1.00  0.00    -0.040 A 
HETATM    8  C7  UNL     1      22.754   2.360  50.628  1.00  0.00     0.009 A 
HETATM    9  C8  UNL     1      22.961   2.820  49.344  1.00  0.00     0.001 A 
HETATM   10  C9  UNL     1      24.268   3.244  49.070  1.00  0.00     0.007 A 
HETATM   11  C10 UNL     1      25.287   3.214  49.997  1.00  0.00    -0.061 A 
HETATM   12  C11 UNL     1      26.656   3.675  49.655  1.00  0.00     0.048 C 
HETATM   13  C12 UNL     1      24.963   2.735  51.248  1.00  0.00     0.015 A 
ENDBRANCH   6   7
ENDBRANCH   1   6
BRANCH   1  14
HETATM   14  C13 UNL     1      24.728  -0.317  53.598  1.00  0.00     0.174 C 
HETATM   15  S1  UNL     1      24.918  -0.967  55.081  1.00  0.00    -0.041 SA
BRANCH  14  16
HETATM   16  N2  UNL     1      25.810  -0.507  52.698  1.00  0.00    -0.333 N 
HETATM   17  H19 UNL     1      26.006  -0.774  51.722  1.00  0.00     0.168 HD
BRANCH  16  18
HETATM   18  C14 UNL     1      27.188  -0.331  53.004  1.00  0.00     0.034 A 
HETATM   19  C15 UNL     1      27.777   0.892  53.243  1.00  0.00     0.029 A 
HETATM   20  C16 UNL     1      29.121   1.031  53.536  1.00  0.00     0.002 A 
HETATM   21  C17 UNL     1      29.934  -0.099  53.597  1.00  0.00     0.000 A 
HETATM   22  C18 UNL     1      29.412  -1.361  53.368  1.00  0.00     0.002 A 
HETATM   23  C19 UNL     1      28.052  -1.411  53.081  1.00  0.00     0.029 A 
ENDBRANCH  16  18
ENDBRANCH  14  16
ENDBRANCH   1  14
TORSDOF 8
ENDMDL
MODEL 8
REMARK VINA RESULT:      -6.6      2.445      5.138
REMARK  8 active torsions:
REMARK  status: ('A' for Active; 'I' for Inactive)
REMARK    1  A    between atoms: C2_2  and  C3_3 
REMARK    2  A    between atoms: C3_3  and  C4_4 
REMARK    3  A    between atoms: C4_4  and  N1_5 
REMARK    4  A    between atoms: N1_5  and  C5_6 
REMARK    5  A    between atoms: N1_5  and  C13_14 
REMARK    6  A    between atoms: C5_6  and  C6_7 
REMARK    7  A    between atoms: C13_14  and  N2_16 
REMARK    8  A    between atoms: N2_16  and  C14_17 
ROOT
HETATM    1  N1  UNL     1      24.600   0.075  53.442  1.00  0.00    -0.354 N 
ENDROOT
BRANCH   1   2
HETATM    2  C4  UNL     1      25.721  -0.756  53.059  1.00  0.00     0.125 C 
BRANCH   2   3
HETATM    3  C3  UNL     1      26.937  -0.368  53.870  1.00  0.00     0.020 C 
BRANCH   3   4
HETATM    4  C2  UNL     1      28.160  -0.905  53.130  1.00  0.00    -0.003 C 
HETATM    5  C1  UNL     1      29.377  -0.304  53.789  1.00  0.00     0.005 C 
ENDBRANCH   3   4
ENDBRANCH   2   3
ENDBRANCH   1   2
BRANCH   1   6
HETATM    6  C5  UNL     1      24.909   1.462  53.534  1.00  0.00     0.163 C 
BRANCH   6   7
HETATM    7  C6  UNL     1      24.482   2.298  52.410  1.00  0.00    -0.040 A 
HETATM    8  C7  UNL     1      24.914   2.190  51.110  1.00  0.00     0.009 A 
HETATM    9  C8  UNL     1      24.506   2.983  50.058  1.00  0.00     0.001 A 
HETATM   10  C9  UNL     1      23.572   3.973  50.390  1.00  0.00     0.007 A 
HETATM   11  C10 UNL     1      23.081   4.159  51.666  1.00  0.00    -0.061 A 
HETATM   12  C11 UNL     1      22.092   5.223  51.965  1.00  0.00     0.048 C 
HETATM   13  C12 UNL     1      23.561   3.305  52.636  1.00  0.00     0.015 A 
ENDBRANCH   6   7
ENDBRANCH   1   6
BRANCH   1  14
HETATM   14  C13 UNL     1      23.351  -0.525  53.681  1.00  0.00     0.174 C 
HETATM   15  S1  UNL     1      22.836  -1.064  55.131  1.00  0.00    -0.041 SA
BRANCH  14  16
HETATM   16  N2  UNL     1      22.443  -0.694  52.602  1.00  0.00    -0.333 N 
HETATM   17  H19 UNL     1      22.107  -1.408  51.938  1.00  0.00     0.168 HD
BRANCH  16  18
HETATM   18  C14 UNL     1      21.592   0.311  52.064  1.00  0.00     0.034 A 
HETATM   19  C15 UNL     1      20.745   1.092  52.822  1.00  0.00     0.029 A 
HETATM   20  C16 UNL     1      19.927   2.061  52.270  1.00  0.00     0.002 A 
HETATM   21  C17 UNL     1      19.943   2.274  50.893  1.00  0.00     0.000 A 
HETATM   22  C18 UNL     1      20.769   1.527  50.069  1.00  0.00     0.002 A 
HETATM   23  C19 UNL     1      21.558   0.575  50.705  1.00  0.00     0.029 A 
ENDBRANCH  16  18
ENDBRANCH  14  16
ENDBRANCH   1  14
TORSDOF 8
ENDMDL
MODEL 9
REMARK VINA RESULT:      -6.4      2.299      5.739
REMARK  8 active torsions:
REMARK  status: ('A' for Active; 'I' for Inactive)
REMARK    1  A    between atoms: C2_2  and  C3_3 
REMARK    2  A    between atoms: C3_3  and  C4_4 
REMARK    3  A    between atoms: C4_4  and  N1_5 
REMARK    4  A    between atoms: N1_5  and  C5_6 
REMARK    5  A    between atoms: N1_5  and  C13_14 
REMARK    6  A    between atoms: C5_6  and  C6_7 
REMARK    7  A    between atoms: C13_14  and  N2_16 
REMARK    8  A    between atoms: N2_16  and  C14_17 
ROOT
HETATM    1  N1  UNL     1      24.522   2.552  51.930  1.00  0.00    -0.354 N 
ENDROOT
BRANCH   1   2
HETATM    2  C4  UNL     1      23.898   3.482  52.847  1.00  0.00     0.125 C 
BRANCH   2   3
HETATM    3  C3  UNL     1      23.561   4.762  52.115  1.00  0.00     0.020 C 
BRANCH   3   4
HETATM    4  C2  UNL     1      22.045   4.782  51.922  1.00  0.00    -0.003 C 
HETATM    5  C1  UNL     1      21.708   6.060  51.193  1.00  0.00     0.005 C 
ENDBRANCH   3   4
ENDBRANCH   2   3
ENDBRANCH   1   2
BRANCH   1   6
HETATM    6  C5  UNL     1      23.858   1.296  51.834  1.00  0.00     0.163 C 
BRANCH   6   7
HETATM    7  C6  UNL     1      22.598   1.284  51.086  1.00  0.00    -0.040 A 
HETATM    8  C7  UNL     1      22.402   1.783  49.821  1.00  0.00     0.009 A 
HETATM    9  C8  UNL     1      21.211   1.768  49.127  1.00  0.00     0.001 A 
HETATM   10  C9  UNL     1      20.134   1.186  49.808  1.00  0.00     0.007 A 
HETATM   11  C10 UNL     1      20.234   0.659  51.079  1.00  0.00    -0.061 A 
HETATM   12  C11 UNL     1      19.063   0.054  51.758  1.00  0.00     0.048 C 
HETATM   13  C12 UNL     1      21.475   0.730  51.675  1.00  0.00     0.015 A 
ENDBRANCH   6   7
ENDBRANCH   1   6
BRANCH   1  14
HETATM   14  C13 UNL     1      25.680   2.946  51.237  1.00  0.00     0.174 C 
HETATM   15  S1  UNL     1      25.731   3.353  49.659  1.00  0.00    -0.041 SA
BRANCH  14  16
HETATM   16  N2  UNL     1      26.919   3.005  51.930  1.00  0.00    -0.333 N 
HETATM   17  H19 UNL     1      27.682   3.659  52.158  1.00  0.00     0.168 HD
BRANCH  16  18
HETATM   18  C14 UNL     1      27.533   1.930  52.631  1.00  0.00     0.034 A 
HETATM   19  C15 UNL     1      27.225   0.601  52.430  1.00  0.00     0.029 A 
HETATM   20  C16 UNL     1      27.837  -0.423  53.129  1.00  0.00     0.002 A 
HETATM   21  C17 UNL     1      28.809  -0.123  54.081  1.00  0.00     0.000 A 
HETATM   22  C18 UNL     1      29.170   1.190  54.337  1.00  0.00     0.002 A 
HETATM   23  C19 UNL     1      28.505   2.158  53.590  1.00  0.00     0.029 A 
ENDBRANCH  16  18
ENDBRANCH  14  16
ENDBRANCH   1  14
TORSDOF 8
ENDMDL
