MODEL 1
REMARK VINA RESULT:      -9.2      0.000      0.000
REMARK  1 active torsions:
REMARK  status: ('A' for Active; 'I' for Inactive)
REMARK    1  A    between atoms: C11_16  and  N5_17 
ROOT
HETATM    1  N1  UNL     1      26.066  -0.664  55.294  1.00  0.00    -0.282 NA
HETATM    2  C1  UNL     1      25.614  -0.729  54.112  1.00  0.00     0.155 C 
HETATM    3  N2  UNL     1      26.431  -1.075  52.970  1.00  0.00    -0.204 NA
HETATM    4  C2  UNL     1      27.664  -0.706  53.134  1.00  0.00     0.221 C 
HETATM    5  N3  UNL     1      27.809   0.362  53.856  1.00  0.00    -0.150 NA
HETATM    6  N4  UNL     1      26.800   1.340  53.632  1.00  0.00    -0.275 N 
HETATM    7  C3  UNL     1      25.851   1.695  52.630  1.00  0.00     0.062 A 
HETATM    8  C4  UNL     1      26.447   2.531  51.674  1.00  0.00     0.051 A 
HETATM    9  C5  UNL     1      25.828   3.066  50.534  1.00  0.00     0.013 A 
HETATM   10 BR1  UNL     1      26.737   4.187  49.309  1.00  0.00    -0.051 Br
HETATM   11  C6  UNL     1      24.507   2.700  50.393  1.00  0.00     0.020 A 
HETATM   12  C7  UNL     1      23.903   1.880  51.320  1.00  0.00     0.016 A 
HETATM   13  C8  UNL     1      24.534   1.371  52.428  1.00  0.00     0.003 A 
HETATM   14  C9  UNL     1      23.688   0.548  53.273  1.00  0.00    -0.007 A 
HETATM   15  C10 UNL     1      22.326   0.719  53.327  1.00  0.00     0.042 A 
HETATM   16  C11 UNL     1      21.497  -0.043  54.124  1.00  0.00     0.026 A 
HETATM   17  C12 UNL     1      22.021  -1.035  54.921  1.00  0.00     0.030 A 
HETATM   18  C13 UNL     1      23.409  -1.213  54.871  1.00  0.00     0.018 A 
HETATM   19  C14 UNL     1      24.203  -0.430  54.060  1.00  0.00     0.022 A 
HETATM   20  H1  UNL     1      25.605  -0.437  56.173  1.00  0.00     0.188 HD
HETATM   21  H2  UNL     1      26.504   2.140  54.226  1.00  0.00     0.189 HD
ENDROOT
BRANCH  16  22
HETATM   22  N5  UNL     1      20.085   0.130  54.184  1.00  0.00    -0.399 N 
HETATM   23  H7  UNL     1      19.303   0.424  53.544  1.00  0.00     0.156 HD
HETATM   24  H8  UNL     1      19.792  -0.112  55.150  1.00  0.00     0.156 HD
ENDBRANCH  16  22
TORSDOF 1
ENDMDL
MODEL 2
REMARK VINA RESULT:      -8.2      3.151      5.525
REMARK  1 active torsions:
REMARK  status: ('A' for Active; 'I' for Inactive)
REMARK    1  A    between atoms: C11_16  and  N5_17 
ROOT
HETATM    1  N1  UNL     1      25.022   3.880  51.616  1.00  0.00    -0.282 NA
HETATM    2  C1  UNL     1      24.845   2.644  51.400  1.00  0.00     0.155 C 
HETATM    3  N2  UNL     1      23.992   2.139  50.348  1.00  0.00    -0.204 NA
HETATM    4  C2  UNL     1      23.012   2.951  50.094  1.00  0.00     0.221 C 
HETATM    5  N3  UNL     1      22.603   3.629  51.122  1.00  0.00    -0.150 NA
HETATM    6  N4  UNL     1      22.612   2.884  52.335  1.00  0.00    -0.275 N 
HETATM    7  C3  UNL     1      22.604   1.524  52.760  1.00  0.00     0.062 A 
HETATM    8  C4  UNL     1      21.287   1.048  52.833  1.00  0.00     0.051 A 
HETATM    9  C5  UNL     1      20.888  -0.248  53.198  1.00  0.00     0.013 A 
HETATM   10 BR1  UNL     1      19.072  -0.778  53.258  1.00  0.00    -0.051 Br
HETATM   11  C6  UNL     1      21.936  -1.088  53.503  1.00  0.00     0.020 A 
HETATM   12  C7  UNL     1      23.237  -0.640  53.439  1.00  0.00     0.016 A 
HETATM   13  C8  UNL     1      23.598   0.635  53.079  1.00  0.00     0.003 A 
HETATM   14  C9  UNL     1      25.028   0.881  53.104  1.00  0.00    -0.007 A 
HETATM   15  C10 UNL     1      25.873   0.179  53.927  1.00  0.00     0.042 A 
HETATM   16  C11 UNL     1      27.236   0.394  53.978  1.00  0.00     0.026 A 
HETATM   17  C12 UNL     1      27.816   1.352  53.179  1.00  0.00     0.030 A 
HETATM   18  C13 UNL     1      26.958   2.072  52.337  1.00  0.00     0.018 A 
HETATM   19  C14 UNL     1      25.602   1.826  52.317  1.00  0.00     0.022 A 
HETATM   20  H1  UNL     1      25.588   4.362  52.312  1.00  0.00     0.188 HD
HETATM   21  H2  UNL     1      22.603   3.215  53.320  1.00  0.00     0.189 HD
ENDROOT
BRANCH  16  22
HETATM   22  N5  UNL     1      28.116  -0.331  54.830  1.00  0.00    -0.399 N 
HETATM   23  H7  UNL     1      28.279  -1.328  55.125  1.00  0.00     0.156 HD
HETATM   24  H8  UNL     1      28.759   0.362  55.259  1.00  0.00     0.156 HD
ENDBRANCH  16  22
TORSDOF 1
ENDMDL
MODEL 3
REMARK VINA RESULT:      -7.9      2.586      3.973
REMARK  1 active torsions:
REMARK  status: ('A' for Active; 'I' for Inactive)
REMARK    1  A    between atoms: C11_16  and  N5_17 
ROOT
HETATM    1  N1  UNL     1      22.464   2.525  50.744  1.00  0.00    -0.282 NA
HETATM    2  C1  UNL     1      22.860   2.409  51.941  1.00  0.00     0.155 C 
HETATM    3  N2  UNL     1      23.792   3.325  52.560  1.00  0.00    -0.204 NA
HETATM    4  C2  UNL     1      24.611   3.833  51.692  1.00  0.00     0.221 C 
HETATM    5  N3  UNL     1      24.890   3.047  50.699  1.00  0.00    -0.150 NA
HETATM    6  N4  UNL     1      25.012   1.680  51.073  1.00  0.00    -0.275 N 
HETATM    7  C3  UNL     1      25.262   0.904  52.242  1.00  0.00     0.062 A 
HETATM    8  C4  UNL     1      26.644   0.768  52.445  1.00  0.00     0.051 A 
HETATM    9  C5  UNL     1      27.267   0.087  53.502  1.00  0.00     0.013 A 
HETATM   10 BR1  UNL     1      29.149  -0.028  53.674  1.00  0.00    -0.051 Br
HETATM   11  C6  UNL     1      26.386  -0.483  54.395  1.00  0.00     0.020 A 
HETATM   12  C7  UNL     1      25.026  -0.362  54.213  1.00  0.00     0.016 A 
HETATM   13  C8  UNL     1      24.443   0.311  53.168  1.00  0.00     0.003 A 
HETATM   14  C9  UNL     1      22.992   0.286  53.175  1.00  0.00    -0.007 A 
HETATM   15  C10 UNL     1      22.285  -0.735  53.760  1.00  0.00     0.042 A 
HETATM   16  C11 UNL     1      20.906  -0.791  53.778  1.00  0.00     0.026 A 
HETATM   17  C12 UNL     1      20.165   0.209  53.190  1.00  0.00     0.030 A 
HETATM   18  C13 UNL     1      20.881   1.253  52.591  1.00  0.00     0.018 A 
HETATM   19  C14 UNL     1      22.260   1.270  52.596  1.00  0.00     0.022 A 
HETATM   20  H1  UNL     1      21.819   1.959  50.195  1.00  0.00     0.188 HD
HETATM   21  H2  UNL     1      24.960   0.822  50.489  1.00  0.00     0.189 HD
ENDROOT
BRANCH  16  22
HETATM   22  N5  UNL     1      20.168  -1.847  54.383  1.00  0.00    -0.399 N 
HETATM   23  H7  UNL     1      19.547  -2.642  54.084  1.00  0.00     0.156 HD
HETATM   24  H8  UNL     1      20.313  -1.768  55.408  1.00  0.00     0.156 HD
ENDBRANCH  16  22
TORSDOF 1
ENDMDL
MODEL 4
REMARK VINA RESULT:      -7.9      2.310      4.340
REMARK  1 active torsions:
REMARK  status: ('A' for Active; 'I' for Inactive)
REMARK    1  A    between atoms: C11_16  and  N5_17 
ROOT
HETATM    1  N1  UNL     1      19.899   1.209  51.779  1.00  0.00    -0.282 NA
HETATM    2  C1  UNL     1      20.827   1.798  52.409  1.00  0.00     0.155 C 
HETATM    3  N2  UNL     1      21.049   3.225  52.342  1.00  0.00    -0.204 NA
HETATM    4  C2  UNL     1      20.682   3.713  51.197  1.00  0.00     0.221 C 
HETATM    5  N3  UNL     1      20.814   2.892  50.201  1.00  0.00    -0.150 NA
HETATM    6  N4  UNL     1      21.980   2.080  50.285  1.00  0.00    -0.275 N 
HETATM    7  C3  UNL     1      23.249   2.085  50.933  1.00  0.00     0.062 A 
HETATM    8  C4  UNL     1      24.178   2.808  50.169  1.00  0.00     0.051 A 
HETATM    9  C5  UNL     1      25.522   3.042  50.496  1.00  0.00     0.013 A 
HETATM   10 BR1  UNL     1      26.686   4.038  49.383  1.00  0.00    -0.051 Br
HETATM   11  C6  UNL     1      25.910   2.484  51.695  1.00  0.00     0.020 A 
HETATM   12  C7  UNL     1      25.014   1.770  52.459  1.00  0.00     0.016 A 
HETATM   13  C8  UNL     1      23.703   1.556  52.113  1.00  0.00     0.003 A 
HETATM   14  C9  UNL     1      22.955   0.756  53.066  1.00  0.00    -0.007 A 
HETATM   15  C10 UNL     1      23.567  -0.164  53.882  1.00  0.00     0.042 A 
HETATM   16  C11 UNL     1      22.884  -0.943  54.793  1.00  0.00     0.026 A 
HETATM   17  C12 UNL     1      21.519  -0.822  54.923  1.00  0.00     0.030 A 
HETATM   18  C13 UNL     1      20.889   0.115  54.093  1.00  0.00     0.018 A 
HETATM   19  C14 UNL     1      21.610   0.874  53.196  1.00  0.00     0.022 A 
HETATM   20  H1  UNL     1      19.636   0.226  51.740  1.00  0.00     0.188 HD
HETATM   21  H2  UNL     1      22.203   1.184  49.807  1.00  0.00     0.189 HD
ENDROOT
BRANCH  16  22
HETATM   22  N5  UNL     1      23.512  -1.899  55.641  1.00  0.00    -0.399 N 
HETATM   23  H7  UNL     1      24.135  -2.741  55.546  1.00  0.00     0.156 HD
HETATM   24  H8  UNL     1      23.252  -1.655  56.616  1.00  0.00     0.156 HD
ENDBRANCH  16  22
TORSDOF 1
ENDMDL
MODEL 5
REMARK VINA RESULT:      -7.8      2.099      2.458
REMARK  1 active torsions:
REMARK  status: ('A' for Active; 'I' for Inactive)
REMARK    1  A    between atoms: C11_16  and  N5_17 
ROOT
HETATM    1  N1  UNL     1      25.358   0.293  54.132  1.00  0.00    -0.282 NA
HETATM    2  C1  UNL     1      24.693   0.493  53.072  1.00  0.00     0.155 C 
HETATM    3  N2  UNL     1      25.293   0.927  51.830  1.00  0.00    -0.204 NA
HETATM    4  C2  UNL     1      26.348   1.652  52.036  1.00  0.00     0.221 C 
HETATM    5  N3  UNL     1      26.308   2.353  53.126  1.00  0.00    -0.150 NA
HETATM    6  N4  UNL     1      25.019   2.880  53.417  1.00  0.00    -0.275 N 
HETATM    7  C3  UNL     1      23.803   3.181  52.737  1.00  0.00     0.062 A 
HETATM    8  C4  UNL     1      23.868   4.467  52.179  1.00  0.00     0.051 A 
HETATM    9  C5  UNL     1      22.867   5.098  51.424  1.00  0.00     0.013 A 
HETATM   10 BR1  UNL     1      23.069   6.843  50.718  1.00  0.00    -0.051 Br
HETATM   11  C6  UNL     1      21.735   4.332  51.248  1.00  0.00     0.020 A 
HETATM   12  C7  UNL     1      21.651   3.068  51.788  1.00  0.00     0.016 A 
HETATM   13  C8  UNL     1      22.647   2.475  52.524  1.00  0.00     0.003 A 
HETATM   14  C9  UNL     1      22.323   1.146  53.008  1.00  0.00    -0.007 A 
HETATM   15  C10 UNL     1      21.028   0.750  53.237  1.00  0.00     0.042 A 
HETATM   16  C11 UNL     1      20.688  -0.504  53.701  1.00  0.00     0.026 A 
HETATM   17  C12 UNL     1      21.668  -1.435  53.961  1.00  0.00     0.030 A 
HETATM   18  C13 UNL     1      22.991  -1.037  53.730  1.00  0.00     0.018 A 
HETATM   19  C14 UNL     1      23.287   0.226  53.264  1.00  0.00     0.022 A 
HETATM   20  H1  UNL     1      25.064  -0.009  55.059  1.00  0.00     0.188 HD
HETATM   21  H2  UNL     1      24.629   3.231  54.314  1.00  0.00     0.189 HD
ENDROOT
BRANCH  16  22
HETATM   22  N5  UNL     1      19.348  -0.919  53.941  1.00  0.00    -0.399 N 
HETATM   23  H7  UNL     1      18.379  -0.670  53.614  1.00  0.00     0.156 HD
HETATM   24  H8  UNL     1      19.389  -1.683  54.642  1.00  0.00     0.156 HD
ENDBRANCH  16  22
TORSDOF 1
ENDMDL
MODEL 6
REMARK VINA RESULT:      -7.6      1.852      4.496
REMARK  1 active torsions:
REMARK  status: ('A' for Active; 'I' for Inactive)
REMARK    1  A    between atoms: C11_16  and  N5_17 
ROOT
HETATM    1  N1  UNL     1      21.380  -1.141  53.356  1.00  0.00    -0.282 NA
HETATM    2  C1  UNL     1      21.880   0.022  53.415  1.00  0.00     0.155 C 
HETATM    3  N2  UNL     1      21.085   1.229  53.383  1.00  0.00    -0.204 NA
HETATM    4  C2  UNL     1      19.996   1.067  52.698  1.00  0.00     0.221 C 
HETATM    5  N3  UNL     1      20.103   0.220  51.721  1.00  0.00    -0.150 NA
HETATM    6  N4  UNL     1      21.358   0.278  51.053  1.00  0.00    -0.275 N 
HETATM    7  C3  UNL     1      22.439   1.189  50.875  1.00  0.00     0.062 A 
HETATM    8  C4  UNL     1      22.172   2.052  49.802  1.00  0.00     0.051 A 
HETATM    9  C5  UNL     1      22.998   3.090  49.342  1.00  0.00     0.013 A 
HETATM   10 BR1  UNL     1      22.529   4.196  47.879  1.00  0.00    -0.051 Br
HETATM   11  C6  UNL     1      24.170   3.226  50.053  1.00  0.00     0.020 A 
HETATM   12  C7  UNL     1      24.452   2.388  51.109  1.00  0.00     0.016 A 
HETATM   13  C8  UNL     1      23.625   1.380  51.537  1.00  0.00     0.003 A 
HETATM   14  C9  UNL     1      24.143   0.615  52.657  1.00  0.00    -0.007 A 
HETATM   15  C10 UNL     1      25.490   0.487  52.890  1.00  0.00     0.042 A 
HETATM   16  C11 UNL     1      26.014  -0.237  53.941  1.00  0.00     0.026 A 
HETATM   17  C12 UNL     1      25.176  -0.880  54.824  1.00  0.00     0.030 A 
HETATM   18  C13 UNL     1      23.801  -0.754  54.591  1.00  0.00     0.018 A 
HETATM   19  C14 UNL     1      23.319  -0.019  53.529  1.00  0.00     0.022 A 
HETATM   20  H1  UNL     1      21.820  -2.059  53.370  1.00  0.00     0.188 HD
HETATM   21  H2  UNL     1      21.821  -0.424  50.443  1.00  0.00     0.189 HD
ENDROOT
BRANCH  16  22
HETATM   22  N5  UNL     1      27.409  -0.373  54.187  1.00  0.00    -0.399 N 
HETATM   23  H7  UNL     1      28.238  -0.860  53.759  1.00  0.00     0.156 HD
HETATM   24  H8  UNL     1      27.621   0.182  55.039  1.00  0.00     0.156 HD
ENDBRANCH  16  22
TORSDOF 1
ENDMDL
MODEL 7
REMARK VINA RESULT:      -7.6      2.805      4.957
REMARK  1 active torsions:
REMARK  status: ('A' for Active; 'I' for Inactive)
REMARK    1  A    between atoms: C11_16  and  N5_17 
ROOT
HETATM    1  N1  UNL     1      27.783   1.044  52.287  1.00  0.00    -0.282 NA
HETATM    2  C1  UNL     1      26.759   1.628  52.751  1.00  0.00     0.155 C 
HETATM    3  N2  UNL     1      26.393   1.595  54.149  1.00  0.00    -0.204 NA
HETATM    4  C2  UNL     1      26.781   0.496  54.720  1.00  0.00     0.221 C 
HETATM    5  N3  UNL     1      26.801  -0.534  53.932  1.00  0.00    -0.150 NA
HETATM    6  N4  UNL     1      25.724  -0.559  53.001  1.00  0.00    -0.275 N 
HETATM    7  C3  UNL     1      24.422  -0.002  52.850  1.00  0.00     0.062 A 
HETATM    8  C4  UNL     1      23.474  -0.803  53.504  1.00  0.00     0.051 A 
HETATM    9  C5  UNL     1      22.094  -0.561  53.586  1.00  0.00     0.013 A 
HETATM   10 BR1  UNL     1      20.908  -1.717  54.503  1.00  0.00    -0.051 Br
HETATM   11  C6  UNL     1      21.690   0.588  52.942  1.00  0.00     0.020 A 
HETATM   12  C7  UNL     1      22.604   1.387  52.293  1.00  0.00     0.016 A 
HETATM   13  C8  UNL     1      23.950   1.126  52.228  1.00  0.00     0.003 A 
HETATM   14  C9  UNL     1      24.713   2.101  51.470  1.00  0.00    -0.007 A 
HETATM   15  C10 UNL     1      24.150   2.839  50.459  1.00  0.00     0.042 A 
HETATM   16  C11 UNL     1      24.850   3.769  49.717  1.00  0.00     0.026 A 
HETATM   17  C12 UNL     1      26.183   3.997  49.973  1.00  0.00     0.030 A 
HETATM   18  C13 UNL     1      26.764   3.245  51.002  1.00  0.00     0.018 A 
HETATM   19  C14 UNL     1      26.028   2.327  51.720  1.00  0.00     0.022 A 
HETATM   20  H1  UNL     1      28.149   0.990  51.339  1.00  0.00     0.188 HD
HETATM   21  H2  UNL     1      25.628  -1.082  52.108  1.00  0.00     0.189 HD
ENDROOT
BRANCH  16  22
HETATM   22  N5  UNL     1      24.271   4.537  48.668  1.00  0.00    -0.399 N 
HETATM   23  H7  UNL     1      24.093   5.549  48.443  1.00  0.00     0.156 HD
HETATM   24  H8  UNL     1      23.946   3.865  47.946  1.00  0.00     0.156 HD
ENDBRANCH  16  22
TORSDOF 1
ENDMDL
MODEL 8
REMARK VINA RESULT:      -7.4      3.334      5.143
REMARK  1 active torsions:
REMARK  status: ('A' for Active; 'I' for Inactive)
REMARK    1  A    between atoms: C11_16  and  N5_17 
ROOT
HETATM    1  N1  UNL     1      24.773   3.404  52.323  1.00  0.00    -0.282 NA
HETATM    2  C1  UNL     1      24.255   2.338  51.876  1.00  0.00     0.155 C 
HETATM    3  N2  UNL     1      23.700   2.224  50.546  1.00  0.00    -0.204 NA
HETATM    4  C2  UNL     1      23.226   3.356  50.126  1.00  0.00     0.221 C 
HETATM    5  N3  UNL     1      22.756   4.118  51.065  1.00  0.00    -0.150 NA
HETATM    6  N4  UNL     1      22.078   3.402  52.091  1.00  0.00    -0.275 N 
HETATM    7  C3  UNL     1      21.439   2.142  52.280  1.00  0.00     0.062 A 
HETATM    8  C4  UNL     1      20.101   2.211  51.864  1.00  0.00     0.051 A 
HETATM    9  C5  UNL     1      19.168   1.163  51.883  1.00  0.00     0.013 A 
HETATM   10 BR1  UNL     1      17.383   1.375  51.291  1.00  0.00    -0.051 Br
HETATM   11  C6  UNL     1      19.673  -0.023  52.369  1.00  0.00     0.020 A 
HETATM   12  C7  UNL     1      20.982  -0.112  52.784  1.00  0.00     0.016 A 
HETATM   13  C8  UNL     1      21.874   0.932  52.754  1.00  0.00     0.003 A 
HETATM   14  C9  UNL     1      23.194   0.605  53.262  1.00  0.00    -0.007 A 
HETATM   15  C10 UNL     1      23.392  -0.386  54.191  1.00  0.00     0.042 A 
HETATM   16  C11 UNL     1      24.633  -0.716  54.697  1.00  0.00     0.026 A 
HETATM   17  C12 UNL     1      25.755  -0.040  54.275  1.00  0.00     0.030 A 
HETATM   18  C13 UNL     1      25.559   0.973  53.328  1.00  0.00     0.018 A 
HETATM   19  C14 UNL     1      24.302   1.271  52.847  1.00  0.00     0.022 A 
HETATM   20  H1  UNL     1      25.194   3.615  53.226  1.00  0.00     0.188 HD
HETATM   21  H2  UNL     1      21.846   3.690  53.062  1.00  0.00     0.189 HD
ENDROOT
BRANCH  16  22
HETATM   22  N5  UNL     1      24.843  -1.743  55.660  1.00  0.00    -0.399 N 
HETATM   23  H7  UNL     1      24.388  -2.643  55.960  1.00  0.00     0.156 HD
HETATM   24  H8  UNL     1      25.697  -1.486  56.193  1.00  0.00     0.156 HD
ENDBRANCH  16  22
TORSDOF 1
ENDMDL
MODEL 9
REMARK VINA RESULT:      -7.4      6.668      8.976
REMARK  1 active torsions:
REMARK  status: ('A' for Active; 'I' for Inactive)
REMARK    1  A    between atoms: C11_16  and  N5_17 
ROOT
HETATM    1  N1  UNL     1      30.035   5.625  49.095  1.00  0.00    -0.282 NA
HETATM    2  C1  UNL     1      29.247   6.235  48.312  1.00  0.00     0.155 C 
HETATM    3  N2  UNL     1      29.700   7.030  47.193  1.00  0.00    -0.204 NA
HETATM    4  C2  UNL     1      30.865   7.555  47.419  1.00  0.00     0.221 C 
HETATM    5  N3  UNL     1      31.092   7.829  48.667  1.00  0.00    -0.150 NA
HETATM    6  N4  UNL     1      29.948   8.316  49.360  1.00  0.00    -0.275 N 
HETATM    7  C3  UNL     1      28.695   8.928  49.067  1.00  0.00     0.062 A 
HETATM    8  C4  UNL     1      28.848  10.319  48.967  1.00  0.00     0.051 A 
HETATM    9  C5  UNL     1      27.839  11.249  48.673  1.00  0.00     0.013 A 
HETATM   10 BR1  UNL     1      28.167  13.110  48.561  1.00  0.00    -0.051 Br
HETATM   11  C6  UNL     1      26.599  10.682  48.475  1.00  0.00     0.020 A 
HETATM   12  C7  UNL     1      26.427   9.319  48.570  1.00  0.00     0.016 A 
HETATM   13  C8  UNL     1      27.434   8.432  48.860  1.00  0.00     0.003 A 
HETATM   14  C9  UNL     1      27.008   7.046  48.928  1.00  0.00    -0.007 A 
HETATM   15  C10 UNL     1      25.723   6.694  49.259  1.00  0.00     0.042 A 
HETATM   16  C11 UNL     1      25.290   5.386  49.337  1.00  0.00     0.026 A 
HETATM   17  C12 UNL     1      26.160   4.352  49.078  1.00  0.00     0.030 A 
HETATM   18  C13 UNL     1      27.473   4.704  48.741  1.00  0.00     0.018 A 
HETATM   19  C14 UNL     1      27.865   6.025  48.673  1.00  0.00     0.022 A 
HETATM   20  H1  UNL     1      29.850   5.039  49.907  1.00  0.00     0.188 HD
HETATM   21  H2  UNL     1      29.755   8.357  50.380  1.00  0.00     0.189 HD
ENDROOT
BRANCH  16  22
HETATM   22  N5  UNL     1      23.959   5.016  49.680  1.00  0.00    -0.399 N 
HETATM   23  H7  UNL     1      23.372   4.911  50.547  1.00  0.00     0.156 HD
HETATM   24  H8  UNL     1      23.469   4.796  48.791  1.00  0.00     0.156 HD
ENDBRANCH  16  22
TORSDOF 1
ENDMDL
