MODEL 1
REMARK VINA RESULT:      -7.3      0.000      0.000
REMARK  5 active torsions:
REMARK  status: ('A' for Active; 'I' for Inactive)
REMARK    1  A    between atoms: C2_2  and  O1_3 
REMARK    2  A    between atoms: O1_3  and  C3_4 
REMARK    3  A    between atoms: C5_6  and  C6_7 
REMARK    4  A    between atoms: C14_18  and  O3_19 
REMARK    5  A    between atoms: C16_21  and  O4_22 
ROOT
HETATM    1  C3  UNL     1      22.273   2.009  51.595  1.00  0.00     0.105 A 
HETATM    2  C4  UNL     1      23.635   1.986  51.571  1.00  0.00     0.053 A 
HETATM    3  C5  UNL     1      24.277   1.205  52.507  1.00  0.00    -0.006 A 
HETATM    4  C13 UNL     1      23.586   0.468  53.443  1.00  0.00     0.053 A 
HETATM    5  C14 UNL     1      22.209   0.487  53.473  1.00  0.00     0.105 A 
HETATM    6  C16 UNL     1      21.552   1.266  52.538  1.00  0.00     0.135 A 
ENDROOT
BRANCH   3   7
HETATM    7  C6  UNL     1      25.735   1.149  52.501  1.00  0.00     0.046 C 
HETATM    8  N1  UNL     1      26.434   2.070  53.092  1.00  0.00    -0.246 NA
HETATM    9  C7  UNL     1      27.864   2.044  53.107  1.00  0.00     0.232 C 
HETATM   10  N2  UNL     1      28.130   0.938  53.780  1.00  0.00    -0.254 NA
HETATM   11  C8  UNL     1      29.446   0.509  54.035  1.00  0.00     0.117 C 
HETATM   12  C9  UNL     1      29.613  -0.766  53.711  1.00  0.00     0.016 C 
HETATM   13  C10 UNL     1      28.593  -1.663  53.161  1.00  0.00    -0.019 C 
HETATM   14  C11 UNL     1      27.451  -2.167  52.699  1.00  0.00     0.025 C 
HETATM   15  O2  UNL     1      26.663  -1.031  52.847  1.00  0.00     0.000 OA
HETATM   16  C12 UNL     1      26.509   0.051  51.873  1.00  0.00     0.066 C 
ENDBRANCH   3   7
BRANCH   1  17
HETATM   17  O1  UNL     1      21.421   2.709  50.766  1.00  0.00    -0.349 OA
BRANCH  17  18
HETATM   18  C2  UNL     1      21.433   2.674  49.363  1.00  0.00     0.171 C 
HETATM   19  C1  UNL     1      21.256   1.272  48.832  1.00  0.00     0.034 C 
ENDBRANCH  17  18
ENDBRANCH   1  17
BRANCH   5  20
HETATM   20  O3  UNL     1      21.529  -0.265  54.425  1.00  0.00    -0.353 OA
HETATM   21  C15 UNL     1      21.882  -1.568  54.768  1.00  0.00     0.210 C 
ENDBRANCH   5  20
BRANCH   6  22
HETATM   22  O4  UNL     1      20.160   1.229  52.639  1.00  0.00    -0.351 OA
HETATM   23  C17 UNL     1      19.389   0.294  51.951  1.00  0.00     0.210 C 
ENDBRANCH   6  22
TORSDOF 5
ENDMDL
MODEL 2
REMARK VINA RESULT:      -7.2      3.291      5.790
REMARK  5 active torsions:
REMARK  status: ('A' for Active; 'I' for Inactive)
REMARK    1  A    between atoms: C2_2  and  O1_3 
REMARK    2  A    between atoms: O1_3  and  C3_4 
REMARK    3  A    between atoms: C5_6  and  C6_7 
REMARK    4  A    between atoms: C14_18  and  O3_19 
REMARK    5  A    between atoms: C16_21  and  O4_22 
ROOT
HETATM    1  C3  UNL     1      24.060   0.117  53.075  1.00  0.00     0.105 A 
HETATM    2  C4  UNL     1      23.827   1.177  52.251  1.00  0.00     0.053 A 
HETATM    3  C5  UNL     1      24.739   2.210  52.266  1.00  0.00    -0.006 A 
HETATM    4  C13 UNL     1      25.851   2.191  53.078  1.00  0.00     0.053 A 
HETATM    5  C14 UNL     1      26.092   1.123  53.912  1.00  0.00     0.105 A 
HETATM    6  C16 UNL     1      25.185   0.079  53.907  1.00  0.00     0.135 A 
ENDROOT
BRANCH   3   7
HETATM    7  C6  UNL     1      24.525   3.355  51.387  1.00  0.00     0.046 C 
HETATM    8  N1  UNL     1      23.875   4.397  51.807  1.00  0.00    -0.246 NA
HETATM    9  C7  UNL     1      23.649   5.537  50.972  1.00  0.00     0.232 C 
HETATM   10  N2  UNL     1      24.873   5.977  50.742  1.00  0.00    -0.254 NA
HETATM   11  C8  UNL     1      25.130   7.107  49.942  1.00  0.00     0.117 C 
HETATM   12  C9  UNL     1      26.058   6.856  49.029  1.00  0.00     0.016 C 
HETATM   13  C10 UNL     1      26.764   5.586  48.834  1.00  0.00    -0.019 C 
HETATM   14  C11 UNL     1      27.191   4.332  48.955  1.00  0.00     0.025 C 
HETATM   15  O2  UNL     1      26.413   3.966  50.047  1.00  0.00     0.000 OA
HETATM   16  C12 UNL     1      25.050   3.432  50.003  1.00  0.00     0.066 C 
ENDBRANCH   3   7
BRANCH   1  17
HETATM   17  O1  UNL     1      23.295  -1.020  53.230  1.00  0.00    -0.349 OA
BRANCH  17  18
HETATM   18  C2  UNL     1      21.908  -1.051  53.443  1.00  0.00     0.171 C 
HETATM   19  C1  UNL     1      21.534  -0.516  54.805  1.00  0.00     0.034 C 
ENDBRANCH  17  18
ENDBRANCH   1  17
BRANCH   5  20
HETATM   20  O3  UNL     1      27.223   1.123  54.724  1.00  0.00    -0.353 OA
HETATM   21  C15 UNL     1      28.503   0.844  54.255  1.00  0.00     0.210 C 
ENDBRANCH   5  20
BRANCH   6  22
HETATM   22  O4  UNL     1      25.504  -0.961  54.781  1.00  0.00    -0.351 OA
HETATM   23  C17 UNL     1      25.017  -1.011  56.086  1.00  0.00     0.210 C 
ENDBRANCH   6  22
TORSDOF 5
ENDMDL
MODEL 3
REMARK VINA RESULT:      -7.2      3.254      5.971
REMARK  5 active torsions:
REMARK  status: ('A' for Active; 'I' for Inactive)
REMARK    1  A    between atoms: C2_2  and  O1_3 
REMARK    2  A    between atoms: O1_3  and  C3_4 
REMARK    3  A    between atoms: C5_6  and  C6_7 
REMARK    4  A    between atoms: C14_18  and  O3_19 
REMARK    5  A    between atoms: C16_21  and  O4_22 
ROOT
HETATM    1  C3  UNL     1      26.201   1.102  53.908  1.00  0.00     0.105 A 
HETATM    2  C4  UNL     1      25.991   2.163  53.079  1.00  0.00     0.053 A 
HETATM    3  C5  UNL     1      24.853   2.152  52.304  1.00  0.00    -0.006 A 
HETATM    4  C13 UNL     1      23.947   1.114  52.348  1.00  0.00     0.053 A 
HETATM    5  C14 UNL     1      24.154   0.040  53.183  1.00  0.00     0.105 A 
HETATM    6  C16 UNL     1      25.292   0.038  53.968  1.00  0.00     0.135 A 
ENDROOT
BRANCH   3   7
HETATM    7  C6  UNL     1      24.592   3.279  51.414  1.00  0.00     0.046 C 
HETATM    8  N1  UNL     1      23.904   4.299  51.826  1.00  0.00    -0.246 NA
HETATM    9  C7  UNL     1      23.632   5.421  50.980  1.00  0.00     0.232 C 
HETATM   10  N2  UNL     1      24.838   5.907  50.742  1.00  0.00    -0.254 NA
HETATM   11  C8  UNL     1      25.048   7.037  49.931  1.00  0.00     0.117 C 
HETATM   12  C9  UNL     1      25.983   6.813  49.017  1.00  0.00     0.016 C 
HETATM   13  C10 UNL     1      26.737   5.570  48.833  1.00  0.00    -0.019 C 
HETATM   14  C11 UNL     1      27.213   4.335  48.964  1.00  0.00     0.025 C 
HETATM   15  O2  UNL     1      26.452   3.949  50.063  1.00  0.00     0.000 OA
HETATM   16  C12 UNL     1      25.111   3.363  50.028  1.00  0.00     0.066 C 
ENDBRANCH   3   7
BRANCH   1  17
HETATM   17  O1  UNL     1      27.258   0.894  54.769  1.00  0.00    -0.349 OA
BRANCH  17  18
HETATM   18  C2  UNL     1      28.613   0.852  54.406  1.00  0.00     0.171 C 
HETATM   19  C1  UNL     1      29.018  -0.508  53.890  1.00  0.00     0.034 C 
ENDBRANCH  17  18
ENDBRANCH   1  17
BRANCH   5  20
HETATM   20  O3  UNL     1      23.227  -0.998  53.214  1.00  0.00    -0.353 OA
HETATM   21  C15 UNL     1      21.954  -0.872  53.765  1.00  0.00     0.210 C 
ENDBRANCH   5  20
BRANCH   6  22
HETATM   22  O4  UNL     1      25.424  -1.087  54.783  1.00  0.00    -0.351 OA
HETATM   23  C17 UNL     1      24.908  -1.133  56.077  1.00  0.00     0.210 C 
ENDBRANCH   6  22
TORSDOF 5
ENDMDL
MODEL 4
REMARK VINA RESULT:      -7.2      1.448      3.084
REMARK  5 active torsions:
REMARK  status: ('A' for Active; 'I' for Inactive)
REMARK    1  A    between atoms: C2_2  and  O1_3 
REMARK    2  A    between atoms: O1_3  and  C3_4 
REMARK    3  A    between atoms: C5_6  and  C6_7 
REMARK    4  A    between atoms: C14_18  and  O3_19 
REMARK    5  A    between atoms: C16_21  and  O4_22 
ROOT
HETATM    1  C3  UNL     1      22.173   1.220  52.838  1.00  0.00     0.105 A 
HETATM    2  C4  UNL     1      23.500   0.913  52.820  1.00  0.00     0.053 A 
HETATM    3  C5  UNL     1      24.392   1.944  52.618  1.00  0.00    -0.006 A 
HETATM    4  C13 UNL     1      23.976   3.245  52.438  1.00  0.00     0.053 A 
HETATM    5  C14 UNL     1      22.637   3.562  52.456  1.00  0.00     0.105 A 
HETATM    6  C16 UNL     1      21.731   2.536  52.658  1.00  0.00     0.135 A 
ENDROOT
BRANCH   3   7
HETATM    7  C6  UNL     1      25.821   1.651  52.605  1.00  0.00     0.046 C 
HETATM    8  N1  UNL     1      26.654   2.394  53.269  1.00  0.00    -0.246 NA
HETATM    9  C7  UNL     1      28.060   2.134  53.279  1.00  0.00     0.232 C 
HETATM   10  N2  UNL     1      28.134   0.949  53.860  1.00  0.00    -0.254 NA
HETATM   11  C8  UNL     1      29.359   0.291  54.077  1.00  0.00     0.117 C 
HETATM   12  C9  UNL     1      29.320  -0.964  53.651  1.00  0.00     0.016 C 
HETATM   13  C10 UNL     1      28.173  -1.635  53.030  1.00  0.00    -0.019 C 
HETATM   14  C11 UNL     1      26.970  -1.906  52.531  1.00  0.00     0.025 C 
HETATM   15  O2  UNL     1      26.377  -0.673  52.772  1.00  0.00     0.000 OA
HETATM   16  C12 UNL     1      26.412   0.495  51.889  1.00  0.00     0.066 C 
ENDBRANCH   3   7
BRANCH   1  17
HETATM   17  O1  UNL     1      21.107   0.364  53.021  1.00  0.00    -0.349 OA
BRANCH  17  18
HETATM   18  C2  UNL     1      20.735  -0.232  54.236  1.00  0.00     0.171 C 
HETATM   19  C1  UNL     1      21.319  -1.616  54.388  1.00  0.00     0.034 C 
ENDBRANCH  17  18
ENDBRANCH   1  17
BRANCH   5  20
HETATM   20  O3  UNL     1      22.237   4.882  52.273  1.00  0.00    -0.353 OA
HETATM   21  C15 UNL     1      22.753   5.708  51.278  1.00  0.00     0.210 C 
ENDBRANCH   5  20
BRANCH   6  22
HETATM   22  O4  UNL     1      20.396   2.944  52.660  1.00  0.00    -0.351 OA
HETATM   23  C17 UNL     1      19.619   2.952  51.503  1.00  0.00     0.210 C 
ENDBRANCH   6  22
TORSDOF 5
ENDMDL
MODEL 5
REMARK VINA RESULT:      -6.8      2.392      3.589
REMARK  5 active torsions:
REMARK  status: ('A' for Active; 'I' for Inactive)
REMARK    1  A    between atoms: C2_2  and  O1_3 
REMARK    2  A    between atoms: O1_3  and  C3_4 
REMARK    3  A    between atoms: C5_6  and  C6_7 
REMARK    4  A    between atoms: C14_18  and  O3_19 
REMARK    5  A    between atoms: C16_21  and  O4_22 
ROOT
HETATM    1  C3  UNL     1      24.253   3.804  50.634  1.00  0.00     0.105 A 
HETATM    2  C4  UNL     1      25.112   2.930  51.228  1.00  0.00     0.053 A 
HETATM    3  C5  UNL     1      24.614   2.126  52.229  1.00  0.00    -0.006 A 
HETATM    4  C13 UNL     1      23.298   2.189  52.631  1.00  0.00     0.053 A 
HETATM    5  C14 UNL     1      22.424   3.070  52.034  1.00  0.00     0.105 A 
HETATM    6  C16 UNL     1      22.912   3.883  51.027  1.00  0.00     0.135 A 
ENDROOT
BRANCH   3   7
HETATM    7  C6  UNL     1      25.505   1.170  52.878  1.00  0.00     0.046 C 
HETATM    8  N1  UNL     1      25.508  -0.078  52.520  1.00  0.00    -0.246 NA
HETATM    9  C7  UNL     1      26.370  -1.041  53.135  1.00  0.00     0.232 C 
HETATM   10  N2  UNL     1      27.574  -0.600  52.816  1.00  0.00    -0.254 NA
HETATM   11  C8  UNL     1      28.750  -1.255  53.227  1.00  0.00     0.117 C 
HETATM   12  C9  UNL     1      29.612  -0.411  53.776  1.00  0.00     0.016 C 
HETATM   13  C10 UNL     1      29.421   1.032  53.954  1.00  0.00    -0.019 C 
HETATM   14  C11 UNL     1      28.919   2.264  53.941  1.00  0.00     0.025 C 
HETATM   15  O2  UNL     1      27.720   1.979  53.298  1.00  0.00     0.000 OA
HETATM   16  C12 UNL     1      26.475   1.543  53.935  1.00  0.00     0.066 C 
ENDBRANCH   3   7
BRANCH   1  17
HETATM   17  O1  UNL     1      24.522   4.700  49.620  1.00  0.00    -0.349 OA
BRANCH  17  18
HETATM   18  C2  UNL     1      25.681   5.483  49.505  1.00  0.00     0.171 C 
HETATM   19  C1  UNL     1      25.525   6.825  50.181  1.00  0.00     0.034 C 
ENDBRANCH  17  18
ENDBRANCH   1  17
BRANCH   5  20
HETATM   20  O3  UNL     1      21.098   3.118  52.453  1.00  0.00    -0.353 OA
HETATM   21  C15 UNL     1      20.346   1.984  52.745  1.00  0.00     0.210 C 
ENDBRANCH   5  20
BRANCH   6  22
HETATM   22  O4  UNL     1      21.962   4.746  50.478  1.00  0.00    -0.351 OA
HETATM   23  C17 UNL     1      21.753   6.032  50.971  1.00  0.00     0.210 C 
ENDBRANCH   6  22
TORSDOF 5
ENDMDL
MODEL 6
REMARK VINA RESULT:      -6.7      1.952      3.759
REMARK  5 active torsions:
REMARK  status: ('A' for Active; 'I' for Inactive)
REMARK    1  A    between atoms: C2_2  and  O1_3 
REMARK    2  A    between atoms: O1_3  and  C3_4 
REMARK    3  A    between atoms: C5_6  and  C6_7 
REMARK    4  A    between atoms: C14_18  and  O3_19 
REMARK    5  A    between atoms: C16_21  and  O4_22 
ROOT
HETATM    1  C3  UNL     1      22.437   2.486  52.101  1.00  0.00     0.105 A 
HETATM    2  C4  UNL     1      23.310   1.633  52.707  1.00  0.00     0.053 A 
HETATM    3  C5  UNL     1      24.629   1.684  52.314  1.00  0.00    -0.006 A 
HETATM    4  C13 UNL     1      25.070   2.557  51.344  1.00  0.00     0.053 A 
HETATM    5  C14 UNL     1      24.192   3.421  50.728  1.00  0.00     0.105 A 
HETATM    6  C16 UNL     1      22.865   3.381  51.113  1.00  0.00     0.135 A 
ENDROOT
BRANCH   3   7
HETATM    7  C6  UNL     1      25.592   0.793  52.952  1.00  0.00     0.046 C 
HETATM    8  N1  UNL     1      25.658  -0.459  52.614  1.00  0.00    -0.246 NA
HETATM    9  C7  UNL     1      26.591  -1.360  53.218  1.00  0.00     0.232 C 
HETATM   10  N2  UNL     1      27.758  -0.855  52.859  1.00  0.00    -0.254 NA
HETATM   11  C8  UNL     1      28.981  -1.434  53.246  1.00  0.00     0.117 C 
HETATM   12  C9  UNL     1      29.807  -0.532  53.757  1.00  0.00     0.016 C 
HETATM   13  C10 UNL     1      29.537   0.900  53.917  1.00  0.00    -0.019 C 
HETATM   14  C11 UNL     1      28.964   2.100  53.900  1.00  0.00     0.025 C 
HETATM   15  O2  UNL     1      27.766   1.735  53.296  1.00  0.00     0.000 OA
HETATM   16  C12 UNL     1      26.567   1.240  53.975  1.00  0.00     0.066 C 
ENDBRANCH   3   7
BRANCH   1  17
HETATM   17  O1  UNL     1      21.082   2.614  52.327  1.00  0.00    -0.349 OA
BRANCH  17  18
HETATM   18  C2  UNL     1      20.176   1.556  52.497  1.00  0.00     0.171 C 
HETATM   19  C1  UNL     1      20.082   0.689  51.264  1.00  0.00     0.034 C 
ENDBRANCH  17  18
ENDBRANCH   1  17
BRANCH   5  20
HETATM   20  O3  UNL     1      24.657   4.296  49.751  1.00  0.00    -0.353 OA
HETATM   21  C15 UNL     1      26.003   4.612  49.583  1.00  0.00     0.210 C 
ENDBRANCH   5  20
BRANCH   6  22
HETATM   22  O4  UNL     1      22.045   4.287  50.439  1.00  0.00    -0.351 OA
HETATM   23  C17 UNL     1      21.695   5.521  50.984  1.00  0.00     0.210 C 
ENDBRANCH   6  22
TORSDOF 5
ENDMDL
MODEL 7
REMARK VINA RESULT:      -6.6      3.322      6.753
REMARK  5 active torsions:
REMARK  status: ('A' for Active; 'I' for Inactive)
REMARK    1  A    between atoms: C2_2  and  O1_3 
REMARK    2  A    between atoms: O1_3  and  C3_4 
REMARK    3  A    between atoms: C5_6  and  C6_7 
REMARK    4  A    between atoms: C14_18  and  O3_19 
REMARK    5  A    between atoms: C16_21  and  O4_22 
ROOT
HETATM    1  C3  UNL     1      23.781   0.448  52.865  1.00  0.00     0.105 A 
HETATM    2  C4  UNL     1      23.139   1.426  52.166  1.00  0.00     0.053 A 
HETATM    3  C5  UNL     1      23.739   2.664  52.101  1.00  0.00    -0.006 A 
HETATM    4  C13 UNL     1      24.943   2.926  52.716  1.00  0.00     0.053 A 
HETATM    5  C14 UNL     1      25.597   1.943  53.424  1.00  0.00     0.105 A 
HETATM    6  C16 UNL     1      25.006   0.695  53.496  1.00  0.00     0.135 A 
ENDROOT
BRANCH   3   7
HETATM    7  C6  UNL     1      23.083   3.729  51.350  1.00  0.00     0.046 C 
HETATM    8  N1  UNL     1      21.837   4.020  51.568  1.00  0.00    -0.246 NA
HETATM    9  C7  UNL     1      21.164   5.059  50.850  1.00  0.00     0.232 C 
HETATM   10  N2  UNL     1      21.828   6.143  51.214  1.00  0.00    -0.254 NA
HETATM   11  C8  UNL     1      21.502   7.424  50.732  1.00  0.00     0.117 C 
HETATM   12  C9  UNL     1      22.573   8.061  50.278  1.00  0.00     0.016 C 
HETATM   13  C10 UNL     1      23.946   7.547  50.261  1.00  0.00    -0.019 C 
HETATM   14  C11 UNL     1      25.024   6.783  50.410  1.00  0.00     0.025 C 
HETATM   15  O2  UNL     1      24.409   5.695  51.019  1.00  0.00     0.000 OA
HETATM   16  C12 UNL     1      23.776   4.563  50.339  1.00  0.00     0.066 C 
ENDBRANCH   3   7
BRANCH   1  17
HETATM   17  O1  UNL     1      23.377  -0.855  53.066  1.00  0.00    -0.349 OA
BRANCH  17  18
HETATM   18  C2  UNL     1      22.095  -1.263  53.466  1.00  0.00     0.171 C 
HETATM   19  C1  UNL     1      21.782  -0.836  54.880  1.00  0.00     0.034 C 
ENDBRANCH  17  18
ENDBRANCH   1  17
BRANCH   5  20
HETATM   20  O3  UNL     1      26.813   2.227  54.037  1.00  0.00    -0.353 OA
HETATM   21  C15 UNL     1      28.019   2.307  53.346  1.00  0.00     0.210 C 
ENDBRANCH   5  20
BRANCH   6  22
HETATM   22  O4  UNL     1      25.733  -0.241  54.233  1.00  0.00    -0.351 OA
HETATM   23  C17 UNL     1      26.648  -1.108  53.638  1.00  0.00     0.210 C 
ENDBRANCH   6  22
TORSDOF 5
ENDMDL
MODEL 8
REMARK VINA RESULT:      -6.6      3.256      5.515
REMARK  5 active torsions:
REMARK  status: ('A' for Active; 'I' for Inactive)
REMARK    1  A    between atoms: C2_2  and  O1_3 
REMARK    2  A    between atoms: O1_3  and  C3_4 
REMARK    3  A    between atoms: C5_6  and  C6_7 
REMARK    4  A    between atoms: C14_18  and  O3_19 
REMARK    5  A    between atoms: C16_21  and  O4_22 
ROOT
HETATM    1  C3  UNL     1      24.704   0.768  52.995  1.00  0.00     0.105 A 
HETATM    2  C4  UNL     1      24.888   1.923  52.296  1.00  0.00     0.053 A 
HETATM    3  C5  UNL     1      23.817   2.413  51.581  1.00  0.00    -0.006 A 
HETATM    4  C13 UNL     1      22.598   1.773  51.557  1.00  0.00     0.053 A 
HETATM    5  C14 UNL     1      22.407   0.605  52.261  1.00  0.00     0.105 A 
HETATM    6  C16 UNL     1      23.473   0.102  52.984  1.00  0.00     0.135 A 
ENDROOT
BRANCH   3   7
HETATM    7  C6  UNL     1      23.977   3.656  50.831  1.00  0.00     0.046 C 
HETATM    8  N1  UNL     1      23.489   4.769  51.287  1.00  0.00    -0.246 NA
HETATM    9  C7  UNL     1      23.628   6.004  50.579  1.00  0.00     0.232 C 
HETATM   10  N2  UNL     1      24.937   6.191  50.573  1.00  0.00    -0.254 NA
HETATM   11  C8  UNL     1      25.536   7.309  49.964  1.00  0.00     0.117 C 
HETATM   12  C9  UNL     1      26.528   6.952  49.160  1.00  0.00     0.016 C 
HETATM   13  C10 UNL     1      26.989   5.585  48.905  1.00  0.00    -0.019 C 
HETATM   14  C11 UNL     1      27.135   4.263  48.924  1.00  0.00     0.025 C 
HETATM   15  O2  UNL     1      26.137   3.970  49.847  1.00  0.00     0.000 OA
HETATM   16  C12 UNL     1      24.720   3.749  49.552  1.00  0.00     0.066 C 
ENDBRANCH   3   7
BRANCH   1  17
HETATM   17  O1  UNL     1      25.621   0.095  53.776  1.00  0.00    -0.349 OA
BRANCH  17  18
HETATM   18  C2  UNL     1      26.905  -0.301  53.373  1.00  0.00     0.171 C 
HETATM   19  C1  UNL     1      26.893  -1.650  52.693  1.00  0.00     0.034 C 
ENDBRANCH  17  18
ENDBRANCH   1  17
BRANCH   5  20
HETATM   20  O3  UNL     1      21.167  -0.027  52.226  1.00  0.00    -0.353 OA
HETATM   21  C15 UNL     1      19.962   0.639  52.430  1.00  0.00     0.210 C 
ENDBRANCH   5  20
BRANCH   6  22
HETATM   22  O4  UNL     1      23.194  -1.083  53.666  1.00  0.00    -0.351 OA
HETATM   23  C17 UNL     1      22.632  -1.093  54.941  1.00  0.00     0.210 C 
ENDBRANCH   6  22
TORSDOF 5
ENDMDL
MODEL 9
REMARK VINA RESULT:      -6.5      1.959      2.310
REMARK  5 active torsions:
REMARK  status: ('A' for Active; 'I' for Inactive)
REMARK    1  A    between atoms: C2_2  and  O1_3 
REMARK    2  A    between atoms: O1_3  and  C3_4 
REMARK    3  A    between atoms: C5_6  and  C6_7 
REMARK    4  A    between atoms: C14_18  and  O3_19 
REMARK    5  A    between atoms: C16_21  and  O4_22 
ROOT
HETATM    1  C3  UNL     1      21.685   3.901  51.932  1.00  0.00     0.105 A 
HETATM    2  C4  UNL     1      23.002   3.556  51.895  1.00  0.00     0.053 A 
HETATM    3  C5  UNL     1      23.336   2.271  52.260  1.00  0.00    -0.006 A 
HETATM    4  C13 UNL     1      22.388   1.352  52.653  1.00  0.00     0.053 A 
HETATM    5  C14 UNL     1      21.055   1.695  52.692  1.00  0.00     0.105 A 
HETATM    6  C16 UNL     1      20.706   2.982  52.328  1.00  0.00     0.135 A 
ENDROOT
BRANCH   3   7
HETATM    7  C6  UNL     1      24.738   1.865  52.220  1.00  0.00     0.046 C 
HETATM    8  N1  UNL     1      25.639   2.655  51.720  1.00  0.00    -0.246 NA
HETATM    9  C7  UNL     1      27.021   2.289  51.666  1.00  0.00     0.232 C 
HETATM   10  N2  UNL     1      27.344   2.180  52.943  1.00  0.00    -0.254 NA
HETATM   11  C8  UNL     1      28.639   1.825  53.365  1.00  0.00     0.117 C 
HETATM   12  C9  UNL     1      28.607   0.844  54.258  1.00  0.00     0.016 C 
HETATM   13  C10 UNL     1      27.407   0.182  54.778  1.00  0.00    -0.019 C 
HETATM   14  C11 UNL     1      26.148  -0.168  55.023  1.00  0.00     0.025 C 
HETATM   15  O2  UNL     1      25.524   0.754  54.190  1.00  0.00     0.000 OA
HETATM   16  C12 UNL     1      25.233   0.579  52.765  1.00  0.00     0.066 C 
ENDBRANCH   3   7
BRANCH   1  17
HETATM   17  O1  UNL     1      21.118   5.118  51.615  1.00  0.00    -0.349 OA
BRANCH  17  18
HETATM   18  C2  UNL     1      21.413   5.887  50.479  1.00  0.00     0.171 C 
HETATM   19  C1  UNL     1      20.599   5.460  49.280  1.00  0.00     0.034 C 
ENDBRANCH  17  18
ENDBRANCH   1  17
BRANCH   5  20
HETATM   20  O3  UNL     1      20.112   0.752  53.091  1.00  0.00    -0.353 OA
HETATM   21  C15 UNL     1      20.438  -0.418  53.770  1.00  0.00     0.210 C 
ENDBRANCH   5  20
BRANCH   6  22
HETATM   22  O4  UNL     1      19.337   3.245  52.397  1.00  0.00    -0.351 OA
HETATM   23  C17 UNL     1      18.490   3.074  51.304  1.00  0.00     0.210 C 
ENDBRANCH   6  22
TORSDOF 5
ENDMDL
