MODEL 1
REMARK VINA RESULT:      -7.4      0.000      0.000
REMARK  5 active torsions:
REMARK  status: ('A' for Active; 'I' for Inactive)
REMARK    1  A    between atoms: O1_2  and  C2_3 
REMARK    2  A    between atoms: C5_6  and  C6_7 
REMARK    3  A    between atoms: C6_7  and  C7_8 
REMARK    4  A    between atoms: C13_16  and  C14_17 
REMARK    5  A    between atoms: C14_17  and  N3_18 
ROOT
HETATM    1  C7  UNL     1      25.431   0.289  52.210  1.00  0.00     0.127 C 
HETATM    2  N1  UNL     1      25.650  -0.827  52.718  1.00  0.00    -0.274 NA
HETATM    3  C8  UNL     1      26.761  -1.646  53.021  1.00  0.00     0.159 C 
HETATM    4  C9  UNL     1      28.125  -1.087  52.923  1.00  0.00     0.026 C 
HETATM    5  C10 UNL     1      29.006  -2.391  53.143  1.00  0.00     0.016 C 
HETATM    6  C11 UNL     1      28.659  -0.348  54.109  1.00  0.00     0.013 C 
HETATM    7  C12 UNL     1      29.404   0.725  53.829  1.00  0.00     0.084 C 
HETATM    8  N2  UNL     1      28.739   1.631  53.159  1.00  0.00    -0.230 NA
HETATM    9  C13 UNL     1      27.356   1.199  53.040  1.00  0.00     0.156 C 
HETATM   10  N4  UNL     1      26.802   0.593  52.010  1.00  0.00    -0.216 NA
ENDROOT
BRANCH   1  11
HETATM   11  C6  UNL     1      24.290   1.175  51.875  1.00  0.00     0.118 C 
BRANCH  11  12
HETATM   12  C5  UNL     1      23.003   0.654  52.406  1.00  0.00    -0.051 A 
HETATM   13  C4  UNL     1      22.843   0.190  53.700  1.00  0.00     0.010 A 
HETATM   14  C3  UNL     1      21.595  -0.276  54.091  1.00  0.00     0.037 A 
HETATM   15  C2  UNL     1      20.535  -0.271  53.193  1.00  0.00     0.068 A 
HETATM   16  C16 UNL     1      20.725   0.196  51.915  1.00  0.00     0.037 A 
HETATM   17  C15 UNL     1      21.954   0.666  51.494  1.00  0.00     0.010 A 
BRANCH  15  18
HETATM   18  O1  UNL     1      19.264  -0.721  53.516  1.00  0.00    -0.356 OA
HETATM   19  C1  UNL     1      18.181  -0.763  52.625  1.00  0.00     0.210 C 
ENDBRANCH  15  18
ENDBRANCH  11  12
ENDBRANCH   1  11
BRANCH   9  20
HETATM   20  C14 UNL     1      26.565   1.585  54.275  1.00  0.00     0.346 C 
BRANCH  20  21
HETATM   21  N3  UNL     1      26.136   2.966  54.189  1.00  0.00     0.085 N 
HETATM   22  H17 UNL     1      25.789   3.266  53.275  1.00  0.00     0.313 HD
HETATM   23  H18 UNL     1      25.587   3.198  55.019  1.00  0.00     0.313 HD
ENDBRANCH  20  21
ENDBRANCH   9  20
TORSDOF 5
ENDMDL
MODEL 2
REMARK VINA RESULT:      -7.3      1.688      3.000
REMARK  5 active torsions:
REMARK  status: ('A' for Active; 'I' for Inactive)
REMARK    1  A    between atoms: O1_2  and  C2_3 
REMARK    2  A    between atoms: C5_6  and  C6_7 
REMARK    3  A    between atoms: C6_7  and  C7_8 
REMARK    4  A    between atoms: C13_16  and  C14_17 
REMARK    5  A    between atoms: C14_17  and  N3_18 
ROOT
HETATM    1  C7  UNL     1      25.647  -0.139  54.561  1.00  0.00     0.127 C 
HETATM    2  N1  UNL     1      25.819   0.908  53.908  1.00  0.00    -0.274 NA
HETATM    3  C8  UNL     1      26.874   1.797  53.603  1.00  0.00     0.159 C 
HETATM    4  C9  UNL     1      28.262   1.422  53.943  1.00  0.00     0.026 C 
HETATM    5  C10 UNL     1      29.032   2.774  53.616  1.00  0.00     0.016 C 
HETATM    6  C11 UNL     1      29.015   0.584  52.959  1.00  0.00     0.013 C 
HETATM    7  C12 UNL     1      29.819  -0.341  53.490  1.00  0.00     0.084 C 
HETATM    8  N2  UNL     1      29.166  -1.209  54.218  1.00  0.00    -0.230 NA
HETATM    9  C13 UNL     1      27.743  -0.930  54.109  1.00  0.00     0.156 C 
HETATM   10  N4  UNL     1      27.004  -0.247  54.960  1.00  0.00    -0.216 NA
ENDROOT
BRANCH   1  11
HETATM   11  C6  UNL     1      24.565  -1.093  54.904  1.00  0.00     0.118 C 
BRANCH  11  12
HETATM   12  C5  UNL     1      23.292  -0.768  54.208  1.00  0.00    -0.051 A 
HETATM   13  C4  UNL     1      23.232  -0.278  52.916  1.00  0.00     0.010 A 
HETATM   14  C3  UNL     1      21.988  -0.007  52.363  1.00  0.00     0.037 A 
HETATM   15  C2  UNL     1      20.832  -0.229  53.102  1.00  0.00     0.068 A 
HETATM   16  C16 UNL     1      20.924  -0.716  54.383  1.00  0.00     0.037 A 
HETATM   17  C15 UNL     1      22.147  -0.996  54.963  1.00  0.00     0.010 A 
BRANCH  15  18
HETATM   18  O1  UNL     1      19.559   0.019  52.614  1.00  0.00    -0.356 OA
HETATM   19  C1  UNL     1      19.264   0.893  51.557  1.00  0.00     0.210 C 
ENDBRANCH  15  18
ENDBRANCH  11  12
ENDBRANCH   1  11
BRANCH   9  20
HETATM   20  C14 UNL     1      27.160  -1.584  52.873  1.00  0.00     0.346 C 
BRANCH  20  21
HETATM   21  N3  UNL     1      27.581  -2.968  52.787  1.00  0.00     0.085 N 
HETATM   22  H17 UNL     1      26.882  -3.621  52.425  1.00  0.00     0.313 HD
HETATM   23  H18 UNL     1      28.528  -3.007  52.406  1.00  0.00     0.313 HD
ENDBRANCH  20  21
ENDBRANCH   9  20
TORSDOF 5
ENDMDL
MODEL 3
REMARK VINA RESULT:      -7.2      3.479      7.261
REMARK  5 active torsions:
REMARK  status: ('A' for Active; 'I' for Inactive)
REMARK    1  A    between atoms: O1_2  and  C2_3 
REMARK    2  A    between atoms: C5_6  and  C6_7 
REMARK    3  A    between atoms: C6_7  and  C7_8 
REMARK    4  A    between atoms: C13_16  and  C14_17 
REMARK    5  A    between atoms: C14_17  and  N3_18 
ROOT
HETATM    1  C7  UNL     1      23.010   0.505  52.803  1.00  0.00     0.127 C 
HETATM    2  N1  UNL     1      22.989   1.749  52.868  1.00  0.00    -0.274 NA
HETATM    3  C8  UNL     1      22.290   2.823  52.271  1.00  0.00     0.159 C 
HETATM    4  C9  UNL     1      21.100   2.544  51.440  1.00  0.00     0.026 C 
HETATM    5  C10 UNL     1      20.801   3.986  50.841  1.00  0.00     0.016 C 
HETATM    6  C11 UNL     1      19.785   2.400  52.138  1.00  0.00     0.013 C 
HETATM    7  C12 UNL     1      18.970   1.467  51.640  1.00  0.00     0.084 C 
HETATM    8  N2  UNL     1      19.494   0.270  51.694  1.00  0.00    -0.230 NA
HETATM    9  C13 UNL     1      20.767   0.350  52.391  1.00  0.00     0.156 C 
HETATM   10  N4  UNL     1      21.965   0.424  51.847  1.00  0.00    -0.216 NA
ENDROOT
BRANCH   1  11
HETATM   11  C6  UNL     1      23.723  -0.647  53.405  1.00  0.00     0.118 C 
BRANCH  11  12
HETATM   12  C5  UNL     1      25.171  -0.370  53.594  1.00  0.00    -0.051 A 
HETATM   13  C4  UNL     1      25.743  -0.106  54.827  1.00  0.00     0.010 A 
HETATM   14  C3  UNL     1      27.108   0.140  54.889  1.00  0.00     0.037 A 
HETATM   15  C2  UNL     1      27.875   0.119  53.730  1.00  0.00     0.068 A 
HETATM   16  C16 UNL     1      27.278  -0.146  52.521  1.00  0.00     0.037 A 
HETATM   17  C15 UNL     1      25.923  -0.395  52.425  1.00  0.00     0.010 A 
BRANCH  15  18
HETATM   18  O1  UNL     1      29.240   0.355  53.718  1.00  0.00    -0.356 OA
HETATM   19  C1  UNL     1      30.222  -0.634  53.552  1.00  0.00     0.210 C 
ENDBRANCH  15  18
ENDBRANCH  11  12
ENDBRANCH   1  11
BRANCH   9  20
HETATM   20  C14 UNL     1      20.562   0.287  53.892  1.00  0.00     0.346 C 
BRANCH  20  21
HETATM   21  N3  UNL     1      20.076  -1.022  54.281  1.00  0.00     0.085 N 
HETATM   22  H17 UNL     1      20.314  -1.318  55.230  1.00  0.00     0.313 HD
HETATM   23  H18 UNL     1      19.110  -1.128  53.965  1.00  0.00     0.313 HD
ENDBRANCH  20  21
ENDBRANCH   9  20
TORSDOF 5
ENDMDL
MODEL 4
REMARK VINA RESULT:      -7.1      4.063      6.938
REMARK  5 active torsions:
REMARK  status: ('A' for Active; 'I' for Inactive)
REMARK    1  A    between atoms: O1_2  and  C2_3 
REMARK    2  A    between atoms: C5_6  and  C6_7 
REMARK    3  A    between atoms: C6_7  and  C7_8 
REMARK    4  A    between atoms: C13_16  and  C14_17 
REMARK    5  A    between atoms: C14_17  and  N3_18 
ROOT
HETATM    1  C7  UNL     1      23.842   3.072  51.671  1.00  0.00     0.127 C 
HETATM    2  N1  UNL     1      24.134   2.732  50.508  1.00  0.00    -0.274 NA
HETATM    3  C8  UNL     1      23.606   2.876  49.206  1.00  0.00     0.159 C 
HETATM    4  C9  UNL     1      22.487   3.813  48.974  1.00  0.00     0.026 C 
HETATM    5  C10 UNL     1      22.119   3.481  47.464  1.00  0.00     0.016 C 
HETATM    6  C11 UNL     1      22.824   5.250  48.730  1.00  0.00     0.013 C 
HETATM    7  C12 UNL     1      21.985   6.136  49.272  1.00  0.00     0.084 C 
HETATM    8  N2  UNL     1      21.931   6.037  50.575  1.00  0.00    -0.230 NA
HETATM    9  C13 UNL     1      22.905   5.048  51.007  1.00  0.00     0.156 C 
HETATM   10  N4  UNL     1      22.674   3.782  51.291  1.00  0.00    -0.216 NA
ENDROOT
BRANCH   1  11
HETATM   11  C6  UNL     1      24.364   2.940  53.052  1.00  0.00     0.118 C 
BRANCH  11  12
HETATM   12  C5  UNL     1      25.261   1.764  53.200  1.00  0.00    -0.051 A 
HETATM   13  C4  UNL     1      24.815   0.454  53.164  1.00  0.00     0.010 A 
HETATM   14  C3  UNL     1      25.742  -0.569  53.314  1.00  0.00     0.037 A 
HETATM   15  C2  UNL     1      27.087  -0.272  53.495  1.00  0.00     0.068 A 
HETATM   16  C16 UNL     1      27.499   1.038  53.527  1.00  0.00     0.037 A 
HETATM   17  C15 UNL     1      26.603   2.080  53.381  1.00  0.00     0.010 A 
BRANCH  15  18
HETATM   18  O1  UNL     1      28.065  -1.242  53.651  1.00  0.00    -0.356 OA
HETATM   19  C1  UNL     1      29.446  -0.995  53.636  1.00  0.00     0.210 C 
ENDBRANCH  15  18
ENDBRANCH  11  12
ENDBRANCH   1  11
BRANCH   9  20
HETATM   20  C14 UNL     1      24.278   5.673  51.149  1.00  0.00     0.346 C 
BRANCH  20  21
HETATM   21  N3  UNL     1      24.269   6.683  52.188  1.00  0.00     0.085 N 
HETATM   22  H17 UNL     1      23.368   6.840  52.644  1.00  0.00     0.313 HD
HETATM   23  H18 UNL     1      25.098   6.566  52.774  1.00  0.00     0.313 HD
ENDBRANCH  20  21
ENDBRANCH   9  20
TORSDOF 5
ENDMDL
MODEL 5
REMARK VINA RESULT:      -6.9      1.836      2.690
REMARK  5 active torsions:
REMARK  status: ('A' for Active; 'I' for Inactive)
REMARK    1  A    between atoms: O1_2  and  C2_3 
REMARK    2  A    between atoms: C5_6  and  C6_7 
REMARK    3  A    between atoms: C6_7  and  C7_8 
REMARK    4  A    between atoms: C13_16  and  C14_17 
REMARK    5  A    between atoms: C14_17  and  N3_18 
ROOT
HETATM    1  C7  UNL     1      22.952   0.942  52.726  1.00  0.00     0.127 C 
HETATM    2  N1  UNL     1      23.644   0.165  53.413  1.00  0.00    -0.274 NA
HETATM    3  C8  UNL     1      24.935  -0.408  53.374  1.00  0.00     0.159 C 
HETATM    4  C9  UNL     1      25.923   0.090  52.395  1.00  0.00     0.026 C 
HETATM    5  C10 UNL     1      27.099  -0.962  52.585  1.00  0.00     0.016 C 
HETATM    6  C11 UNL     1      26.735   1.287  52.776  1.00  0.00     0.013 C 
HETATM    7  C12 UNL     1      26.984   2.150  51.788  1.00  0.00     0.084 C 
HETATM    8  N2  UNL     1      25.889   2.654  51.280  1.00  0.00    -0.230 NA
HETATM    9  C13 UNL     1      24.755   2.176  52.054  1.00  0.00     0.156 C 
HETATM   10  N4  UNL     1      23.963   1.165  51.756  1.00  0.00    -0.216 NA
ENDROOT
BRANCH   1  11
HETATM   11  C6  UNL     1      21.605   1.560  52.730  1.00  0.00     0.118 C 
BRANCH  11  12
HETATM   12  C5  UNL     1      20.526   0.548  52.876  1.00  0.00    -0.051 A 
HETATM   13  C4  UNL     1      20.530  -0.437  53.848  1.00  0.00     0.010 A 
HETATM   14  C3  UNL     1      19.470  -1.333  53.893  1.00  0.00     0.037 A 
HETATM   15  C2  UNL     1      18.431  -1.232  52.975  1.00  0.00     0.068 A 
HETATM   16  C16 UNL     1      18.456  -0.244  52.021  1.00  0.00     0.037 A 
HETATM   17  C15 UNL     1      19.496   0.664  51.949  1.00  0.00     0.010 A 
BRANCH  15  18
HETATM   18  O1  UNL     1      17.344  -2.091  52.961  1.00  0.00    -0.356 OA
HETATM   19  C1  UNL     1      17.306  -3.344  53.592  1.00  0.00     0.210 C 
ENDBRANCH  15  18
ENDBRANCH  11  12
ENDBRANCH   1  11
BRANCH   9  20
HETATM   20  C14 UNL     1      24.540   3.039  53.281  1.00  0.00     0.346 C 
BRANCH  20  21
HETATM   21  N3  UNL     1      24.107   4.367  52.895  1.00  0.00     0.085 N 
HETATM   22  H17 UNL     1      24.146   4.572  51.894  1.00  0.00     0.313 HD
HETATM   23  H18 UNL     1      23.256   4.604  53.409  1.00  0.00     0.313 HD
ENDBRANCH  20  21
ENDBRANCH   9  20
TORSDOF 5
ENDMDL
MODEL 6
REMARK VINA RESULT:      -6.9      3.504      7.160
REMARK  5 active torsions:
REMARK  status: ('A' for Active; 'I' for Inactive)
REMARK    1  A    between atoms: O1_2  and  C2_3 
REMARK    2  A    between atoms: C5_6  and  C6_7 
REMARK    3  A    between atoms: C6_7  and  C7_8 
REMARK    4  A    between atoms: C13_16  and  C14_17 
REMARK    5  A    between atoms: C14_17  and  N3_18 
ROOT
HETATM    1  C7  UNL     1      22.570   1.605  52.096  1.00  0.00     0.127 C 
HETATM    2  N1  UNL     1      22.057   0.757  51.341  1.00  0.00    -0.274 NA
HETATM    3  C8  UNL     1      20.771   0.255  51.042  1.00  0.00     0.159 C 
HETATM    4  C9  UNL     1      19.578   0.950  51.568  1.00  0.00     0.026 C 
HETATM    5  C10 UNL     1      18.427  -0.067  51.160  1.00  0.00     0.016 C 
HETATM    6  C11 UNL     1      19.041   2.102  50.779  1.00  0.00     0.013 C 
HETATM    7  C12 UNL     1      18.579   3.126  51.500  1.00  0.00     0.084 C 
HETATM    8  N2  UNL     1      19.503   3.659  52.257  1.00  0.00    -0.230 NA
HETATM    9  C13 UNL     1      20.772   3.011  51.967  1.00  0.00     0.156 C 
HETATM   10  N4  UNL     1      21.333   2.030  52.645  1.00  0.00    -0.216 NA
ENDROOT
BRANCH   1  11
HETATM   11  C6  UNL     1      23.903   2.156  52.439  1.00  0.00     0.118 C 
BRANCH  11  12
HETATM   12  C5  UNL     1      24.884   1.085  52.758  1.00  0.00    -0.051 A 
HETATM   13  C4  UNL     1      24.646   0.083  53.682  1.00  0.00     0.010 A 
HETATM   14  C3  UNL     1      25.634  -0.867  53.903  1.00  0.00     0.037 A 
HETATM   15  C2  UNL     1      26.833  -0.804  53.204  1.00  0.00     0.068 A 
HETATM   16  C16 UNL     1      27.039   0.203  52.292  1.00  0.00     0.037 A 
HETATM   17  C15 UNL     1      26.077   1.165  52.049  1.00  0.00     0.010 A 
BRANCH  15  18
HETATM   18  O1  UNL     1      27.861  -1.718  53.373  1.00  0.00    -0.356 OA
HETATM   19  C1  UNL     1      29.227  -1.396  53.362  1.00  0.00     0.210 C 
ENDBRANCH  15  18
ENDBRANCH  11  12
ENDBRANCH   1  11
BRANCH   9  20
HETATM   20  C14 UNL     1      21.439   3.650  50.766  1.00  0.00     0.346 C 
BRANCH  20  21
HETATM   21  N3  UNL     1      21.732   5.044  51.032  1.00  0.00     0.085 N 
HETATM   22  H17 UNL     1      21.385   5.709  50.338  1.00  0.00     0.313 HD
HETATM   23  H18 UNL     1      21.563   5.238  52.021  1.00  0.00     0.313 HD
ENDBRANCH  20  21
ENDBRANCH   9  20
TORSDOF 5
ENDMDL
MODEL 7
REMARK VINA RESULT:      -6.8      3.838      5.133
REMARK  5 active torsions:
REMARK  status: ('A' for Active; 'I' for Inactive)
REMARK    1  A    between atoms: O1_2  and  C2_3 
REMARK    2  A    between atoms: C5_6  and  C6_7 
REMARK    3  A    between atoms: C6_7  and  C7_8 
REMARK    4  A    between atoms: C13_16  and  C14_17 
REMARK    5  A    between atoms: C14_17  and  N3_18 
ROOT
HETATM    1  C7  UNL     1      26.086   1.987  51.382  1.00  0.00     0.127 C 
HETATM    2  N1  UNL     1      25.129   1.916  52.177  1.00  0.00    -0.274 NA
HETATM    3  C8  UNL     1      24.671   1.053  53.197  1.00  0.00     0.159 C 
HETATM    4  C9  UNL     1      25.555  -0.023  53.692  1.00  0.00     0.026 C 
HETATM    5  C10 UNL     1      24.561  -0.823  54.640  1.00  0.00     0.016 C 
HETATM    6  C11 UNL     1      26.535   0.324  54.768  1.00  0.00     0.013 C 
HETATM    7  C12 UNL     1      27.728  -0.268  54.671  1.00  0.00     0.084 C 
HETATM    8  N2  UNL     1      28.347   0.042  53.561  1.00  0.00    -0.230 NA
HETATM    9  C13 UNL     1      27.557   1.031  52.847  1.00  0.00     0.156 C 
HETATM   10  N4  UNL     1      26.716   0.809  51.857  1.00  0.00    -0.216 NA
ENDROOT
BRANCH   1  11
HETATM   11  C6  UNL     1      26.598   2.868  50.305  1.00  0.00     0.118 C 
BRANCH  11  12
HETATM   12  C5  UNL     1      25.516   3.677  49.684  1.00  0.00    -0.051 A 
HETATM   13  C4  UNL     1      24.262   3.174  49.385  1.00  0.00     0.010 A 
HETATM   14  C3  UNL     1      23.326   4.020  48.804  1.00  0.00     0.037 A 
HETATM   15  C2  UNL     1      23.653   5.343  48.535  1.00  0.00     0.068 A 
HETATM   16  C16 UNL     1      24.906   5.813  48.843  1.00  0.00     0.037 A 
HETATM   17  C15 UNL     1      25.861   4.998  49.421  1.00  0.00     0.010 A 
BRANCH  15  18
HETATM   18  O1  UNL     1      22.770   6.242  47.958  1.00  0.00    -0.356 OA
HETATM   19  C1  UNL     1      22.570   7.560  48.396  1.00  0.00     0.210 C 
ENDBRANCH  15  18
ENDBRANCH  11  12
ENDBRANCH   1  11
BRANCH   9  20
HETATM   20  C14 UNL     1      27.854   2.426  53.359  1.00  0.00     0.346 C 
BRANCH  20  21
HETATM   21  N3  UNL     1      29.268   2.570  53.644  1.00  0.00     0.085 N 
HETATM   22  H17 UNL     1      29.850   2.867  52.858  1.00  0.00     0.313 HD
HETATM   23  H18 UNL     1      29.381   3.044  54.542  1.00  0.00     0.313 HD
ENDBRANCH  20  21
ENDBRANCH   9  20
TORSDOF 5
ENDMDL
MODEL 8
REMARK VINA RESULT:      -6.8      4.088      7.063
REMARK  5 active torsions:
REMARK  status: ('A' for Active; 'I' for Inactive)
REMARK    1  A    between atoms: O1_2  and  C2_3 
REMARK    2  A    between atoms: C5_6  and  C6_7 
REMARK    3  A    between atoms: C6_7  and  C7_8 
REMARK    4  A    between atoms: C13_16  and  C14_17 
REMARK    5  A    between atoms: C14_17  and  N3_18 
ROOT
HETATM    1  C7  UNL     1      23.090   2.631  51.369  1.00  0.00     0.127 C 
HETATM    2  N1  UNL     1      23.006   3.871  51.287  1.00  0.00    -0.274 NA
HETATM    3  C8  UNL     1      23.183   4.875  50.308  1.00  0.00     0.159 C 
HETATM    4  C9  UNL     1      23.349   4.489  48.891  1.00  0.00     0.026 C 
HETATM    5  C10 UNL     1      23.713   5.890  48.234  1.00  0.00     0.016 C 
HETATM    6  C11 UNL     1      22.109   4.267  48.084  1.00  0.00     0.013 C 
HETATM    7  C12 UNL     1      22.170   3.264  47.204  1.00  0.00     0.084 C 
HETATM    8  N2  UNL     1      22.389   2.110  47.780  1.00  0.00    -0.230 NA
HETATM    9  C13 UNL     1      22.382   2.301  49.221  1.00  0.00     0.156 C 
HETATM   10  N4  UNL     1      23.432   2.450  50.004  1.00  0.00    -0.216 NA
ENDROOT
BRANCH   1  11
HETATM   11  C6  UNL     1      22.916   1.550  52.368  1.00  0.00     0.118 C 
BRANCH  11  12
HETATM   12  C5  UNL     1      24.198   1.193  53.033  1.00  0.00    -0.051 A 
HETATM   13  C4  UNL     1      25.171   2.120  53.360  1.00  0.00     0.010 A 
HETATM   14  C3  UNL     1      26.332   1.677  53.980  1.00  0.00     0.037 A 
HETATM   15  C2  UNL     1      26.501   0.326  54.262  1.00  0.00     0.068 A 
HETATM   16  C16 UNL     1      25.516  -0.570  53.925  1.00  0.00     0.037 A 
HETATM   17  C15 UNL     1      24.349  -0.161  53.307  1.00  0.00     0.010 A 
BRANCH  15  18
HETATM   18  O1  UNL     1      27.632  -0.185  54.878  1.00  0.00    -0.356 OA
HETATM   19  C1  UNL     1      28.876  -0.355  54.251  1.00  0.00     0.210 C 
ENDBRANCH  15  18
ENDBRANCH  11  12
ENDBRANCH   1  11
BRANCH   9  20
HETATM   20  C14 UNL     1      20.967   2.260  49.761  1.00  0.00     0.346 C 
BRANCH  20  21
HETATM   21  N3  UNL     1      20.229   1.164  49.166  1.00  0.00     0.085 N 
HETATM   22  H17 UNL     1      19.301   0.992  49.557  1.00  0.00     0.313 HD
HETATM   23  H18 UNL     1      20.331   1.206  48.150  1.00  0.00     0.313 HD
ENDBRANCH  20  21
ENDBRANCH   9  20
TORSDOF 5
ENDMDL
MODEL 9
REMARK VINA RESULT:      -6.7      2.773      3.730
REMARK  5 active torsions:
REMARK  status: ('A' for Active; 'I' for Inactive)
REMARK    1  A    between atoms: O1_2  and  C2_3 
REMARK    2  A    between atoms: C5_6  and  C6_7 
REMARK    3  A    between atoms: C6_7  and  C7_8 
REMARK    4  A    between atoms: C13_16  and  C14_17 
REMARK    5  A    between atoms: C14_17  and  N3_18 
ROOT
HETATM    1  C7  UNL     1      23.345   0.643  52.709  1.00  0.00     0.127 C 
HETATM    2  N1  UNL     1      23.993  -0.119  53.453  1.00  0.00    -0.274 NA
HETATM    3  C8  UNL     1      25.311  -0.614  53.560  1.00  0.00     0.159 C 
HETATM    4  C9  UNL     1      26.381  -0.022  52.730  1.00  0.00     0.026 C 
HETATM    5  C10 UNL     1      27.587  -1.011  53.035  1.00  0.00     0.016 C 
HETATM    6  C11 UNL     1      27.064   1.204  53.250  1.00  0.00     0.013 C 
HETATM    7  C12 UNL     1      27.380   2.118  52.329  1.00  0.00     0.084 C 
HETATM    8  N2  UNL     1      26.327   2.578  51.703  1.00  0.00    -0.230 NA
HETATM    9  C13 UNL     1      25.137   2.005  52.311  1.00  0.00     0.156 C 
HETATM   10  N4  UNL     1      24.453   0.963  51.883  1.00  0.00    -0.216 NA
ENDROOT
BRANCH   1  11
HETATM   11  C6  UNL     1      21.972   1.182  52.563  1.00  0.00     0.118 C 
BRANCH  11  12
HETATM   12  C5  UNL     1      21.720   1.701  51.192  1.00  0.00    -0.051 A 
HETATM   13  C4  UNL     1      21.753   3.045  50.866  1.00  0.00     0.010 A 
HETATM   14  C3  UNL     1      21.500   3.418  49.553  1.00  0.00     0.037 A 
HETATM   15  C2  UNL     1      21.222   2.453  48.593  1.00  0.00     0.068 A 
HETATM   16  C16 UNL     1      21.196   1.126  48.948  1.00  0.00     0.037 A 
HETATM   17  C15 UNL     1      21.443   0.720  50.245  1.00  0.00     0.010 A 
BRANCH  15  18
HETATM   18  O1  UNL     1      20.961   2.754  47.266  1.00  0.00    -0.356 OA
HETATM   19  C1  UNL     1      21.775   3.558  46.453  1.00  0.00     0.210 C 
ENDBRANCH  15  18
ENDBRANCH  11  12
ENDBRANCH   1  11
BRANCH   9  20
HETATM   20  C14 UNL     1      24.718   2.805  53.528  1.00  0.00     0.346 C 
BRANCH  20  21
HETATM   21  N3  UNL     1      24.304   4.138  53.138  1.00  0.00     0.085 N 
HETATM   22  H17 UNL     1      23.385   4.205  52.696  1.00  0.00     0.313 HD
HETATM   23  H18 UNL     1      24.533   4.792  53.889  1.00  0.00     0.313 HD
ENDBRANCH  20  21
ENDBRANCH   9  20
TORSDOF 5
ENDMDL
