MODEL 1
REMARK VINA RESULT:      -8.2      0.000      0.000
REMARK  5 active torsions:
REMARK  status: ('A' for Active; 'I' for Inactive)
REMARK    1  A    between atoms: C4_6  and  N3_7 
REMARK    2  A    between atoms: N3_7  and  C5_8 
REMARK    3  A    between atoms: C8_11  and  O1_12 
REMARK    4  A    between atoms: O1_12  and  C9_13 
REMARK    5  A    between atoms: C9_13  and  C10_14 
ROOT
HETATM    1  C5  UNL     1      24.581   0.797  52.127  1.00  0.00     0.035 A 
HETATM    2  C6  UNL     1      23.830   1.696  51.412  1.00  0.00     0.032 A 
HETATM    3  C7  UNL     1      22.492   1.824  51.703  1.00  0.00     0.041 A 
HETATM    4  C8  UNL     1      21.925   1.054  52.701  1.00  0.00     0.091 A 
HETATM    5  C16 UNL     1      22.712   0.142  53.419  1.00  0.00     0.069 A 
HETATM    6 CL1  UNL     1      22.080  -0.884  54.711  1.00  0.00    -0.081 Cl
HETATM    7  C17 UNL     1      24.067   0.009  53.128  1.00  0.00     0.056 A 
ENDROOT
BRANCH   1   8
HETATM    8  N3  UNL     1      25.966   0.634  51.857  1.00  0.00    -0.340 N 
HETATM    9  H5  UNL     1      26.355   0.206  50.995  1.00  0.00     0.167 HD
BRANCH   8  10
HETATM   10  C4  UNL     1      27.123   0.973  52.605  1.00  0.00     0.137 A 
HETATM   11  N2  UNL     1      27.517   2.221  53.002  1.00  0.00    -0.224 NA
HETATM   12  C3  UNL     1      28.667   2.341  53.730  1.00  0.00     0.235 A 
HETATM   13  N1  UNL     1      29.430   1.261  54.070  1.00  0.00    -0.246 NA
HETATM   14  C2  UNL     1      29.074   0.021  53.698  1.00  0.00     0.041 A 
HETATM   15  C1  UNL     1      29.890  -1.191  54.066  1.00  0.00     0.071 C 
HETATM   16  C18 UNL     1      27.913  -0.128  52.960  1.00  0.00     0.008 A 
HETATM   17  C19 UNL     1      27.555  -1.528  52.566  1.00  0.00     0.054 C 
ENDBRANCH   8  10
ENDBRANCH   1   8
BRANCH   4  18
HETATM   18  O1  UNL     1      20.604   1.046  53.132  1.00  0.00    -0.345 OA
BRANCH  18  19
HETATM   19  C9  UNL     1      19.506   1.229  52.296  1.00  0.00     0.214 C 
BRANCH  19  20
HETATM   20  C10 UNL     1      18.585   0.070  52.483  1.00  0.00    -0.031 A 
HETATM   21  C11 UNL     1      17.439   0.096  51.675  1.00  0.00     0.009 A 
HETATM   22  C12 UNL     1      16.483  -0.917  51.738  1.00  0.00     0.004 A 
HETATM   23  C13 UNL     1      16.668  -1.983  52.619  1.00  0.00     0.042 A 
HETATM   24  C14 UNL     1      17.816  -1.934  53.375  1.00  0.00     0.117 A 
HETATM   25  F1  UNL     1      17.965  -2.993  54.225  1.00  0.00    -0.206 F 
HETATM   26  C15 UNL     1      18.776  -0.978  53.356  1.00  0.00     0.051 A 
ENDBRANCH  19  20
ENDBRANCH  18  19
ENDBRANCH   4  18
TORSDOF 5
ENDMDL
MODEL 2
REMARK VINA RESULT:      -8.2      5.749      8.047
REMARK  5 active torsions:
REMARK  status: ('A' for Active; 'I' for Inactive)
REMARK    1  A    between atoms: C4_6  and  N3_7 
REMARK    2  A    between atoms: N3_7  and  C5_8 
REMARK    3  A    between atoms: C8_11  and  O1_12 
REMARK    4  A    between atoms: O1_12  and  C9_13 
REMARK    5  A    between atoms: C9_13  and  C10_14 
ROOT
HETATM    1  C5  UNL     1      25.525   2.434  51.870  1.00  0.00     0.035 A 
HETATM    2  C6  UNL     1      24.209   2.816  51.790  1.00  0.00     0.032 A 
HETATM    3  C7  UNL     1      23.828   3.687  50.796  1.00  0.00     0.041 A 
HETATM    4  C8  UNL     1      24.766   4.163  49.898  1.00  0.00     0.091 A 
HETATM    5  C16 UNL     1      26.104   3.759  49.998  1.00  0.00     0.069 A 
HETATM    6 CL1  UNL     1      27.374   4.311  48.900  1.00  0.00    -0.081 Cl
HETATM    7  C17 UNL     1      26.494   2.877  51.004  1.00  0.00     0.056 A 
ENDROOT
BRANCH   1   8
HETATM    8  N3  UNL     1      25.958   1.537  52.882  1.00  0.00    -0.340 N 
HETATM    9  H5  UNL     1      25.329   0.948  53.460  1.00  0.00     0.167 HD
BRANCH   8  10
HETATM   10  C4  UNL     1      27.250   1.206  53.363  1.00  0.00     0.137 A 
HETATM   11  N2  UNL     1      28.117   2.020  54.039  1.00  0.00    -0.224 NA
HETATM   12  C3  UNL     1      29.323   1.508  54.431  1.00  0.00     0.235 A 
HETATM   13  N1  UNL     1      29.686   0.219  54.168  1.00  0.00    -0.246 NA
HETATM   14  C2  UNL     1      28.861  -0.609  53.508  1.00  0.00     0.041 A 
HETATM   15  C1  UNL     1      29.229  -2.040  53.213  1.00  0.00     0.071 C 
HETATM   16  C18 UNL     1      27.634  -0.115  53.101  1.00  0.00     0.008 A 
HETATM   17  C19 UNL     1      26.746  -1.074  52.367  1.00  0.00     0.054 C 
ENDBRANCH   8  10
ENDBRANCH   1   8
BRANCH   4  18
HETATM   18  O1  UNL     1      24.569   5.040  48.838  1.00  0.00    -0.345 OA
BRANCH  18  19
HETATM   19  C9  UNL     1      24.142   6.357  48.979  1.00  0.00     0.214 C 
BRANCH  19  20
HETATM   20  C10 UNL     1      25.346   7.237  48.962  1.00  0.00    -0.031 A 
HETATM   21  C11 UNL     1      25.930   7.404  47.698  1.00  0.00     0.009 A 
HETATM   22  C12 UNL     1      27.063   8.198  47.520  1.00  0.00     0.004 A 
HETATM   23  C13 UNL     1      27.629   8.843  48.621  1.00  0.00     0.042 A 
HETATM   24  C14 UNL     1      26.998   8.628  49.823  1.00  0.00     0.117 A 
HETATM   25  F1  UNL     1      27.577   9.275  50.878  1.00  0.00    -0.206 F 
HETATM   26  C15 UNL     1      25.898   7.870  50.053  1.00  0.00     0.051 A 
ENDBRANCH  19  20
ENDBRANCH  18  19
ENDBRANCH   4  18
TORSDOF 5
ENDMDL
MODEL 3
REMARK VINA RESULT:      -8.1      5.493      8.035
REMARK  5 active torsions:
REMARK  status: ('A' for Active; 'I' for Inactive)
REMARK    1  A    between atoms: C4_6  and  N3_7 
REMARK    2  A    between atoms: N3_7  and  C5_8 
REMARK    3  A    between atoms: C8_11  and  O1_12 
REMARK    4  A    between atoms: O1_12  and  C9_13 
REMARK    5  A    between atoms: C9_13  and  C10_14 
ROOT
HETATM    1  C5  UNL     1      26.101   5.075  49.420  1.00  0.00     0.035 A 
HETATM    2  C6  UNL     1      26.851   3.927  49.375  1.00  0.00     0.032 A 
HETATM    3  C7  UNL     1      26.454   2.843  50.121  1.00  0.00     0.041 A 
HETATM    4  C8  UNL     1      25.314   2.921  50.901  1.00  0.00     0.091 A 
HETATM    5  C16 UNL     1      24.563   4.104  50.932  1.00  0.00     0.069 A 
HETATM    6 CL1  UNL     1      23.095   4.300  51.894  1.00  0.00    -0.081 Cl
HETATM    7  C17 UNL     1      24.962   5.204  50.177  1.00  0.00     0.056 A 
ENDROOT
BRANCH   1   8
HETATM    8  N3  UNL     1      26.478   6.217  48.665  1.00  0.00    -0.340 N 
HETATM    9  H5  UNL     1      26.287   6.347  47.653  1.00  0.00     0.167 HD
BRANCH   8  10
HETATM   10  C4  UNL     1      27.160   7.408  49.025  1.00  0.00     0.137 A 
HETATM   11  N2  UNL     1      26.684   8.437  49.791  1.00  0.00    -0.224 NA
HETATM   12  C3  UNL     1      27.504   9.502  50.035  1.00  0.00     0.235 A 
HETATM   13  N1  UNL     1      28.776   9.571  49.542  1.00  0.00    -0.246 NA
HETATM   14  C2  UNL     1      29.276   8.580  48.787  1.00  0.00     0.041 A 
HETATM   15  C1  UNL     1      30.678   8.622  48.237  1.00  0.00     0.071 C 
HETATM   16  C18 UNL     1      28.465   7.489  48.525  1.00  0.00     0.008 A 
HETATM   17  C19 UNL     1      29.065   6.408  47.679  1.00  0.00     0.054 C 
ENDBRANCH   8  10
ENDBRANCH   1   8
BRANCH   4  18
HETATM   18  O1  UNL     1      24.763   1.937  51.713  1.00  0.00    -0.345 OA
BRANCH  18  19
HETATM   19  C9  UNL     1      25.128   1.719  53.039  1.00  0.00     0.214 C 
BRANCH  19  20
HETATM   20  C10 UNL     1      26.208   0.692  53.057  1.00  0.00    -0.031 A 
HETATM   21  C11 UNL     1      27.452   1.157  53.510  1.00  0.00     0.009 A 
HETATM   22  C12 UNL     1      28.560   0.315  53.583  1.00  0.00     0.004 A 
HETATM   23  C13 UNL     1      28.434  -1.021  53.201  1.00  0.00     0.042 A 
HETATM   24  C14 UNL     1      27.185  -1.399  52.769  1.00  0.00     0.117 A 
HETATM   25  F1  UNL     1      27.097  -2.712  52.404  1.00  0.00    -0.206 F 
HETATM   26  C15 UNL     1      26.075  -0.626  52.678  1.00  0.00     0.051 A 
ENDBRANCH  19  20
ENDBRANCH  18  19
ENDBRANCH   4  18
TORSDOF 5
ENDMDL
MODEL 4
REMARK VINA RESULT:      -7.9      5.743      7.629
REMARK  5 active torsions:
REMARK  status: ('A' for Active; 'I' for Inactive)
REMARK    1  A    between atoms: C4_6  and  N3_7 
REMARK    2  A    between atoms: N3_7  and  C5_8 
REMARK    3  A    between atoms: C8_11  and  O1_12 
REMARK    4  A    between atoms: O1_12  and  C9_13 
REMARK    5  A    between atoms: C9_13  and  C10_14 
ROOT
HETATM    1  C5  UNL     1      26.710   5.430  48.999  1.00  0.00     0.035 A 
HETATM    2  C6  UNL     1      26.972   4.100  49.217  1.00  0.00     0.032 A 
HETATM    3  C7  UNL     1      26.104   3.371  49.995  1.00  0.00     0.041 A 
HETATM    4  C8  UNL     1      24.989   3.978  50.542  1.00  0.00     0.091 A 
HETATM    5  C16 UNL     1      24.740   5.337  50.305  1.00  0.00     0.069 A 
HETATM    6 CL1  UNL     1      23.345   6.201  50.958  1.00  0.00    -0.081 Cl
HETATM    7  C17 UNL     1      25.617   6.080  49.518  1.00  0.00     0.056 A 
ENDROOT
BRANCH   1   8
HETATM    8  N3  UNL     1      27.582   6.219  48.203  1.00  0.00    -0.340 N 
HETATM    9  H5  UNL     1      27.661   6.154  47.170  1.00  0.00     0.167 HD
BRANCH   8  10
HETATM   10  C4  UNL     1      28.515   7.232  48.540  1.00  0.00     0.137 A 
HETATM   11  N2  UNL     1      28.242   8.496  48.986  1.00  0.00    -0.224 NA
HETATM   12  C3  UNL     1      29.287   9.329  49.269  1.00  0.00     0.235 A 
HETATM   13  N1  UNL     1      30.588   8.941  49.120  1.00  0.00    -0.246 NA
HETATM   14  C2  UNL     1      30.894   7.709  48.685  1.00  0.00     0.041 A 
HETATM   15  C1  UNL     1      32.320   7.249  48.521  1.00  0.00     0.071 C 
HETATM   16  C18 UNL     1      29.853   6.845  48.392  1.00  0.00     0.008 A 
HETATM   17  C19 UNL     1      30.242   5.481  47.910  1.00  0.00     0.054 C 
ENDBRANCH   8  10
ENDBRANCH   1   8
BRANCH   4  18
HETATM   18  O1  UNL     1      24.009   3.406  51.345  1.00  0.00    -0.345 OA
BRANCH  18  19
HETATM   19  C9  UNL     1      24.040   3.401  52.737  1.00  0.00     0.214 C 
BRANCH  19  20
HETATM   20  C10 UNL     1      24.721   2.150  53.179  1.00  0.00    -0.031 A 
HETATM   21  C11 UNL     1      24.011   0.971  52.908  1.00  0.00     0.009 A 
HETATM   22  C12 UNL     1      24.518  -0.279  53.263  1.00  0.00     0.004 A 
HETATM   23  C13 UNL     1      25.758  -0.363  53.898  1.00  0.00     0.042 A 
HETATM   24  C14 UNL     1      26.389   0.837  54.127  1.00  0.00     0.117 A 
HETATM   25  F1  UNL     1      27.599   0.718  54.749  1.00  0.00    -0.206 F 
HETATM   26  C15 UNL     1      25.945   2.077  53.805  1.00  0.00     0.051 A 
ENDBRANCH  19  20
ENDBRANCH  18  19
ENDBRANCH   4  18
TORSDOF 5
ENDMDL
MODEL 5
REMARK VINA RESULT:      -7.8      4.042      8.912
REMARK  5 active torsions:
REMARK  status: ('A' for Active; 'I' for Inactive)
REMARK    1  A    between atoms: C4_6  and  N3_7 
REMARK    2  A    between atoms: N3_7  and  C5_8 
REMARK    3  A    between atoms: C8_11  and  O1_12 
REMARK    4  A    between atoms: O1_12  and  C9_13 
REMARK    5  A    between atoms: C9_13  and  C10_14 
ROOT
HETATM    1  C5  UNL     1      21.428   0.625  51.792  1.00  0.00     0.035 A 
HETATM    2  C6  UNL     1      22.502   1.309  51.280  1.00  0.00     0.032 A 
HETATM    3  C7  UNL     1      23.714   1.221  51.922  1.00  0.00     0.041 A 
HETATM    4  C8  UNL     1      23.837   0.450  53.063  1.00  0.00     0.091 A 
HETATM    5  C16 UNL     1      22.728  -0.241  53.568  1.00  0.00     0.069 A 
HETATM    6 CL1  UNL     1      22.785  -1.250  55.018  1.00  0.00    -0.081 Cl
HETATM    7  C17 UNL     1      21.497  -0.154  52.922  1.00  0.00     0.056 A 
ENDROOT
BRANCH   1   8
HETATM    8  N3  UNL     1      20.159   0.691  51.160  1.00  0.00    -0.340 N 
HETATM    9  H5  UNL     1      19.810   0.009  50.460  1.00  0.00     0.167 HD
BRANCH   8  10
HETATM   10  C4  UNL     1      19.089   1.614  51.279  1.00  0.00     0.137 A 
HETATM   11  N2  UNL     1      19.160   2.979  51.217  1.00  0.00    -0.224 NA
HETATM   12  C3  UNL     1      18.006   3.700  51.345  1.00  0.00     0.235 A 
HETATM   13  N1  UNL     1      16.792   3.104  51.534  1.00  0.00    -0.246 NA
HETATM   14  C2  UNL     1      16.684   1.767  51.600  1.00  0.00     0.041 A 
HETATM   15  C1  UNL     1      15.357   1.080  51.796  1.00  0.00     0.071 C 
HETATM   16  C18 UNL     1      17.838   1.014  51.472  1.00  0.00     0.008 A 
HETATM   17  C19 UNL     1      17.669  -0.472  51.552  1.00  0.00     0.054 C 
ENDBRANCH   8  10
ENDBRANCH   1   8
BRANCH   4  18
HETATM   18  O1  UNL     1      24.972   0.242  53.839  1.00  0.00    -0.345 OA
BRANCH  18  19
HETATM   19  C9  UNL     1      26.196   0.869  53.621  1.00  0.00     0.214 C 
BRANCH  19  20
HETATM   20  C10 UNL     1      27.234  -0.190  53.458  1.00  0.00    -0.031 A 
HETATM   21  C11 UNL     1      26.767  -1.384  52.890  1.00  0.00     0.009 A 
HETATM   22  C12 UNL     1      27.619  -2.467  52.675  1.00  0.00     0.004 A 
HETATM   23  C13 UNL     1      28.965  -2.364  53.029  1.00  0.00     0.042 A 
HETATM   24  C14 UNL     1      29.343  -1.162  53.579  1.00  0.00     0.117 A 
HETATM   25  F1  UNL     1      30.665  -1.095  53.913  1.00  0.00    -0.206 F 
HETATM   26  C15 UNL     1      28.561  -0.079  53.811  1.00  0.00     0.051 A 
ENDBRANCH  19  20
ENDBRANCH  18  19
ENDBRANCH   4  18
TORSDOF 5
ENDMDL
MODEL 6
REMARK VINA RESULT:      -7.8      4.697      6.447
REMARK  5 active torsions:
REMARK  status: ('A' for Active; 'I' for Inactive)
REMARK    1  A    between atoms: C4_6  and  N3_7 
REMARK    2  A    between atoms: N3_7  and  C5_8 
REMARK    3  A    between atoms: C8_11  and  O1_12 
REMARK    4  A    between atoms: O1_12  and  C9_13 
REMARK    5  A    between atoms: C9_13  and  C10_14 
ROOT
HETATM    1  C5  UNL     1      24.609   1.893  52.888  1.00  0.00     0.035 A 
HETATM    2  C6  UNL     1      24.494   3.215  53.237  1.00  0.00     0.032 A 
HETATM    3  C7  UNL     1      23.670   4.029  52.495  1.00  0.00     0.041 A 
HETATM    4  C8  UNL     1      22.975   3.511  51.418  1.00  0.00     0.091 A 
HETATM    5  C16 UNL     1      23.108   2.157  51.080  1.00  0.00     0.069 A 
HETATM    6 CL1  UNL     1      22.262   1.403  49.724  1.00  0.00    -0.081 Cl
HETATM    7  C17 UNL     1      23.941   1.329  51.828  1.00  0.00     0.056 A 
ENDROOT
BRANCH   1   8
HETATM    8  N3  UNL     1      25.450   1.019  53.627  1.00  0.00    -0.340 N 
HETATM    9  H5  UNL     1      25.114   0.242  54.228  1.00  0.00     0.167 HD
BRANCH   8  10
HETATM   10  C4  UNL     1      26.861   0.949  53.759  1.00  0.00     0.137 A 
HETATM   11  N2  UNL     1      27.706   1.943  54.170  1.00  0.00    -0.224 NA
HETATM   12  C3  UNL     1      29.044   1.675  54.240  1.00  0.00     0.235 A 
HETATM   13  N1  UNL     1      29.560   0.453  53.914  1.00  0.00    -0.246 NA
HETATM   14  C2  UNL     1      28.761  -0.546  53.507  1.00  0.00     0.041 A 
HETATM   15  C1  UNL     1      29.299  -1.907  53.150  1.00  0.00     0.071 C 
HETATM   16  C18 UNL     1      27.401  -0.300  53.427  1.00  0.00     0.008 A 
HETATM   17  C19 UNL     1      26.549  -1.443  52.968  1.00  0.00     0.054 C 
ENDBRANCH   8  10
ENDBRANCH   1   8
BRANCH   4  18
HETATM   18  O1  UNL     1      22.104   4.174  50.561  1.00  0.00    -0.345 OA
BRANCH  18  19
HETATM   19  C9  UNL     1      22.456   4.654  49.302  1.00  0.00     0.214 C 
BRANCH  19  20
HETATM   20  C10 UNL     1      23.634   5.554  49.465  1.00  0.00    -0.031 A 
HETATM   21  C11 UNL     1      24.849   5.016  49.014  1.00  0.00     0.009 A 
HETATM   22  C12 UNL     1      26.039   5.737  49.100  1.00  0.00     0.004 A 
HETATM   23  C13 UNL     1      26.026   7.022  49.643  1.00  0.00     0.042 A 
HETATM   24  C14 UNL     1      24.798   7.477  50.062  1.00  0.00     0.117 A 
HETATM   25  F1  UNL     1      24.822   8.737  50.587  1.00  0.00    -0.206 F 
HETATM   26  C15 UNL     1      23.612   6.822  50.003  1.00  0.00     0.051 A 
ENDBRANCH  19  20
ENDBRANCH  18  19
ENDBRANCH   4  18
TORSDOF 5
ENDMDL
MODEL 7
REMARK VINA RESULT:      -7.7      5.094      6.385
REMARK  5 active torsions:
REMARK  status: ('A' for Active; 'I' for Inactive)
REMARK    1  A    between atoms: C4_6  and  N3_7 
REMARK    2  A    between atoms: N3_7  and  C5_8 
REMARK    3  A    between atoms: C8_11  and  O1_12 
REMARK    4  A    between atoms: O1_12  and  C9_13 
REMARK    5  A    between atoms: C9_13  and  C10_14 
ROOT
HETATM    1  C5  UNL     1      26.113   4.729  49.355  1.00  0.00     0.035 A 
HETATM    2  C6  UNL     1      24.805   5.090  49.560  1.00  0.00     0.032 A 
HETATM    3  C7  UNL     1      24.031   4.333  50.407  1.00  0.00     0.041 A 
HETATM    4  C8  UNL     1      24.574   3.229  51.037  1.00  0.00     0.091 A 
HETATM    5  C16 UNL     1      25.912   2.879  50.814  1.00  0.00     0.069 A 
HETATM    6 CL1  UNL     1      26.695   1.488  51.572  1.00  0.00    -0.081 Cl
HETATM    7  C17 UNL     1      26.700   3.642  49.956  1.00  0.00     0.056 A 
ENDROOT
BRANCH   1   8
HETATM    8  N3  UNL     1      26.946   5.484  48.487  1.00  0.00    -0.340 N 
HETATM    9  H5  UNL     1      27.234   5.185  47.536  1.00  0.00     0.167 HD
BRANCH   8  10
HETATM   10  C4  UNL     1      27.573   6.747  48.637  1.00  0.00     0.137 A 
HETATM   11  N2  UNL     1      26.984   7.926  49.002  1.00  0.00    -0.224 NA
HETATM   12  C3  UNL     1      27.766   9.043  49.102  1.00  0.00     0.235 A 
HETATM   13  N1  UNL     1      29.108   9.017  48.850  1.00  0.00    -0.246 NA
HETATM   14  C2  UNL     1      29.720   7.878  48.489  1.00  0.00     0.041 A 
HETATM   15  C1  UNL     1      31.200   7.815  48.214  1.00  0.00     0.071 C 
HETATM   16  C18 UNL     1      28.950   6.732  48.381  1.00  0.00     0.008 A 
HETATM   17  C19 UNL     1      29.674   5.485  47.977  1.00  0.00     0.054 C 
ENDBRANCH   8  10
ENDBRANCH   1   8
BRANCH   4  18
HETATM   18  O1  UNL     1      23.951   2.353  51.920  1.00  0.00    -0.345 OA
BRANCH  18  19
HETATM   19  C9  UNL     1      23.096   1.325  51.532  1.00  0.00     0.214 C 
BRANCH  19  20
HETATM   20  C10 UNL     1      22.795   0.497  52.735  1.00  0.00    -0.031 A 
HETATM   21  C11 UNL     1      21.436   0.438  53.080  1.00  0.00     0.009 A 
HETATM   22  C12 UNL     1      20.998  -0.296  54.181  1.00  0.00     0.004 A 
HETATM   23  C13 UNL     1      21.926  -0.990  54.958  1.00  0.00     0.042 A 
HETATM   24  C14 UNL     1      23.236  -0.881  54.555  1.00  0.00     0.117 A 
HETATM   25  F1  UNL     1      24.117  -1.573  55.336  1.00  0.00    -0.206 F 
HETATM   26  C15 UNL     1      23.718  -0.185  53.496  1.00  0.00     0.051 A 
ENDBRANCH  19  20
ENDBRANCH  18  19
ENDBRANCH   4  18
TORSDOF 5
ENDMDL
MODEL 8
REMARK VINA RESULT:      -7.6      5.510      7.016
REMARK  5 active torsions:
REMARK  status: ('A' for Active; 'I' for Inactive)
REMARK    1  A    between atoms: C4_6  and  N3_7 
REMARK    2  A    between atoms: N3_7  and  C5_8 
REMARK    3  A    between atoms: C8_11  and  O1_12 
REMARK    4  A    between atoms: O1_12  and  C9_13 
REMARK    5  A    between atoms: C9_13  and  C10_14 
ROOT
HETATM    1  C5  UNL     1      26.702   5.556  48.959  1.00  0.00     0.035 A 
HETATM    2  C6  UNL     1      27.149   4.258  48.966  1.00  0.00     0.032 A 
HETATM    3  C7  UNL     1      26.464   3.323  49.705  1.00  0.00     0.041 A 
HETATM    4  C8  UNL     1      25.344   3.696  50.425  1.00  0.00     0.091 A 
HETATM    5  C16 UNL     1      24.905   5.026  50.402  1.00  0.00     0.069 A 
HETATM    6 CL1  UNL     1      23.487   5.599  51.287  1.00  0.00    -0.081 Cl
HETATM    7  C17 UNL     1      25.596   5.977  49.655  1.00  0.00     0.056 A 
ENDROOT
BRANCH   1   8
HETATM    8  N3  UNL     1      27.381   6.552  48.209  1.00  0.00    -0.340 N 
HETATM    9  H5  UNL     1      27.355   6.636  47.175  1.00  0.00     0.167 HD
BRANCH   8  10
HETATM   10  C4  UNL     1      28.218   7.627  48.603  1.00  0.00     0.137 A 
HETATM   11  N2  UNL     1      27.831   8.828  49.131  1.00  0.00    -0.224 NA
HETATM   12  C3  UNL     1      28.797   9.739  49.458  1.00  0.00     0.235 A 
HETATM   13  N1  UNL     1      30.127   9.488  49.275  1.00  0.00    -0.246 NA
HETATM   14  C2  UNL     1      30.543   8.321  48.759  1.00  0.00     0.041 A 
HETATM   15  C1  UNL     1      32.003   8.011  48.555  1.00  0.00     0.071 C 
HETATM   16  C18 UNL     1      29.585   7.381  48.420  1.00  0.00     0.008 A 
HETATM   17  C19 UNL     1      30.095   6.094  47.848  1.00  0.00     0.054 C 
ENDBRANCH   8  10
ENDBRANCH   1   8
BRANCH   4  18
HETATM   18  O1  UNL     1      24.532   2.897  51.220  1.00  0.00    -0.345 OA
BRANCH  18  19
HETATM   19  C9  UNL     1      24.975   1.774  51.915  1.00  0.00     0.214 C 
BRANCH  19  20
HETATM   20  C10 UNL     1      23.782   0.957  52.279  1.00  0.00    -0.031 A 
HETATM   21  C11 UNL     1      23.950   0.150  53.415  1.00  0.00     0.009 A 
HETATM   22  C12 UNL     1      22.924  -0.672  53.879  1.00  0.00     0.004 A 
HETATM   23  C13 UNL     1      21.702  -0.695  53.205  1.00  0.00     0.042 A 
HETATM   24  C14 UNL     1      21.618   0.123  52.103  1.00  0.00     0.117 A 
HETATM   25  F1  UNL     1      20.410   0.078  51.469  1.00  0.00    -0.206 F 
HETATM   26  C15 UNL     1      22.579   0.941  51.608  1.00  0.00     0.051 A 
ENDBRANCH  19  20
ENDBRANCH  18  19
ENDBRANCH   4  18
TORSDOF 5
ENDMDL
MODEL 9
REMARK VINA RESULT:      -7.6      4.579      8.374
REMARK  5 active torsions:
REMARK  status: ('A' for Active; 'I' for Inactive)
REMARK    1  A    between atoms: C4_6  and  N3_7 
REMARK    2  A    between atoms: N3_7  and  C5_8 
REMARK    3  A    between atoms: C8_11  and  O1_12 
REMARK    4  A    between atoms: O1_12  and  C9_13 
REMARK    5  A    between atoms: C9_13  and  C10_14 
ROOT
HETATM    1  C5  UNL     1      22.676   2.846  51.745  1.00  0.00     0.035 A 
HETATM    2  C6  UNL     1      23.912   3.305  52.126  1.00  0.00     0.032 A 
HETATM    3  C7  UNL     1      24.745   2.466  52.828  1.00  0.00     0.041 A 
HETATM    4  C8  UNL     1      24.332   1.184  53.139  1.00  0.00     0.091 A 
HETATM    5  C16 UNL     1      23.065   0.736  52.740  1.00  0.00     0.069 A 
HETATM    6 CL1  UNL     1      22.448  -0.882  53.088  1.00  0.00    -0.081 Cl
HETATM    7  C17 UNL     1      22.218   1.583  52.028  1.00  0.00     0.056 A 
ENDROOT
BRANCH   1   8
HETATM    8  N3  UNL     1      21.786   3.682  51.019  1.00  0.00    -0.340 N 
HETATM    9  H5  UNL     1      20.846   3.396  50.684  1.00  0.00     0.167 HD
BRANCH   8  10
HETATM   10  C4  UNL     1      21.897   5.024  50.576  1.00  0.00     0.137 A 
HETATM   11  N2  UNL     1      21.598   6.158  51.281  1.00  0.00    -0.224 NA
HETATM   12  C3  UNL     1      21.783   7.370  50.677  1.00  0.00     0.235 A 
HETATM   13  N1  UNL     1      22.252   7.484  49.400  1.00  0.00    -0.246 NA
HETATM   14  C2  UNL     1      22.556   6.393  48.678  1.00  0.00     0.041 A 
HETATM   15  C1  UNL     1      23.086   6.487  47.271  1.00  0.00     0.071 C 
HETATM   16  C18 UNL     1      22.378   5.153  49.267  1.00  0.00     0.008 A 
HETATM   17  C19 UNL     1      22.729   3.965  48.424  1.00  0.00     0.054 C 
ENDBRANCH   8  10
ENDBRANCH   1   8
BRANCH   4  18
HETATM   18  O1  UNL     1      25.030   0.203  53.834  1.00  0.00    -0.345 OA
BRANCH  18  19
HETATM   19  C9  UNL     1      25.800  -0.788  53.231  1.00  0.00     0.214 C 
BRANCH  19  20
HETATM   20  C10 UNL     1      27.236  -0.467  53.472  1.00  0.00    -0.031 A 
HETATM   21  C11 UNL     1      28.132  -1.480  53.102  1.00  0.00     0.009 A 
HETATM   22  C12 UNL     1      29.508  -1.329  53.266  1.00  0.00     0.004 A 
HETATM   23  C13 UNL     1      30.009  -0.144  53.808  1.00  0.00     0.042 A 
HETATM   24  C14 UNL     1      29.067   0.799  54.145  1.00  0.00     0.117 A 
HETATM   25  F1  UNL     1      29.591   1.945  54.671  1.00  0.00    -0.206 F 
HETATM   26  C15 UNL     1      27.721   0.706  54.008  1.00  0.00     0.051 A 
ENDBRANCH  19  20
ENDBRANCH  18  19
ENDBRANCH   4  18
TORSDOF 5
ENDMDL
