MODEL 1
REMARK VINA RESULT:      -9.9      0.000      0.000
REMARK  4 active torsions:
REMARK  status: ('A' for Active; 'I' for Inactive)
REMARK    1  A    between atoms: O1_2  and  C2_3 
REMARK    2  A    between atoms: N3_10  and  C7_11 
REMARK    3  A    between atoms: C11_15  and  N4_16 
REMARK       I    between atoms: N4_16  and  C12_17 
REMARK       I    between atoms: C12_17  and  N5_19 
REMARK    4  A    between atoms: N5_19  and  C13_20 
ROOT
HETATM    1  C7  UNL     1      25.121   6.342  49.113  1.00  0.00     0.038 A 
HETATM    2  C8  UNL     1      24.083   6.010  48.173  1.00  0.00     0.030 A 
HETATM    3  C9  UNL     1      23.422   4.840  48.426  1.00  0.00     0.004 A 
HETATM    4  C10 UNL     1      23.742   4.061  49.499  1.00  0.00     0.029 A 
HETATM    5  C11 UNL     1      24.709   4.322  50.419  1.00  0.00     0.038 A 
HETATM    6  C19 UNL     1      25.417   5.487  50.226  1.00  0.00     0.059 A 
ENDROOT
BRANCH   1   7
HETATM    7  N3  UNL     1      25.874   7.571  49.057  1.00  0.00    -0.328 N 
HETATM    8  C6  UNL     1      25.686   8.784  49.883  1.00  0.00     0.280 C 
HETATM    9  N2  UNL     1      26.543   9.856  49.613  1.00  0.00    -0.263 NA
HETATM   10  C5  UNL     1      27.788  10.274  49.458  1.00  0.00     0.229 C 
HETATM   11  N1  UNL     1      28.716   9.827  48.386  1.00  0.00    -0.242 NA
HETATM   12  C4  UNL     1      28.652   8.673  47.690  1.00  0.00     0.062 C 
HETATM   13  C3  UNL     1      30.039   8.159  47.980  1.00  0.00     0.064 C 
HETATM   14  C21 UNL     1      27.410   8.135  46.947  1.00  0.00     0.061 C 
HETATM   15  C2  UNL     1      30.274   6.823  48.091  1.00  0.00     0.051 C 
HETATM   16  C24 UNL     1      29.647   5.501  47.897  1.00  0.00     0.091 C 
HETATM   17  C23 UNL     1      28.277   5.309  48.427  1.00  0.00    -0.018 C 
HETATM   18  C22 UNL     1      27.168   6.024  48.606  1.00  0.00     0.026 C 
HETATM   19  C20 UNL     1      26.879   7.383  48.005  1.00  0.00     0.038 C 
BRANCH  15  20
HETATM   20  O1  UNL     1      31.606   6.891  48.558  1.00  0.00    -0.360 OA
HETATM   21  C1  UNL     1      31.866   5.999  49.652  1.00  0.00     0.209 C 
ENDBRANCH  15  20
ENDBRANCH   1   7
BRANCH   5  22
HETATM   22  N4  UNL     1      25.067   3.544  51.538  1.00  0.00    -0.309 N 
HETATM   23  C12 UNL     1      26.099   2.580  51.632  1.00  0.00     0.325 C 
HETATM   24  O2  UNL     1      26.808   2.354  50.625  1.00  0.00    -0.247 OA
HETATM   25  N5  UNL     1      26.382   1.854  52.788  1.00  0.00    -0.309 N 
HETATM   26  H12 UNL     1      25.757   2.081  53.606  1.00  0.00     0.170 HD
HETATM   27  H11 UNL     1      24.539   3.656  52.423  1.00  0.00     0.170 HD
BRANCH  25  28
HETATM   28  C13 UNL     1      27.369   0.876  53.016  1.00  0.00     0.036 A 
HETATM   29  C14 UNL     1      27.273  -0.479  52.844  1.00  0.00     0.029 A 
HETATM   30  C15 UNL     1      28.262  -1.401  53.079  1.00  0.00     0.002 A 
HETATM   31  C16 UNL     1      29.481  -0.962  53.532  1.00  0.00     0.000 A 
HETATM   32  C17 UNL     1      29.642   0.391  53.727  1.00  0.00     0.002 A 
HETATM   33  C18 UNL     1      28.614   1.266  53.473  1.00  0.00     0.029 A 
ENDBRANCH  25  28
ENDBRANCH   5  22
TORSDOF 4
ENDMDL
MODEL 2
REMARK VINA RESULT:      -9.1      1.837      2.442
REMARK  4 active torsions:
REMARK  status: ('A' for Active; 'I' for Inactive)
REMARK    1  A    between atoms: O1_2  and  C2_3 
REMARK    2  A    between atoms: N3_10  and  C7_11 
REMARK    3  A    between atoms: C11_15  and  N4_16 
REMARK       I    between atoms: N4_16  and  C12_17 
REMARK       I    between atoms: C12_17  and  N5_19 
REMARK    4  A    between atoms: N5_19  and  C13_20 
ROOT
HETATM    1  C7  UNL     1      26.249   7.688  48.597  1.00  0.00     0.038 A 
HETATM    2  C8  UNL     1      25.389   7.638  47.445  1.00  0.00     0.030 A 
HETATM    3  C9  UNL     1      24.262   6.878  47.593  1.00  0.00     0.004 A 
HETATM    4  C10 UNL     1      23.995   6.224  48.759  1.00  0.00     0.029 A 
HETATM    5  C11 UNL     1      24.767   6.233  49.879  1.00  0.00     0.038 A 
HETATM    6  C19 UNL     1      25.920   6.979  49.801  1.00  0.00     0.059 A 
ENDROOT
BRANCH   1   7
HETATM    7  N3  UNL     1      27.441   8.497  48.660  1.00  0.00    -0.328 N 
HETATM    8  C6  UNL     1      27.679   9.693  49.498  1.00  0.00     0.280 C 
HETATM    9  N2  UNL     1      28.923  10.314  49.354  1.00  0.00    -0.263 NA
HETATM   10  C5  UNL     1      30.239  10.181  49.345  1.00  0.00     0.229 C 
HETATM   11  N1  UNL     1      31.013   9.376  48.364  1.00  0.00    -0.242 NA
HETATM   12  C4  UNL     1      30.558   8.340  47.629  1.00  0.00     0.062 C 
HETATM   13  C3  UNL     1      31.572   7.306  48.048  1.00  0.00     0.064 C 
HETATM   14  C21 UNL     1      29.294   8.349  46.743  1.00  0.00     0.061 C 
HETATM   15  C2  UNL     1      31.225   5.993  48.141  1.00  0.00     0.051 C 
HETATM   16  C24 UNL     1      30.136   5.043  47.841  1.00  0.00     0.091 C 
HETATM   17  C23 UNL     1      28.759   5.438  48.216  1.00  0.00    -0.018 C 
HETATM   18  C22 UNL     1      28.028   6.548  48.300  1.00  0.00     0.026 C 
HETATM   19  C20 UNL     1      28.389   7.897  47.715  1.00  0.00     0.038 C 
BRANCH  15  20
HETATM   20  O1  UNL     1      32.408   5.515  48.748  1.00  0.00    -0.360 OA
HETATM   21  C1  UNL     1      33.400   5.098  47.799  1.00  0.00     0.209 C 
ENDBRANCH  15  20
ENDBRANCH   1   7
BRANCH   5  22
HETATM   22  N4  UNL     1      24.525   5.571  51.099  1.00  0.00    -0.309 N 
HETATM   23  C12 UNL     1      24.729   4.204  51.402  1.00  0.00     0.325 C 
HETATM   24  O2  UNL     1      25.177   3.448  50.510  1.00  0.00    -0.247 OA
HETATM   25  N5  UNL     1      24.458   3.634  52.645  1.00  0.00    -0.309 N 
HETATM   26  H12 UNL     1      24.083   4.312  53.359  1.00  0.00     0.170 HD
HETATM   27  H11 UNL     1      24.151   6.110  51.902  1.00  0.00     0.170 HD
BRANCH  25  28
HETATM   28  C13 UNL     1      24.614   2.302  53.076  1.00  0.00     0.036 A 
HETATM   29  C14 UNL     1      23.725   1.267  52.963  1.00  0.00     0.029 A 
HETATM   30  C15 UNL     1      23.916  -0.021  53.399  1.00  0.00     0.002 A 
HETATM   31  C16 UNL     1      25.100  -0.341  54.015  1.00  0.00     0.000 A 
HETATM   32  C17 UNL     1      26.037   0.657  54.160  1.00  0.00     0.002 A 
HETATM   33  C18 UNL     1      25.788   1.928  53.702  1.00  0.00     0.029 A 
ENDBRANCH  25  28
ENDBRANCH   5  22
TORSDOF 4
ENDMDL
MODEL 3
REMARK VINA RESULT:      -8.9      4.456      6.453
REMARK  4 active torsions:
REMARK  status: ('A' for Active; 'I' for Inactive)
REMARK    1  A    between atoms: O1_2  and  C2_3 
REMARK    2  A    between atoms: N3_10  and  C7_11 
REMARK    3  A    between atoms: C11_15  and  N4_16 
REMARK       I    between atoms: N4_16  and  C12_17 
REMARK       I    between atoms: C12_17  and  N5_19 
REMARK    4  A    between atoms: N5_19  and  C13_20 
ROOT
HETATM    1  C7  UNL     1      21.220   1.160  51.524  1.00  0.00     0.038 A 
HETATM    2  C8  UNL     1      20.050   1.268  52.354  1.00  0.00     0.030 A 
HETATM    3  C9  UNL     1      20.145   0.659  53.575  1.00  0.00     0.004 A 
HETATM    4  C10 UNL     1      21.278   0.002  53.955  1.00  0.00     0.029 A 
HETATM    5  C11 UNL     1      22.412  -0.134  53.216  1.00  0.00     0.038 A 
HETATM    6  C19 UNL     1      22.387   0.456  51.973  1.00  0.00     0.059 A 
ENDROOT
BRANCH   1   7
HETATM    7  N3  UNL     1      21.339   1.801  50.237  1.00  0.00    -0.328 N 
HETATM    8  C6  UNL     1      20.426   1.679  49.080  1.00  0.00     0.280 C 
HETATM    9  N2  UNL     1      20.781   2.393  47.931  1.00  0.00    -0.263 NA
HETATM   10  C5  UNL     1      21.130   3.557  47.408  1.00  0.00     0.229 C 
HETATM   11  N1  UNL     1      22.374   4.306  47.732  1.00  0.00    -0.242 NA
HETATM   12  C4  UNL     1      23.112   4.199  48.857  1.00  0.00     0.062 C 
HETATM   13  C3  UNL     1      23.102   5.649  49.268  1.00  0.00     0.064 C 
HETATM   14  C21 UNL     1      23.652   2.885  49.460  1.00  0.00     0.061 C 
HETATM   15  C2  UNL     1      23.111   5.996  50.585  1.00  0.00     0.051 C 
HETATM   16  C24 UNL     1      23.265   5.440  51.944  1.00  0.00     0.091 C 
HETATM   17  C23 UNL     1      22.513   4.206  52.268  1.00  0.00    -0.018 C 
HETATM   18  C22 UNL     1      22.099   3.100  51.654  1.00  0.00     0.026 C 
HETATM   19  C20 UNL     1      22.561   2.610  50.298  1.00  0.00     0.038 C 
BRANCH  15  20
HETATM   20  O1  UNL     1      22.883   7.381  50.430  1.00  0.00    -0.360 OA
HETATM   21  C1  UNL     1      24.094   8.138  50.280  1.00  0.00     0.209 C 
ENDBRANCH  15  20
ENDBRANCH   1   7
BRANCH   5  22
HETATM   22  N4  UNL     1      23.598  -0.804  53.573  1.00  0.00    -0.309 N 
HETATM   23  C12 UNL     1      24.927  -0.325  53.487  1.00  0.00     0.325 C 
HETATM   24  O2  UNL     1      25.125   0.830  53.045  1.00  0.00    -0.247 OA
HETATM   25  N5  UNL     1      26.047  -1.064  53.866  1.00  0.00    -0.309 N 
HETATM   26  H12 UNL     1      25.826  -2.028  54.230  1.00  0.00     0.170 HD
HETATM   27  H11 UNL     1      23.542  -1.768  53.950  1.00  0.00     0.170 HD
BRANCH  25  28
HETATM   28  C13 UNL     1      27.410  -0.712  53.833  1.00  0.00     0.036 A 
HETATM   29  C14 UNL     1      28.431  -1.345  53.178  1.00  0.00     0.029 A 
HETATM   30  C15 UNL     1      29.752  -0.968  53.172  1.00  0.00     0.002 A 
HETATM   31  C16 UNL     1      30.123   0.148  53.880  1.00  0.00     0.000 A 
HETATM   32  C17 UNL     1      29.142   0.830  54.561  1.00  0.00     0.002 A 
HETATM   33  C18 UNL     1      27.836   0.404  54.530  1.00  0.00     0.029 A 
ENDBRANCH  25  28
ENDBRANCH   5  22
TORSDOF 4
ENDMDL
MODEL 4
REMARK VINA RESULT:      -8.5      2.148      2.537
REMARK  4 active torsions:
REMARK  status: ('A' for Active; 'I' for Inactive)
REMARK    1  A    between atoms: O1_2  and  C2_3 
REMARK    2  A    between atoms: N3_10  and  C7_11 
REMARK    3  A    between atoms: C11_15  and  N4_16 
REMARK       I    between atoms: N4_16  and  C12_17 
REMARK       I    between atoms: C12_17  and  N5_19 
REMARK    4  A    between atoms: N5_19  and  C13_20 
ROOT
HETATM    1  C7  UNL     1      24.930   5.874  49.124  1.00  0.00     0.038 A 
HETATM    2  C8  UNL     1      23.826   5.784  48.205  1.00  0.00     0.030 A 
HETATM    3  C9  UNL     1      23.185   4.577  48.183  1.00  0.00     0.004 A 
HETATM    4  C10 UNL     1      23.582   3.546  48.983  1.00  0.00     0.029 A 
HETATM    5  C11 UNL     1      24.614   3.571  49.869  1.00  0.00     0.038 A 
HETATM    6  C19 UNL     1      25.306   4.758  49.944  1.00  0.00     0.059 A 
ENDROOT
BRANCH   1   7
HETATM    7  N3  UNL     1      25.678   7.087  49.346  1.00  0.00    -0.328 N 
HETATM    8  C6  UNL     1      25.446   8.114  50.385  1.00  0.00     0.280 C 
HETATM    9  N2  UNL     1      26.307   9.216  50.371  1.00  0.00    -0.263 NA
HETATM   10  C5  UNL     1      27.556   9.652  50.358  1.00  0.00     0.229 C 
HETATM   11  N1  UNL     1      28.534   9.422  49.262  1.00  0.00    -0.242 NA
HETATM   12  C4  UNL     1      28.508   8.428  48.350  1.00  0.00     0.062 C 
HETATM   13  C3  UNL     1      29.884   7.864  48.595  1.00  0.00     0.064 C 
HETATM   14  C21 UNL     1      27.304   8.052  47.460  1.00  0.00     0.061 C 
HETATM   15  C2  UNL     1      30.122   6.531  48.451  1.00  0.00     0.051 C 
HETATM   16  C24 UNL     1      29.511   5.275  47.972  1.00  0.00     0.091 C 
HETATM   17  C23 UNL     1      28.120   4.986  48.391  1.00  0.00    -0.018 C 
HETATM   18  C22 UNL     1      27.000   5.655  48.658  1.00  0.00     0.026 C 
HETATM   19  C20 UNL     1      26.730   7.107  48.324  1.00  0.00     0.038 C 
BRANCH  15  20
HETATM   20  O1  UNL     1      31.431   6.502  48.982  1.00  0.00    -0.360 OA
HETATM   21  C1  UNL     1      32.131   5.285  48.687  1.00  0.00     0.209 C 
ENDBRANCH  15  20
ENDBRANCH   1   7
BRANCH   5  22
HETATM   22  N4  UNL     1      25.053   2.530  50.710  1.00  0.00    -0.309 N 
HETATM   23  C12 UNL     1      24.304   1.821  51.679  1.00  0.00     0.325 C 
HETATM   24  O2  UNL     1      23.099   2.117  51.847  1.00  0.00    -0.247 OA
HETATM   25  N5  UNL     1      24.826   0.799  52.471  1.00  0.00    -0.309 N 
HETATM   26  H12 UNL     1      25.843   0.589  52.291  1.00  0.00     0.170 HD
HETATM   27  H11 UNL     1      26.037   2.210  50.649  1.00  0.00     0.170 HD
BRANCH  25  28
HETATM   28  C13 UNL     1      24.199   0.020  53.462  1.00  0.00     0.036 A 
HETATM   29  C14 UNL     1      22.880  -0.337  53.548  1.00  0.00     0.029 A 
HETATM   30  C15 UNL     1      22.306  -1.101  54.535  1.00  0.00     0.002 A 
HETATM   31  C16 UNL     1      23.100  -1.571  55.551  1.00  0.00     0.000 A 
HETATM   32  C17 UNL     1      24.437  -1.247  55.523  1.00  0.00     0.002 A 
HETATM   33  C18 UNL     1      24.953  -0.478  54.508  1.00  0.00     0.029 A 
ENDBRANCH  25  28
ENDBRANCH   5  22
TORSDOF 4
ENDMDL
MODEL 5
REMARK VINA RESULT:      -8.4      3.910      6.963
REMARK  4 active torsions:
REMARK  status: ('A' for Active; 'I' for Inactive)
REMARK    1  A    between atoms: O1_2  and  C2_3 
REMARK    2  A    between atoms: N3_10  and  C7_11 
REMARK    3  A    between atoms: C11_15  and  N4_16 
REMARK       I    between atoms: N4_16  and  C12_17 
REMARK       I    between atoms: C12_17  and  N5_19 
REMARK    4  A    between atoms: N5_19  and  C13_20 
ROOT
HETATM    1  C7  UNL     1      31.076   7.529  47.332  1.00  0.00     0.038 A 
HETATM    2  C8  UNL     1      30.665   7.955  46.021  1.00  0.00     0.030 A 
HETATM    3  C9  UNL     1      29.350   8.315  45.912  1.00  0.00     0.004 A 
HETATM    4  C10 UNL     1      28.509   8.265  46.985  1.00  0.00     0.029 A 
HETATM    5  C11 UNL     1      28.838   7.872  48.244  1.00  0.00     0.038 A 
HETATM    6  C19 UNL     1      30.149   7.495  48.427  1.00  0.00     0.059 A 
ENDROOT
BRANCH   1   7
HETATM    7  N3  UNL     1      32.438   7.186  47.661  1.00  0.00    -0.328 N 
HETATM    8  C6  UNL     1      33.321   7.841  48.651  1.00  0.00     0.280 C 
HETATM    9  N2  UNL     1      34.616   7.326  48.765  1.00  0.00    -0.263 NA
HETATM   10  C5  UNL     1      35.377   6.258  48.940  1.00  0.00     0.229 C 
HETATM   11  N1  UNL     1      35.466   5.105  48.005  1.00  0.00    -0.242 NA
HETATM   12  C4  UNL     1      34.540   4.722  47.102  1.00  0.00     0.062 C 
HETATM   13  C3  UNL     1      34.363   3.295  47.555  1.00  0.00     0.064 C 
HETATM   14  C21 UNL     1      33.884   5.632  46.042  1.00  0.00     0.061 C 
HETATM   15  C2  UNL     1      33.153   2.680  47.451  1.00  0.00     0.051 C 
HETATM   16  C24 UNL     1      31.798   2.843  46.889  1.00  0.00     0.091 C 
HETATM   17  C23 UNL     1      31.124   4.146  47.093  1.00  0.00    -0.018 C 
HETATM   18  C22 UNL     1      31.450   5.434  47.186  1.00  0.00     0.026 C 
HETATM   19  C20 UNL     1      32.785   6.042  46.811  1.00  0.00     0.038 C 
BRANCH  15  20
HETATM   20  O1  UNL     1      33.462   1.507  48.175  1.00  0.00    -0.360 OA
HETATM   21  C1  UNL     1      32.643   0.387  47.808  1.00  0.00     0.209 C 
ENDBRANCH  15  20
ENDBRANCH   1   7
BRANCH   5  22
HETATM   22  N4  UNL     1      28.000   7.806  49.374  1.00  0.00    -0.309 N 
HETATM   23  C12 UNL     1      26.646   7.398  49.430  1.00  0.00     0.325 C 
HETATM   24  O2  UNL     1      26.078   7.042  48.372  1.00  0.00    -0.247 OA
HETATM   25  N5  UNL     1      25.891   7.366  50.601  1.00  0.00    -0.309 N 
HETATM   26  H12 UNL     1      26.414   7.675  51.462  1.00  0.00     0.170 HD
HETATM   27  H11 UNL     1      28.375   8.081  50.301  1.00  0.00     0.170 HD
BRANCH  25  28
HETATM   28  C13 UNL     1      24.549   6.985  50.795  1.00  0.00     0.036 A 
HETATM   29  C14 UNL     1      23.421   7.743  50.628  1.00  0.00     0.029 A 
HETATM   30  C15 UNL     1      22.127   7.332  50.829  1.00  0.00     0.002 A 
HETATM   31  C16 UNL     1      21.899   6.042  51.239  1.00  0.00     0.000 A 
HETATM   32  C17 UNL     1      22.993   5.227  51.426  1.00  0.00     0.002 A 
HETATM   33  C18 UNL     1      24.266   5.696  51.208  1.00  0.00     0.029 A 
ENDBRANCH  25  28
ENDBRANCH   5  22
TORSDOF 4
ENDMDL
MODEL 6
REMARK VINA RESULT:      -8.4      5.662      8.219
REMARK  4 active torsions:
REMARK  status: ('A' for Active; 'I' for Inactive)
REMARK    1  A    between atoms: O1_2  and  C2_3 
REMARK    2  A    between atoms: N3_10  and  C7_11 
REMARK    3  A    between atoms: C11_15  and  N4_16 
REMARK       I    between atoms: N4_16  and  C12_17 
REMARK       I    between atoms: C12_17  and  N5_19 
REMARK    4  A    between atoms: N5_19  and  C13_20 
ROOT
HETATM    1  C7  UNL     1      23.453   2.798  52.029  1.00  0.00     0.038 A 
HETATM    2  C8  UNL     1      24.741   2.173  51.881  1.00  0.00     0.030 A 
HETATM    3  C9  UNL     1      24.844   0.920  52.417  1.00  0.00     0.004 A 
HETATM    4  C10 UNL     1      23.788   0.326  53.044  1.00  0.00     0.029 A 
HETATM    5  C11 UNL     1      22.551   0.865  53.215  1.00  0.00     0.038 A 
HETATM    6  C19 UNL     1      22.375   2.129  52.698  1.00  0.00     0.059 A 
ENDROOT
BRANCH   1   7
HETATM    7  N3  UNL     1      23.129   4.084  51.462  1.00  0.00    -0.328 N 
HETATM    8  C6  UNL     1      23.772   5.386  51.749  1.00  0.00     0.280 C 
HETATM    9  N2  UNL     1      23.251   6.496  51.077  1.00  0.00    -0.263 NA
HETATM   10  C5  UNL     1      22.905   7.034  49.919  1.00  0.00     0.229 C 
HETATM   11  N1  UNL     1      21.824   6.533  49.029  1.00  0.00    -0.242 NA
HETATM   12  C4  UNL     1      21.326   5.280  48.988  1.00  0.00     0.062 C 
HETATM   13  C3  UNL     1      21.546   5.000  47.524  1.00  0.00     0.064 C 
HETATM   14  C21 UNL     1      20.809   4.474  50.199  1.00  0.00     0.061 C 
HETATM   15  C2  UNL     1      21.838   3.741  47.095  1.00  0.00     0.051 C 
HETATM   16  C24 UNL     1      21.918   2.338  47.545  1.00  0.00     0.091 C 
HETATM   17  C23 UNL     1      22.611   2.067  48.826  1.00  0.00    -0.018 C 
HETATM   18  C22 UNL     1      22.792   2.658  50.005  1.00  0.00     0.026 C 
HETATM   19  C20 UNL     1      22.020   3.850  50.531  1.00  0.00     0.038 C 
BRANCH  15  20
HETATM   20  O1  UNL     1      22.148   4.053  45.752  1.00  0.00    -0.360 OA
HETATM   21  C1  UNL     1      21.034   3.887  44.864  1.00  0.00     0.209 C 
ENDBRANCH  15  20
ENDBRANCH   1   7
BRANCH   5  22
HETATM   22  N4  UNL     1      21.438   0.285  53.855  1.00  0.00    -0.309 N 
HETATM   23  C12 UNL     1      20.337  -0.373  53.257  1.00  0.00     0.325 C 
HETATM   24  O2  UNL     1      20.300  -0.478  52.010  1.00  0.00    -0.247 OA
HETATM   25  N5  UNL     1      19.274  -0.919  53.975  1.00  0.00    -0.309 N 
HETATM   26  H12 UNL     1      19.353  -0.804  55.020  1.00  0.00     0.170 HD
HETATM   27  H11 UNL     1      21.373   0.320  54.889  1.00  0.00     0.170 HD
BRANCH  25  28
HETATM   28  C13 UNL     1      18.128  -1.594  53.511  1.00  0.00     0.036 A 
HETATM   29  C14 UNL     1      17.808  -2.916  53.658  1.00  0.00     0.029 A 
HETATM   30  C15 UNL     1      16.676  -3.537  53.189  1.00  0.00     0.002 A 
HETATM   31  C16 UNL     1      15.752  -2.792  52.499  1.00  0.00     0.000 A 
HETATM   32  C17 UNL     1      16.016  -1.453  52.316  1.00  0.00     0.002 A 
HETATM   33  C18 UNL     1      17.167  -0.889  52.810  1.00  0.00     0.029 A 
ENDBRANCH  25  28
ENDBRANCH   5  22
TORSDOF 4
ENDMDL
MODEL 7
REMARK VINA RESULT:      -8.3      2.441      4.087
REMARK  4 active torsions:
REMARK  status: ('A' for Active; 'I' for Inactive)
REMARK    1  A    between atoms: O1_2  and  C2_3 
REMARK    2  A    between atoms: N3_10  and  C7_11 
REMARK    3  A    between atoms: C11_15  and  N4_16 
REMARK       I    between atoms: N4_16  and  C12_17 
REMARK       I    between atoms: C12_17  and  N5_19 
REMARK    4  A    between atoms: N5_19  and  C13_20 
ROOT
HETATM    1  C7  UNL     1      22.016   3.179  50.726  1.00  0.00     0.038 A 
HETATM    2  C8  UNL     1      21.028   2.351  50.085  1.00  0.00     0.030 A 
HETATM    3  C9  UNL     1      21.030   1.039  50.471  1.00  0.00     0.004 A 
HETATM    4  C10 UNL     1      21.916   0.572  51.398  1.00  0.00     0.029 A 
HETATM    5  C11 UNL     1      22.868   1.304  52.036  1.00  0.00     0.038 A 
HETATM    6  C19 UNL     1      22.924   2.636  51.696  1.00  0.00     0.059 A 
ENDROOT
BRANCH   1   7
HETATM    7  N3  UNL     1      22.118   4.601  50.508  1.00  0.00    -0.328 N 
HETATM    8  C6  UNL     1      21.510   5.683  51.313  1.00  0.00     0.280 C 
HETATM    9  N2  UNL     1      21.745   6.990  50.872  1.00  0.00    -0.263 NA
HETATM   10  C5  UNL     1      22.635   7.897  50.504  1.00  0.00     0.229 C 
HETATM   11  N1  UNL     1      23.517   7.798  49.311  1.00  0.00    -0.242 NA
HETATM   12  C4  UNL     1      23.892   6.670  48.673  1.00  0.00     0.062 C 
HETATM   13  C3  UNL     1      25.386   6.856  48.750  1.00  0.00     0.064 C 
HETATM   14  C21 UNL     1      22.943   5.566  48.160  1.00  0.00     0.061 C 
HETATM   15  C2  UNL     1      26.212   5.780  48.865  1.00  0.00     0.051 C 
HETATM   16  C24 UNL     1      26.231   4.305  48.820  1.00  0.00     0.091 C 
HETATM   17  C23 UNL     1      25.179   3.582  49.571  1.00  0.00    -0.018 C 
HETATM   18  C22 UNL     1      23.901   3.748  49.904  1.00  0.00     0.026 C 
HETATM   19  C20 UNL     1      22.952   4.770  49.314  1.00  0.00     0.038 C 
BRANCH  15  20
HETATM   20  O1  UNL     1      27.417   6.477  49.108  1.00  0.00    -0.360 OA
HETATM   21  C1  UNL     1      27.472   7.752  48.451  1.00  0.00     0.209 C 
ENDBRANCH  15  20
ENDBRANCH   1   7
BRANCH   5  22
HETATM   22  N4  UNL     1      23.798   0.859  52.996  1.00  0.00    -0.309 N 
HETATM   23  C12 UNL     1      25.169   0.564  52.808  1.00  0.00     0.325 C 
HETATM   24  O2  UNL     1      25.665   0.699  51.667  1.00  0.00    -0.247 OA
HETATM   25  N5  UNL     1      26.017   0.126  53.824  1.00  0.00    -0.309 N 
HETATM   26  H12 UNL     1      25.551   0.028  54.765  1.00  0.00     0.170 HD
HETATM   27  H11 UNL     1      23.486   0.714  53.975  1.00  0.00     0.170 HD
BRANCH  25  28
HETATM   28  C13 UNL     1      27.386  -0.200  53.774  1.00  0.00     0.036 A 
HETATM   29  C14 UNL     1      27.965  -1.358  53.331  1.00  0.00     0.029 A 
HETATM   30  C15 UNL     1      29.309  -1.636  53.299  1.00  0.00     0.002 A 
HETATM   31  C16 UNL     1      30.191  -0.686  53.749  1.00  0.00     0.000 A 
HETATM   32  C17 UNL     1      29.672   0.503  54.209  1.00  0.00     0.002 A 
HETATM   33  C18 UNL     1      28.316   0.723  54.216  1.00  0.00     0.029 A 
ENDBRANCH  25  28
ENDBRANCH   5  22
TORSDOF 4
ENDMDL
MODEL 8
REMARK VINA RESULT:      -8.3     22.001     25.157
REMARK  4 active torsions:
REMARK  status: ('A' for Active; 'I' for Inactive)
REMARK    1  A    between atoms: O1_2  and  C2_3 
REMARK    2  A    between atoms: N3_10  and  C7_11 
REMARK    3  A    between atoms: C11_15  and  N4_16 
REMARK       I    between atoms: N4_16  and  C12_17 
REMARK       I    between atoms: C12_17  and  N5_19 
REMARK    4  A    between atoms: N5_19  and  C13_20 
ROOT
HETATM    1  C7  UNL     1      42.998  -0.388  69.478  1.00  0.00     0.038 A 
HETATM    2  C8  UNL     1      43.191  -0.414  70.903  1.00  0.00     0.030 A 
HETATM    3  C9  UNL     1      44.048   0.534  71.392  1.00  0.00     0.004 A 
HETATM    4  C10 UNL     1      44.664   1.427  70.566  1.00  0.00     0.029 A 
HETATM    5  C11 UNL     1      44.522   1.500  69.215  1.00  0.00     0.038 A 
HETATM    6  C19 UNL     1      43.672   0.575  68.654  1.00  0.00     0.059 A 
ENDROOT
BRANCH   1   7
HETATM    7  N3  UNL     1      42.075  -1.256  68.789  1.00  0.00    -0.328 N 
HETATM    8  C6  UNL     1      42.116  -2.732  68.703  1.00  0.00     0.280 C 
HETATM    9  N2  UNL     1      41.106  -3.338  67.949  1.00  0.00    -0.263 NA
HETATM   10  C5  UNL     1      39.809  -3.459  67.720  1.00  0.00     0.229 C 
HETATM   11  N1  UNL     1      38.917  -2.371  67.238  1.00  0.00    -0.242 NA
HETATM   12  C4  UNL     1      39.122  -1.043  67.363  1.00  0.00     0.062 C 
HETATM   13  C3  UNL     1      37.833  -0.683  68.058  1.00  0.00     0.064 C 
HETATM   14  C21 UNL     1      40.401  -0.285  66.950  1.00  0.00     0.061 C 
HETATM   15  C2  UNL     1      37.796   0.329  68.967  1.00  0.00     0.051 C 
HETATM   16  C24 UNL     1      38.599   1.434  69.527  1.00  0.00     0.091 C 
HETATM   17  C23 UNL     1      40.000   1.138  69.906  1.00  0.00    -0.018 C 
HETATM   18  C22 UNL     1      41.001   0.361  69.498  1.00  0.00     0.026 C 
HETATM   19  C20 UNL     1      41.071  -0.378  68.178  1.00  0.00     0.038 C 
BRANCH  15  20
HETATM   20  O1  UNL     1      36.486   0.116  69.451  1.00  0.00    -0.360 OA
HETATM   21  C1  UNL     1      36.393   0.199  70.880  1.00  0.00     0.209 C 
ENDBRANCH  15  20
ENDBRANCH   1   7
BRANCH   5  22
HETATM   22  N4  UNL     1      45.141   2.406  68.331  1.00  0.00    -0.309 N 
HETATM   23  C12 UNL     1      44.641   3.647  67.868  1.00  0.00     0.325 C 
HETATM   24  O2  UNL     1      43.518   4.031  68.263  1.00  0.00    -0.247 OA
HETATM   25  N5  UNL     1      45.328   4.482  66.987  1.00  0.00    -0.309 N 
HETATM   26  H12 UNL     1      46.268   4.113  66.685  1.00  0.00     0.170 HD
HETATM   27  H11 UNL     1      46.076   2.180  67.946  1.00  0.00     0.170 HD
BRANCH  25  28
HETATM   28  C13 UNL     1      44.951   5.729  66.453  1.00  0.00     0.036 A 
HETATM   29  C14 UNL     1      44.607   6.869  67.127  1.00  0.00     0.029 A 
HETATM   30  C15 UNL     1      44.245   8.069  66.566  1.00  0.00     0.002 A 
HETATM   31  C16 UNL     1      44.211   8.175  65.198  1.00  0.00     0.000 A 
HETATM   32  C17 UNL     1      44.547   7.062  64.461  1.00  0.00     0.002 A 
HETATM   33  C18 UNL     1      44.902   5.888  65.080  1.00  0.00     0.029 A 
ENDBRANCH  25  28
ENDBRANCH   5  22
TORSDOF 4
ENDMDL
MODEL 9
REMARK VINA RESULT:      -8.2      7.254     10.711
REMARK  4 active torsions:
REMARK  status: ('A' for Active; 'I' for Inactive)
REMARK    1  A    between atoms: O1_2  and  C2_3 
REMARK    2  A    between atoms: N3_10  and  C7_11 
REMARK    3  A    between atoms: C11_15  and  N4_16 
REMARK       I    between atoms: N4_16  and  C12_17 
REMARK       I    between atoms: C12_17  and  N5_19 
REMARK    4  A    between atoms: N5_19  and  C13_20 
ROOT
HETATM    1  C7  UNL     1      20.112   3.643  50.127  1.00  0.00     0.038 A 
HETATM    2  C8  UNL     1      20.076   3.080  48.803  1.00  0.00     0.030 A 
HETATM    3  C9  UNL     1      18.835   3.011  48.234  1.00  0.00     0.004 A 
HETATM    4  C10 UNL     1      17.725   3.450  48.894  1.00  0.00     0.029 A 
HETATM    5  C11 UNL     1      17.696   3.990  50.142  1.00  0.00     0.038 A 
HETATM    6  C19 UNL     1      18.913   4.091  50.776  1.00  0.00     0.059 A 
ENDROOT
BRANCH   1   7
HETATM    7  N3  UNL     1      21.335   3.870  50.857  1.00  0.00    -0.328 N 
HETATM    8  C6  UNL     1      21.754   5.104  51.557  1.00  0.00     0.280 C 
HETATM    9  N2  UNL     1      23.007   5.071  52.176  1.00  0.00    -0.263 NA
HETATM   10  C5  UNL     1      23.823   4.442  53.006  1.00  0.00     0.229 C 
HETATM   11  N1  UNL     1      24.371   3.075  52.798  1.00  0.00    -0.242 NA
HETATM   12  C4  UNL     1      23.844   2.101  52.028  1.00  0.00     0.062 C 
HETATM   13  C3  UNL     1      23.747   1.019  53.073  1.00  0.00     0.064 C 
HETATM   14  C21 UNL     1      23.430   2.244  50.548  1.00  0.00     0.061 C 
HETATM   15  C2  UNL     1      22.736   0.108  53.035  1.00  0.00     0.051 C 
HETATM   16  C24 UNL     1      21.619  -0.371  52.197  1.00  0.00     0.091 C 
HETATM   17  C23 UNL     1      20.731   0.648  51.591  1.00  0.00    -0.018 C 
HETATM   18  C22 UNL     1      20.817   1.885  51.107  1.00  0.00     0.026 C 
HETATM   19  C20 UNL     1      22.098   2.620  50.769  1.00  0.00     0.038 C 
BRANCH  15  20
HETATM   20  O1  UNL     1      22.969  -0.504  54.287  1.00  0.00    -0.360 OA
HETATM   21  C1  UNL     1      21.895  -1.358  54.706  1.00  0.00     0.209 C 
ENDBRANCH  15  20
ENDBRANCH   1   7
BRANCH   5  22
HETATM   22  N4  UNL     1      16.573   4.454  50.855  1.00  0.00    -0.309 N 
HETATM   23  C12 UNL     1      15.680   3.703  51.655  1.00  0.00     0.325 C 
HETATM   24  O2  UNL     1      15.867   2.471  51.775  1.00  0.00    -0.247 OA
HETATM   25  N5  UNL     1      14.588   4.251  52.326  1.00  0.00    -0.309 N 
HETATM   26  H12 UNL     1      14.475   5.290  52.192  1.00  0.00     0.170 HD
HETATM   27  H11 UNL     1      16.331   5.462  50.819  1.00  0.00     0.170 HD
BRANCH  25  28
HETATM   28  C13 UNL     1      13.630   3.624  53.147  1.00  0.00     0.036 A 
HETATM   29  C14 UNL     1      13.357   2.288  53.259  1.00  0.00     0.029 A 
HETATM   30  C15 UNL     1      12.411   1.716  54.074  1.00  0.00     0.002 A 
HETATM   31  C16 UNL     1      11.644   2.531  54.869  1.00  0.00     0.000 A 
HETATM   32  C17 UNL     1      11.870   3.887  54.802  1.00  0.00     0.002 A 
HETATM   33  C18 UNL     1      12.832   4.401  53.966  1.00  0.00     0.029 A 
ENDBRANCH  25  28
ENDBRANCH   5  22
TORSDOF 4
ENDMDL
