MODEL 1
REMARK VINA RESULT:      -8.9      0.000      0.000
REMARK  5 active torsions:
REMARK  status: ('A' for Active; 'I' for Inactive)
REMARK       I    between atoms: C2_2  and  N1_4 
REMARK    1  A    between atoms: C5_7  and  O2_8 
REMARK    2  A    between atoms: O2_8  and  C6_9 
REMARK    3  A    between atoms: C13_18  and  C14_19 
REMARK    4  A    between atoms: C14_19  and  C15_20 
REMARK    5  A    between atoms: C16_21  and  C18_23 
ROOT
HETATM    1  C6  UNL     1      21.821   0.585  51.885  1.00  0.00     0.084 A 
HETATM    2  C7  UNL     1      20.473   0.541  51.602  1.00  0.00     0.044 A 
HETATM    3  C8  UNL     1      19.501  -0.106  52.337  1.00  0.00    -0.057 A 
HETATM    4  C9  UNL     1      18.067  -0.097  51.948  1.00  0.00     0.048 C 
HETATM    5  C10 UNL     1      19.877  -0.789  53.476  1.00  0.00     0.039 A 
HETATM    6  C11 UNL     1      21.236  -0.779  53.814  1.00  0.00     0.073 A 
HETATM    7  N2  UNL     1      21.514  -1.454  54.930  1.00  0.00    -0.241 NA
HETATM    8  C12 UNL     1      22.779  -1.504  55.351  1.00  0.00     0.234 A 
HETATM    9  N3  UNL     1      23.703  -0.888  54.649  1.00  0.00    -0.245 NA
HETATM   10  C13 UNL     1      23.496  -0.179  53.496  1.00  0.00     0.054 A 
HETATM   11  C19 UNL     1      22.178  -0.106  53.028  1.00  0.00     0.051 A 
ENDROOT
BRANCH   1  12
HETATM   12  O2  UNL     1      22.788   1.215  51.179  1.00  0.00    -0.345 OA
BRANCH  12  13
HETATM   13  C5  UNL     1      22.733   2.511  50.633  1.00  0.00     0.132 C 
HETATM   14  C4  UNL     1      23.741   2.720  49.542  1.00  0.00     0.052 C 
HETATM   15  C3  UNL     1      25.057   3.230  50.036  1.00  0.00     0.128 C 
HETATM   16  N1  UNL     1      24.788   4.533  50.636  1.00  0.00    -0.352 N 
HETATM   17  C2  UNL     1      25.279   5.779  50.138  1.00  0.00     0.215 C 
HETATM   18  C21 UNL     1      23.964   4.410  51.791  1.00  0.00     0.128 C 
HETATM   19  C1  UNL     1      26.124   5.799  48.937  1.00  0.00     0.117 C 
HETATM   20  O1  UNL     1      24.966   6.845  50.759  1.00  0.00    -0.274 OA
HETATM   21  C20 UNL     1      22.758   3.571  51.693  1.00  0.00     0.052 C 
ENDBRANCH  12  13
ENDBRANCH   1  12
BRANCH  10  22
HETATM   22  C14 UNL     1      24.606   0.453  52.749  1.00  0.00     0.087 C 
BRANCH  22  23
HETATM   23  C15 UNL     1      25.745   0.828  53.625  1.00  0.00    -0.016 C 
HETATM   24  C16 UNL     1      26.902   0.115  53.623  1.00  0.00    -0.059 C 
HETATM   25  C17 UNL     1      26.975  -1.060  52.702  1.00  0.00     0.045 C 
BRANCH  24  26
HETATM   26  C18 UNL     1      28.108   0.398  54.455  1.00  0.00     0.256 C 
HETATM   27  F1  UNL     1      29.049  -0.604  54.366  1.00  0.00    -0.251 F 
ENDBRANCH  24  26
ENDBRANCH  22  23
ENDBRANCH  10  22
TORSDOF 5
ENDMDL
MODEL 2
REMARK VINA RESULT:      -8.7      2.914      5.526
REMARK  5 active torsions:
REMARK  status: ('A' for Active; 'I' for Inactive)
REMARK       I    between atoms: C2_2  and  N1_4 
REMARK    1  A    between atoms: C5_7  and  O2_8 
REMARK    2  A    between atoms: O2_8  and  C6_9 
REMARK    3  A    between atoms: C13_18  and  C14_19 
REMARK    4  A    between atoms: C14_19  and  C15_20 
REMARK    5  A    between atoms: C16_21  and  C18_23 
ROOT
HETATM    1  C6  UNL     1      22.971   0.841  53.030  1.00  0.00     0.084 A 
HETATM    2  C7  UNL     1      22.235  -0.228  53.491  1.00  0.00     0.044 A 
HETATM    3  C8  UNL     1      20.860  -0.306  53.567  1.00  0.00    -0.057 A 
HETATM    4  C9  UNL     1      20.155  -1.509  54.083  1.00  0.00     0.048 C 
HETATM    5  C10 UNL     1      20.112   0.775  53.148  1.00  0.00     0.039 A 
HETATM    6  C11 UNL     1      20.806   1.891  52.668  1.00  0.00     0.073 A 
HETATM    7  N2  UNL     1      20.010   2.888  52.276  1.00  0.00    -0.241 NA
HETATM    8  C12 UNL     1      20.567   4.001  51.793  1.00  0.00     0.234 A 
HETATM    9  N3  UNL     1      21.877   4.073  51.723  1.00  0.00    -0.245 NA
HETATM   10  C13 UNL     1      22.756   3.096  52.105  1.00  0.00     0.054 A 
HETATM   11  C19 UNL     1      22.204   1.914  52.616  1.00  0.00     0.051 A 
ENDROOT
BRANCH   1  12
HETATM   12  O2  UNL     1      24.318   0.936  52.946  1.00  0.00    -0.345 OA
BRANCH  12  13
HETATM   13  C5  UNL     1      25.268   0.277  53.749  1.00  0.00     0.132 C 
HETATM   14  C4  UNL     1      26.557   1.037  53.859  1.00  0.00     0.052 C 
HETATM   15  C3  UNL     1      27.548   0.685  52.795  1.00  0.00     0.128 C 
HETATM   16  N1  UNL     1      27.858  -0.729  52.982  1.00  0.00    -0.352 N 
HETATM   17  C2  UNL     1      29.135  -1.242  53.367  1.00  0.00     0.215 C 
HETATM   18  C21 UNL     1      26.719  -1.546  52.731  1.00  0.00     0.128 C 
HETATM   19  C1  UNL     1      30.249  -0.314  53.602  1.00  0.00     0.117 C 
HETATM   20  O1  UNL     1      29.269  -2.501  53.495  1.00  0.00    -0.274 OA
HETATM   21  C20 UNL     1      25.442  -1.159  53.353  1.00  0.00     0.052 C 
ENDBRANCH  12  13
ENDBRANCH   1  12
BRANCH  10  22
HETATM   22  C14 UNL     1      24.222   3.280  52.026  1.00  0.00     0.087 C 
BRANCH  22  23
HETATM   23  C15 UNL     1      24.615   4.325  51.046  1.00  0.00    -0.016 C 
HETATM   24  C16 UNL     1      25.657   4.137  50.193  1.00  0.00    -0.059 C 
HETATM   25  C17 UNL     1      26.386   2.835  50.287  1.00  0.00     0.045 C 
BRANCH  24  26
HETATM   26  C18 UNL     1      26.140   5.110  49.170  1.00  0.00     0.256 C 
HETATM   27  F1  UNL     1      27.186   4.608  48.427  1.00  0.00    -0.251 F 
ENDBRANCH  24  26
ENDBRANCH  22  23
ENDBRANCH  10  22
TORSDOF 5
ENDMDL
MODEL 3
REMARK VINA RESULT:      -8.7      3.115      5.513
REMARK  5 active torsions:
REMARK  status: ('A' for Active; 'I' for Inactive)
REMARK       I    between atoms: C2_2  and  N1_4 
REMARK    1  A    between atoms: C5_7  and  O2_8 
REMARK    2  A    between atoms: O2_8  and  C6_9 
REMARK    3  A    between atoms: C13_18  and  C14_19 
REMARK    4  A    between atoms: C14_19  and  C15_20 
REMARK    5  A    between atoms: C16_21  and  C18_23 
ROOT
HETATM    1  C6  UNL     1      23.252   1.275  52.086  1.00  0.00     0.084 A 
HETATM    2  C7  UNL     1      23.082   0.213  52.946  1.00  0.00     0.044 A 
HETATM    3  C8  UNL     1      21.947  -0.081  53.674  1.00  0.00    -0.057 A 
HETATM    4  C9  UNL     1      21.861  -1.255  54.581  1.00  0.00     0.048 C 
HETATM    5  C10 UNL     1      20.852   0.750  53.554  1.00  0.00     0.039 A 
HETATM    6  C11 UNL     1      20.966   1.847  52.692  1.00  0.00     0.073 A 
HETATM    7  N2  UNL     1      19.862   2.593  52.628  1.00  0.00    -0.241 NA
HETATM    8  C12 UNL     1      19.857   3.663  51.829  1.00  0.00     0.234 A 
HETATM    9  N3  UNL     1      20.940   3.940  51.139  1.00  0.00    -0.245 NA
HETATM   10  C13 UNL     1      22.107   3.225  51.154  1.00  0.00     0.054 A 
HETATM   11  C19 UNL     1      22.144   2.096  51.981  1.00  0.00     0.051 A 
ENDROOT
BRANCH   1  12
HETATM   12  O2  UNL     1      24.355   1.578  51.363  1.00  0.00    -0.345 OA
BRANCH  12  13
HETATM   13  C5  UNL     1      25.623   1.939  51.858  1.00  0.00     0.132 C 
HETATM   14  C4  UNL     1      26.698   0.977  51.445  1.00  0.00     0.052 C 
HETATM   15  C3  UNL     1      26.893  -0.148  52.411  1.00  0.00     0.128 C 
HETATM   16  N1  UNL     1      27.314   0.465  53.668  1.00  0.00    -0.352 N 
HETATM   17  C2  UNL     1      28.596   0.287  54.274  1.00  0.00     0.215 C 
HETATM   18  C21 UNL     1      26.280   1.272  54.222  1.00  0.00     0.128 C 
HETATM   19  C1  UNL     1      29.596  -0.569  53.622  1.00  0.00     0.117 C 
HETATM   20  O1  UNL     1      28.834   0.882  55.374  1.00  0.00    -0.274 OA
HETATM   21  C20 UNL     1      25.593   2.222  53.330  1.00  0.00     0.052 C 
ENDBRANCH  12  13
ENDBRANCH   1  12
BRANCH  10  22
HETATM   22  C14 UNL     1      23.292   3.635  50.369  1.00  0.00     0.087 C 
BRANCH  22  23
HETATM   23  C15 UNL     1      23.701   5.037  50.640  1.00  0.00    -0.016 C 
HETATM   24  C16 UNL     1      24.878   5.532  50.174  1.00  0.00    -0.059 C 
HETATM   25  C17 UNL     1      25.738   4.604  49.379  1.00  0.00     0.045 C 
BRANCH  24  26
HETATM   26  C18 UNL     1      25.391   6.918  50.381  1.00  0.00     0.256 C 
HETATM   27  F1  UNL     1      24.433   7.754  50.910  1.00  0.00    -0.251 F 
ENDBRANCH  24  26
ENDBRANCH  22  23
ENDBRANCH  10  22
TORSDOF 5
ENDMDL
MODEL 4
REMARK VINA RESULT:      -8.5      3.419      5.897
REMARK  5 active torsions:
REMARK  status: ('A' for Active; 'I' for Inactive)
REMARK       I    between atoms: C2_2  and  N1_4 
REMARK    1  A    between atoms: C5_7  and  O2_8 
REMARK    2  A    between atoms: O2_8  and  C6_9 
REMARK    3  A    between atoms: C13_18  and  C14_19 
REMARK    4  A    between atoms: C14_19  and  C15_20 
REMARK    5  A    between atoms: C16_21  and  C18_23 
ROOT
HETATM    1  C6  UNL     1      23.206   1.060  52.144  1.00  0.00     0.084 A 
HETATM    2  C7  UNL     1      23.100   0.086  53.113  1.00  0.00     0.044 A 
HETATM    3  C8  UNL     1      22.009  -0.148  53.925  1.00  0.00    -0.057 A 
HETATM    4  C9  UNL     1      21.991  -1.228  54.946  1.00  0.00     0.048 C 
HETATM    5  C10 UNL     1      20.895   0.653  53.783  1.00  0.00     0.039 A 
HETATM    6  C11 UNL     1      20.945   1.661  52.812  1.00  0.00     0.073 A 
HETATM    7  N2  UNL     1      19.827   2.384  52.734  1.00  0.00    -0.241 NA
HETATM    8  C12 UNL     1      19.762   3.369  51.836  1.00  0.00     0.234 A 
HETATM    9  N3  UNL     1      20.802   3.590  51.064  1.00  0.00    -0.245 NA
HETATM   10  C13 UNL     1      21.981   2.894  51.087  1.00  0.00     0.054 A 
HETATM   11  C19 UNL     1      22.081   1.852  52.018  1.00  0.00     0.051 A 
ENDROOT
BRANCH   1  12
HETATM   12  O2  UNL     1      24.265   1.302  51.337  1.00  0.00    -0.345 OA
BRANCH  12  13
HETATM   13  C5  UNL     1      25.568   1.664  51.730  1.00  0.00     0.132 C 
HETATM   14  C4  UNL     1      26.571   0.580  51.467  1.00  0.00     0.052 C 
HETATM   15  C3  UNL     1      26.734  -0.370  52.611  1.00  0.00     0.128 C 
HETATM   16  N1  UNL     1      27.234   0.425  53.730  1.00  0.00    -0.352 N 
HETATM   17  C2  UNL     1      28.523   0.275  54.327  1.00  0.00     0.215 C 
HETATM   18  C21 UNL     1      26.268   1.379  54.158  1.00  0.00     0.128 C 
HETATM   19  C1  UNL     1      29.449  -0.741  53.811  1.00  0.00     0.117 C 
HETATM   20  O1  UNL     1      28.833   1.037  55.299  1.00  0.00    -0.274 OA
HETATM   21  C20 UNL     1      25.606   2.200  53.130  1.00  0.00     0.052 C 
ENDBRANCH  12  13
ENDBRANCH   1  12
BRANCH  10  22
HETATM   22  C14 UNL     1      23.117   3.238  50.204  1.00  0.00     0.087 C 
BRANCH  22  23
HETATM   23  C15 UNL     1      22.701   4.032  49.019  1.00  0.00    -0.016 C 
HETATM   24  C16 UNL     1      22.378   3.430  47.844  1.00  0.00    -0.059 C 
HETATM   25  C17 UNL     1      22.461   1.938  47.800  1.00  0.00     0.045 C 
BRANCH  24  26
HETATM   26  C18 UNL     1      21.947   4.121  46.594  1.00  0.00     0.256 C 
HETATM   27  F1  UNL     1      22.225   3.380  45.467  1.00  0.00    -0.251 F 
ENDBRANCH  24  26
ENDBRANCH  22  23
ENDBRANCH  10  22
TORSDOF 5
ENDMDL
MODEL 5
REMARK VINA RESULT:      -8.5      2.929      6.361
REMARK  5 active torsions:
REMARK  status: ('A' for Active; 'I' for Inactive)
REMARK       I    between atoms: C2_2  and  N1_4 
REMARK    1  A    between atoms: C5_7  and  O2_8 
REMARK    2  A    between atoms: O2_8  and  C6_9 
REMARK    3  A    between atoms: C13_18  and  C14_19 
REMARK    4  A    between atoms: C14_19  and  C15_20 
REMARK    5  A    between atoms: C16_21  and  C18_23 
ROOT
HETATM    1  C6  UNL     1      24.139   3.236  50.436  1.00  0.00     0.084 A 
HETATM    2  C7  UNL     1      24.757   4.381  49.985  1.00  0.00     0.044 A 
HETATM    3  C8  UNL     1      24.351   5.173  48.931  1.00  0.00    -0.057 A 
HETATM    4  C9  UNL     1      25.090   6.395  48.518  1.00  0.00     0.048 C 
HETATM    5  C10 UNL     1      23.216   4.814  48.233  1.00  0.00     0.039 A 
HETATM    6  C11 UNL     1      22.545   3.657  48.647  1.00  0.00     0.073 A 
HETATM    7  N2  UNL     1      21.455   3.385  47.926  1.00  0.00    -0.241 NA
HETATM    8  C12 UNL     1      20.733   2.307  48.239  1.00  0.00     0.234 A 
HETATM    9  N3  UNL     1      21.122   1.555  49.243  1.00  0.00    -0.245 NA
HETATM   10  C13 UNL     1      22.225   1.769  50.025  1.00  0.00     0.054 A 
HETATM   11  C19 UNL     1      23.005   2.892  49.724  1.00  0.00     0.051 A 
ENDROOT
BRANCH   1  12
HETATM   12  O2  UNL     1      24.520   2.449  51.469  1.00  0.00    -0.345 OA
BRANCH  12  13
HETATM   13  C5  UNL     1      25.787   2.403  52.079  1.00  0.00     0.132 C 
HETATM   14  C4  UNL     1      26.692   1.383  51.454  1.00  0.00     0.052 C 
HETATM   15  C3  UNL     1      26.590   0.030  52.084  1.00  0.00     0.128 C 
HETATM   16  N1  UNL     1      27.015   0.197  53.471  1.00  0.00    -0.352 N 
HETATM   17  C2  UNL     1      28.185  -0.390  54.044  1.00  0.00     0.215 C 
HETATM   18  C21 UNL     1      26.109   1.026  54.193  1.00  0.00     0.128 C 
HETATM   19  C1  UNL     1      29.056  -1.232  53.214  1.00  0.00     0.117 C 
HETATM   20  O1  UNL     1      28.439  -0.162  55.270  1.00  0.00    -0.274 OA
HETATM   21  C20 UNL     1      25.690   2.294  53.572  1.00  0.00     0.052 C 
ENDBRANCH  12  13
ENDBRANCH   1  12
BRANCH  10  22
HETATM   22  C14 UNL     1      22.610   0.844  51.115  1.00  0.00     0.087 C 
BRANCH  22  23
HETATM   23  C15 UNL     1      21.437   0.317  51.858  1.00  0.00    -0.016 C 
HETATM   24  C16 UNL     1      21.588  -0.351  53.032  1.00  0.00    -0.059 C 
HETATM   25  C17 UNL     1      22.983  -0.530  53.538  1.00  0.00     0.045 C 
BRANCH  24  26
HETATM   26  C18 UNL     1      20.488  -0.922  53.864  1.00  0.00     0.256 C 
HETATM   27  F1  UNL     1      20.928  -1.940  54.681  1.00  0.00    -0.251 F 
ENDBRANCH  24  26
ENDBRANCH  22  23
ENDBRANCH  10  22
TORSDOF 5
ENDMDL
MODEL 6
REMARK VINA RESULT:      -8.2      2.585      5.341
REMARK  5 active torsions:
REMARK  status: ('A' for Active; 'I' for Inactive)
REMARK       I    between atoms: C2_2  and  N1_4 
REMARK    1  A    between atoms: C5_7  and  O2_8 
REMARK    2  A    between atoms: O2_8  and  C6_9 
REMARK    3  A    between atoms: C13_18  and  C14_19 
REMARK    4  A    between atoms: C14_19  and  C15_20 
REMARK    5  A    between atoms: C16_21  and  C18_23 
ROOT
HETATM    1  C6  UNL     1      25.652   1.263  52.583  1.00  0.00     0.084 A 
HETATM    2  C7  UNL     1      26.975   1.507  52.878  1.00  0.00     0.044 A 
HETATM    3  C8  UNL     1      27.692   0.977  53.931  1.00  0.00    -0.057 A 
HETATM    4  C9  UNL     1      29.123   1.303  54.167  1.00  0.00     0.048 C 
HETATM    5  C10 UNL     1      27.055   0.113  54.797  1.00  0.00     0.039 A 
HETATM    6  C11 UNL     1      25.707  -0.173  54.547  1.00  0.00     0.073 A 
HETATM    7  N2  UNL     1      25.169  -1.021  55.424  1.00  0.00    -0.241 NA
HETATM    8  C12 UNL     1      23.889  -1.370  55.276  1.00  0.00     0.234 A 
HETATM    9  N3  UNL     1      23.208  -0.863  54.273  1.00  0.00    -0.245 NA
HETATM   10  C13 UNL     1      23.690   0.011  53.337  1.00  0.00     0.054 A 
HETATM   11  C19 UNL     1      25.031   0.396  53.463  1.00  0.00     0.051 A 
ENDROOT
BRANCH   1  12
HETATM   12  O2  UNL     1      24.933   1.771  51.555  1.00  0.00    -0.345 OA
BRANCH  12  13
HETATM   13  C5  UNL     1      24.942   3.098  51.086  1.00  0.00     0.132 C 
HETATM   14  C4  UNL     1      24.110   4.014  51.932  1.00  0.00     0.052 C 
HETATM   15  C3  UNL     1      22.684   4.106  51.487  1.00  0.00     0.128 C 
HETATM   16  N1  UNL     1      22.716   4.667  50.140  1.00  0.00    -0.352 N 
HETATM   17  C2  UNL     1      22.186   5.942  49.772  1.00  0.00     0.215 C 
HETATM   18  C21 UNL     1      23.347   3.777  49.225  1.00  0.00     0.128 C 
HETATM   19  C1  UNL     1      21.552   6.786  50.792  1.00  0.00     0.117 C 
HETATM   20  O1  UNL     1      22.281   6.310  48.557  1.00  0.00    -0.274 OA
HETATM   21  C20 UNL     1      24.634   3.178  49.620  1.00  0.00     0.052 C 
ENDBRANCH  12  13
ENDBRANCH   1  12
BRANCH  10  22
HETATM   22  C14 UNL     1      22.837   0.562  52.260  1.00  0.00     0.087 C 
BRANCH  22  23
HETATM   23  C15 UNL     1      21.395   0.274  52.469  1.00  0.00    -0.016 C 
HETATM   24  C16 UNL     1      20.494   0.414  51.460  1.00  0.00    -0.059 C 
HETATM   25  C17 UNL     1      21.020   0.868  50.137  1.00  0.00     0.045 C 
BRANCH  24  26
HETATM   26  C18 UNL     1      19.027   0.153  51.552  1.00  0.00     0.256 C 
HETATM   27  F1  UNL     1      18.736  -0.895  52.396  1.00  0.00    -0.251 F 
ENDBRANCH  24  26
ENDBRANCH  22  23
ENDBRANCH  10  22
TORSDOF 5
ENDMDL
MODEL 7
REMARK VINA RESULT:      -8.1      3.128      5.155
REMARK  5 active torsions:
REMARK  status: ('A' for Active; 'I' for Inactive)
REMARK       I    between atoms: C2_2  and  N1_4 
REMARK    1  A    between atoms: C5_7  and  O2_8 
REMARK    2  A    between atoms: O2_8  and  C6_9 
REMARK    3  A    between atoms: C13_18  and  C14_19 
REMARK    4  A    between atoms: C14_19  and  C15_20 
REMARK    5  A    between atoms: C16_21  and  C18_23 
ROOT
HETATM    1  C6  UNL     1      24.155   0.886  52.374  1.00  0.00     0.084 A 
HETATM    2  C7  UNL     1      23.539   0.042  53.272  1.00  0.00     0.044 A 
HETATM    3  C8  UNL     1      24.124  -0.562  54.365  1.00  0.00    -0.057 A 
HETATM    4  C9  UNL     1      23.373  -1.462  55.279  1.00  0.00     0.048 C 
HETATM    5  C10 UNL     1      25.459  -0.321  54.618  1.00  0.00     0.039 A 
HETATM    6  C11 UNL     1      26.138   0.530  53.738  1.00  0.00     0.073 A 
HETATM    7  N2  UNL     1      27.420   0.717  54.057  1.00  0.00    -0.241 NA
HETATM    8  C12 UNL     1      28.162   1.518  53.289  1.00  0.00     0.234 A 
HETATM    9  N3  UNL     1      27.601   2.091  52.248  1.00  0.00    -0.245 NA
HETATM   10  C13 UNL     1      26.297   1.947  51.858  1.00  0.00     0.054 A 
HETATM   11  C19 UNL     1      25.491   1.114  52.644  1.00  0.00     0.051 A 
ENDROOT
BRANCH   1  12
HETATM   12  O2  UNL     1      23.597   1.490  51.299  1.00  0.00    -0.345 OA
BRANCH  12  13
HETATM   13  C5  UNL     1      22.226   1.682  51.048  1.00  0.00     0.132 C 
HETATM   14  C4  UNL     1      21.834   1.292  49.654  1.00  0.00     0.052 C 
HETATM   15  C3  UNL     1      21.938   2.414  48.670  1.00  0.00     0.128 C 
HETATM   16  N1  UNL     1      20.996   3.435  49.118  1.00  0.00    -0.352 N 
HETATM   17  C2  UNL     1      19.827   3.839  48.402  1.00  0.00     0.215 C 
HETATM   18  C21 UNL     1      21.387   3.985  50.372  1.00  0.00     0.128 C 
HETATM   19  C1  UNL     1      19.511   3.209  47.114  1.00  0.00     0.117 C 
HETATM   20  O1  UNL     1      19.089   4.743  48.909  1.00  0.00    -0.274 OA
HETATM   21  C20 UNL     1      21.766   3.053  51.447  1.00  0.00     0.052 C 
ENDBRANCH  12  13
ENDBRANCH   1  12
BRANCH  10  22
HETATM   22  C14 UNL     1      25.761   2.604  50.645  1.00  0.00     0.087 C 
BRANCH  22  23
HETATM   23  C15 UNL     1      26.760   3.476  49.977  1.00  0.00    -0.016 C 
HETATM   24  C16 UNL     1      26.380   4.580  49.280  1.00  0.00    -0.059 C 
HETATM   25  C17 UNL     1      24.916   4.874  49.219  1.00  0.00     0.045 C 
BRANCH  24  26
HETATM   26  C18 UNL     1      27.291   5.527  48.572  1.00  0.00     0.256 C 
HETATM   27  F1  UNL     1      28.452   4.917  48.152  1.00  0.00    -0.251 F 
ENDBRANCH  24  26
ENDBRANCH  22  23
ENDBRANCH  10  22
TORSDOF 5
ENDMDL
MODEL 8
REMARK VINA RESULT:      -8.1      2.407      4.999
REMARK  5 active torsions:
REMARK  status: ('A' for Active; 'I' for Inactive)
REMARK       I    between atoms: C2_2  and  N1_4 
REMARK    1  A    between atoms: C5_7  and  O2_8 
REMARK    2  A    between atoms: O2_8  and  C6_9 
REMARK    3  A    between atoms: C13_18  and  C14_19 
REMARK    4  A    between atoms: C14_19  and  C15_20 
REMARK    5  A    between atoms: C16_21  and  C18_23 
ROOT
HETATM    1  C6  UNL     1      24.063   0.593  52.416  1.00  0.00     0.084 A 
HETATM    2  C7  UNL     1      25.389   0.900  52.201  1.00  0.00     0.044 A 
HETATM    3  C8  UNL     1      26.454   0.541  53.001  1.00  0.00    -0.057 A 
HETATM    4  C9  UNL     1      27.855   0.922  52.684  1.00  0.00     0.048 C 
HETATM    5  C10 UNL     1      26.208  -0.200  54.139  1.00  0.00     0.039 A 
HETATM    6  C11 UNL     1      24.877  -0.542  54.409  1.00  0.00     0.073 A 
HETATM    7  N2  UNL     1      24.726  -1.263  55.521  1.00  0.00    -0.241 NA
HETATM    8  C12 UNL     1      23.498  -1.652  55.871  1.00  0.00     0.234 A 
HETATM    9  N3  UNL     1      22.485  -1.308  55.108  1.00  0.00    -0.245 NA
HETATM   10  C13 UNL     1      22.561  -0.570  53.957  1.00  0.00     0.054 A 
HETATM   11  C19 UNL     1      23.837  -0.148  53.561  1.00  0.00     0.051 A 
ENDROOT
BRANCH   1  12
HETATM   12  O2  UNL     1      23.006   0.933  51.643  1.00  0.00    -0.345 OA
BRANCH  12  13
HETATM   13  C5  UNL     1      22.603   2.232  51.278  1.00  0.00     0.132 C 
HETATM   14  C4  UNL     1      23.098   2.628  49.919  1.00  0.00     0.052 C 
HETATM   15  C3  UNL     1      24.436   3.295  49.943  1.00  0.00     0.128 C 
HETATM   16  N1  UNL     1      24.264   4.520  50.718  1.00  0.00    -0.352 N 
HETATM   17  C2  UNL     1      24.388   5.844  50.193  1.00  0.00     0.215 C 
HETATM   18  C21 UNL     1      23.954   4.232  52.077  1.00  0.00     0.128 C 
HETATM   19  C1  UNL     1      24.712   6.035  48.774  1.00  0.00     0.117 C 
HETATM   20  O1  UNL     1      24.211   6.827  50.982  1.00  0.00    -0.274 OA
HETATM   21  C20 UNL     1      22.903   3.237  52.350  1.00  0.00     0.052 C 
ENDBRANCH  12  13
ENDBRANCH   1  12
BRANCH  10  22
HETATM   22  C14 UNL     1      21.359  -0.197  53.180  1.00  0.00     0.087 C 
BRANCH  22  23
HETATM   23  C15 UNL     1      20.129  -0.872  53.668  1.00  0.00    -0.016 C 
HETATM   24  C16 UNL     1      18.952  -0.765  52.998  1.00  0.00    -0.059 C 
HETATM   25  C17 UNL     1      18.952   0.059  51.751  1.00  0.00     0.045 C 
BRANCH  24  26
HETATM   26  C18 UNL     1      17.658  -1.397  53.391  1.00  0.00     0.256 C 
HETATM   27  F1  UNL     1      17.842  -2.579  54.073  1.00  0.00    -0.251 F 
ENDBRANCH  24  26
ENDBRANCH  22  23
ENDBRANCH  10  22
TORSDOF 5
ENDMDL
MODEL 9
REMARK VINA RESULT:      -7.9      3.096      7.377
REMARK  5 active torsions:
REMARK  status: ('A' for Active; 'I' for Inactive)
REMARK       I    between atoms: C2_2  and  N1_4 
REMARK    1  A    between atoms: C5_7  and  O2_8 
REMARK    2  A    between atoms: O2_8  and  C6_9 
REMARK    3  A    between atoms: C13_18  and  C14_19 
REMARK    4  A    between atoms: C14_19  and  C15_20 
REMARK    5  A    between atoms: C16_21  and  C18_23 
ROOT
HETATM    1  C6  UNL     1      24.139   1.309  51.925  1.00  0.00     0.084 A 
HETATM    2  C7  UNL     1      24.923   0.488  52.706  1.00  0.00     0.044 A 
HETATM    3  C8  UNL     1      26.299   0.513  52.799  1.00  0.00    -0.057 A 
HETATM    4  C9  UNL     1      27.057  -0.419  53.673  1.00  0.00     0.048 C 
HETATM    5  C10 UNL     1      26.996   1.438  52.049  1.00  0.00     0.039 A 
HETATM    6  C11 UNL     1      26.252   2.300  51.235  1.00  0.00     0.073 A 
HETATM    7  N2  UNL     1      27.000   3.167  50.550  1.00  0.00    -0.241 NA
HETATM    8  C12 UNL     1      26.392   4.043  49.747  1.00  0.00     0.234 A 
HETATM    9  N3  UNL     1      25.082   4.017  49.660  1.00  0.00    -0.245 NA
HETATM   10  C13 UNL     1      24.250   3.159  50.328  1.00  0.00     0.054 A 
HETATM   11  C19 UNL     1      24.856   2.228  51.180  1.00  0.00     0.051 A 
ENDROOT
BRANCH   1  12
HETATM   12  O2  UNL     1      22.790   1.302  51.823  1.00  0.00    -0.345 OA
BRANCH  12  13
HETATM   13  C5  UNL     1      21.945   0.176  51.803  1.00  0.00     0.132 C 
HETATM   14  C4  UNL     1      20.784   0.343  50.869  1.00  0.00     0.052 C 
HETATM   15  C3  UNL     1      19.581   0.952  51.517  1.00  0.00     0.128 C 
HETATM   16  N1  UNL     1      19.169   0.020  52.562  1.00  0.00    -0.352 N 
HETATM   17  C2  UNL     1      17.941  -0.711  52.568  1.00  0.00     0.215 C 
HETATM   18  C21 UNL     1      20.152  -0.074  53.588  1.00  0.00     0.128 C 
HETATM   19  C1  UNL     1      16.991  -0.544  51.461  1.00  0.00     0.117 C 
HETATM   20  O1  UNL     1      17.706  -1.493  53.544  1.00  0.00    -0.274 OA
HETATM   21  C20 UNL     1      21.556  -0.260  53.184  1.00  0.00     0.052 C 
ENDBRANCH  12  13
ENDBRANCH   1  12
BRANCH  10  22
HETATM   22  C14 UNL     1      22.783   3.177  50.139  1.00  0.00     0.087 C 
BRANCH  22  23
HETATM   23  C15 UNL     1      22.370   3.935  48.929  1.00  0.00    -0.016 C 
HETATM   24  C16 UNL     1      22.137   3.305  47.747  1.00  0.00    -0.059 C 
HETATM   25  C17 UNL     1      22.313   1.821  47.721  1.00  0.00     0.045 C 
BRANCH  24  26
HETATM   26  C18 UNL     1      21.719   3.959  46.473  1.00  0.00     0.256 C 
HETATM   27  F1  UNL     1      22.218   3.310  45.366  1.00  0.00    -0.251 F 
ENDBRANCH  24  26
ENDBRANCH  22  23
ENDBRANCH  10  22
TORSDOF 5
ENDMDL
