MODEL 1
REMARK VINA RESULT:      -8.5      0.000      0.000
REMARK  3 active torsions:
REMARK  status: ('A' for Active; 'I' for Inactive)
REMARK    1  A    between atoms: C5_6  and  S1_7 
REMARK    2  A    between atoms: S1_7  and  C6_10 
REMARK    3  A    between atoms: C6_10  and  C7_11 
ROOT
HETATM    1  S1  UNL     1      25.274   0.969  53.444  1.00  0.00     0.179 S 
HETATM    2  O2  UNL     1      25.386   0.033  54.610  1.00  0.00    -0.222 OA
HETATM    3  O3  UNL     1      25.461   2.363  53.991  1.00  0.00    -0.222 OA
ENDROOT
BRANCH   1   4
HETATM    4  C5  UNL     1      23.667   0.849  52.714  1.00  0.00     0.060 A 
HETATM    5  C4  UNL     1      22.686   0.213  53.447  1.00  0.00     0.033 A 
HETATM    6  C3  UNL     1      21.379   0.049  52.996  1.00  0.00    -0.021 A 
HETATM    7  C2  UNL     1      20.207  -0.612  53.665  1.00  0.00     0.144 A 
HETATM    8  C15 UNL     1      21.063   0.556  51.746  1.00  0.00     0.041 A 
HETATM    9  C1  UNL     1      19.144  -0.437  52.649  1.00  0.00     0.226 A 
HETATM   10  O1  UNL     1      17.949  -0.854  52.786  1.00  0.00    -0.273 OA
HETATM   11  N1  UNL     1      19.688   0.263  51.523  1.00  0.00    -0.326 N 
HETATM   12  H11 UNL     1      19.129   0.509  50.675  1.00  0.00     0.169 HD
HETATM   13  C14 UNL     1      22.044   1.194  51.012  1.00  0.00     0.031 A 
HETATM   14  C13 UNL     1      23.340   1.350  51.470  1.00  0.00     0.026 A 
ENDBRANCH   1   4
BRANCH   1  15
HETATM   15  C6  UNL     1      26.536   0.701  52.238  1.00  0.00     0.187 C 
BRANCH  15  16
HETATM   16  C7  UNL     1      27.713   0.001  52.762  1.00  0.00    -0.001 A 
HETATM   17  C8  UNL     1      28.691   0.820  53.308  1.00  0.00     0.043 A 
HETATM   18 CL1  UNL     1      28.675   2.568  53.426  1.00  0.00    -0.084 Cl
HETATM   19  C9  UNL     1      29.853   0.269  53.842  1.00  0.00     0.024 A 
HETATM   20  C10 UNL     1      30.044  -1.110  53.834  1.00  0.00     0.003 A 
HETATM   21  C11 UNL     1      29.075  -1.934  53.291  1.00  0.00     0.024 A 
HETATM   22  C12 UNL     1      27.945  -1.359  52.775  1.00  0.00     0.043 A 
HETATM   23 CL2  UNL     1      26.688  -2.363  52.078  1.00  0.00    -0.084 Cl
ENDBRANCH  15  16
ENDBRANCH   1  15
TORSDOF 3
ENDMDL
MODEL 2
REMARK VINA RESULT:      -8.4      0.108      1.943
REMARK  3 active torsions:
REMARK  status: ('A' for Active; 'I' for Inactive)
REMARK    1  A    between atoms: C5_6  and  S1_7 
REMARK    2  A    between atoms: S1_7  and  C6_10 
REMARK    3  A    between atoms: C6_10  and  C7_11 
ROOT
HETATM    1  S1  UNL     1      25.200   1.034  53.403  1.00  0.00     0.179 S 
HETATM    2  O2  UNL     1      25.309   0.145  54.605  1.00  0.00    -0.222 OA
HETATM    3  O3  UNL     1      25.382   2.449  53.894  1.00  0.00    -0.222 OA
ENDROOT
BRANCH   1   4
HETATM    4  C5  UNL     1      23.596   0.882  52.672  1.00  0.00     0.060 A 
HETATM    5  C4  UNL     1      22.619   0.253  53.417  1.00  0.00     0.033 A 
HETATM    6  C3  UNL     1      21.315   0.065  52.967  1.00  0.00    -0.021 A 
HETATM    7  C2  UNL     1      20.147  -0.591  53.649  1.00  0.00     0.144 A 
HETATM    8  C15 UNL     1      20.996   0.541  51.705  1.00  0.00     0.041 A 
HETATM    9  C1  UNL     1      19.086  -0.450  52.627  1.00  0.00     0.226 A 
HETATM   10  O1  UNL     1      17.894  -0.875  52.771  1.00  0.00    -0.273 OA
HETATM   11  N1  UNL     1      19.625   0.230  51.486  1.00  0.00    -0.326 N 
HETATM   12  H11 UNL     1      19.066   0.450  50.631  1.00  0.00     0.169 HD
HETATM   13  C14 UNL     1      21.974   1.171  50.959  1.00  0.00     0.031 A 
HETATM   14  C13 UNL     1      23.267   1.351  51.416  1.00  0.00     0.026 A 
ENDBRANCH   1   4
BRANCH   1  15
HETATM   15  C6  UNL     1      26.467   0.721  52.213  1.00  0.00     0.187 C 
BRANCH  15  16
HETATM   16  C7  UNL     1      27.695   0.166  52.791  1.00  0.00    -0.001 A 
HETATM   17  C8  UNL     1      27.793  -1.217  52.748  1.00  0.00     0.043 A 
HETATM   18 CL1  UNL     1      26.624  -2.351  52.099  1.00  0.00    -0.084 Cl
HETATM   19  C9  UNL     1      28.917  -1.859  53.261  1.00  0.00     0.024 A 
HETATM   20  C10 UNL     1      29.953  -1.119  53.822  1.00  0.00     0.003 A 
HETATM   21  C11 UNL     1      29.864   0.260  53.870  1.00  0.00     0.024 A 
HETATM   22  C12 UNL     1      28.745   0.859  53.356  1.00  0.00     0.043 A 
HETATM   23 CL2  UNL     1      28.587   2.605  53.393  1.00  0.00    -0.084 Cl
ENDBRANCH  15  16
ENDBRANCH   1  15
TORSDOF 3
ENDMDL
MODEL 3
REMARK VINA RESULT:      -8.2      1.614      2.378
REMARK  3 active torsions:
REMARK  status: ('A' for Active; 'I' for Inactive)
REMARK    1  A    between atoms: C5_6  and  S1_7 
REMARK    2  A    between atoms: S1_7  and  C6_10 
REMARK    3  A    between atoms: C6_10  and  C7_11 
ROOT
HETATM    1  S1  UNL     1      25.260   0.904  53.282  1.00  0.00     0.179 S 
HETATM    2  O2  UNL     1      25.275  -0.117  54.380  1.00  0.00    -0.222 OA
HETATM    3  O3  UNL     1      25.382   2.253  53.945  1.00  0.00    -0.222 OA
ENDROOT
BRANCH   1   4
HETATM    4  C5  UNL     1      23.726   0.834  52.402  1.00  0.00     0.060 A 
HETATM    5  C4  UNL     1      23.626   1.584  51.247  1.00  0.00     0.033 A 
HETATM    6  C3  UNL     1      22.480   1.622  50.457  1.00  0.00    -0.021 A 
HETATM    7  C2  UNL     1      22.214   2.377  49.185  1.00  0.00     0.144 A 
HETATM    8  C15 UNL     1      21.394   0.862  50.863  1.00  0.00     0.041 A 
HETATM    9  C1  UNL     1      20.821   1.973  48.883  1.00  0.00     0.226 A 
HETATM   10  O1  UNL     1      20.163   2.382  47.873  1.00  0.00    -0.273 OA
HETATM   11  N1  UNL     1      20.367   1.071  49.900  1.00  0.00    -0.326 N 
HETATM   12  H11 UNL     1      19.413   0.645  49.905  1.00  0.00     0.169 HD
HETATM   13  C14 UNL     1      21.495   0.112  52.018  1.00  0.00     0.031 A 
HETATM   14  C13 UNL     1      22.638   0.082  52.796  1.00  0.00     0.026 A 
ENDBRANCH   1   4
BRANCH   1  15
HETATM   15  C6  UNL     1      26.627   0.730  52.178  1.00  0.00     0.187 C 
BRANCH  15  16
HETATM   16  C7  UNL     1      27.765   0.009  52.758  1.00  0.00    -0.001 A 
HETATM   17  C8  UNL     1      28.727   0.811  53.357  1.00  0.00     0.043 A 
HETATM   18 CL1  UNL     1      28.732   2.559  53.482  1.00  0.00    -0.084 Cl
HETATM   19  C9  UNL     1      29.851   0.240  53.946  1.00  0.00     0.024 A 
HETATM   20  C10 UNL     1      30.021  -1.142  53.941  1.00  0.00     0.003 A 
HETATM   21  C11 UNL     1      29.068  -1.948  53.347  1.00  0.00     0.024 A 
HETATM   22  C12 UNL     1      27.975  -1.354  52.776  1.00  0.00     0.043 A 
HETATM   23 CL2  UNL     1      26.739  -2.335  52.011  1.00  0.00    -0.084 Cl
ENDBRANCH  15  16
ENDBRANCH   1  15
TORSDOF 3
ENDMDL
MODEL 4
REMARK VINA RESULT:      -7.9      4.072      6.881
REMARK  3 active torsions:
REMARK  status: ('A' for Active; 'I' for Inactive)
REMARK    1  A    between atoms: C5_6  and  S1_7 
REMARK    2  A    between atoms: S1_7  and  C6_10 
REMARK    3  A    between atoms: C6_10  and  C7_11 
ROOT
HETATM    1  S1  UNL     1      23.736   2.600  52.230  1.00  0.00     0.179 S 
HETATM    2  O2  UNL     1      23.703   4.000  52.765  1.00  0.00    -0.222 OA
HETATM    3  O3  UNL     1      22.487   1.917  52.730  1.00  0.00    -0.222 OA
ENDROOT
BRANCH   1   4
HETATM    4  C5  UNL     1      25.150   1.738  52.854  1.00  0.00     0.060 A 
HETATM    5  C4  UNL     1      25.363   0.456  52.390  1.00  0.00     0.033 A 
HETATM    6  C3  UNL     1      26.435  -0.336  52.794  1.00  0.00    -0.021 A 
HETATM    7  C2  UNL     1      26.805  -1.735  52.387  1.00  0.00     0.144 A 
HETATM    8  C15 UNL     1      27.324   0.206  53.709  1.00  0.00     0.041 A 
HETATM    9  C1  UNL     1      28.033  -1.963  53.183  1.00  0.00     0.226 A 
HETATM   10  O1  UNL     1      28.707  -3.042  53.160  1.00  0.00    -0.273 OA
HETATM   11  N1  UNL     1      28.313  -0.788  53.954  1.00  0.00    -0.326 N 
HETATM   12  H11 UNL     1      29.133  -0.705  54.596  1.00  0.00     0.169 HD
HETATM   13  C14 UNL     1      27.110   1.489  54.173  1.00  0.00     0.031 A 
HETATM   14  C13 UNL     1      26.041   2.266  53.765  1.00  0.00     0.026 A 
ENDBRANCH   1   4
BRANCH   1  15
HETATM   15  C6  UNL     1      23.695   2.550  50.465  1.00  0.00     0.187 C 
BRANCH  15  16
HETATM   16  C7  UNL     1      24.000   3.836  49.831  1.00  0.00    -0.001 A 
HETATM   17  C8  UNL     1      25.348   4.073  49.598  1.00  0.00     0.043 A 
HETATM   18 CL1  UNL     1      26.698   3.024  49.983  1.00  0.00    -0.084 Cl
HETATM   19  C9  UNL     1      25.760   5.258  48.995  1.00  0.00     0.024 A 
HETATM   20  C10 UNL     1      24.823   6.217  48.620  1.00  0.00     0.003 A 
HETATM   21  C11 UNL     1      23.479   5.990  48.849  1.00  0.00     0.024 A 
HETATM   22  C12 UNL     1      23.108   4.814  49.443  1.00  0.00     0.043 A 
HETATM   23 CL2  UNL     1      21.415   4.480  49.753  1.00  0.00    -0.084 Cl
ENDBRANCH  15  16
ENDBRANCH   1  15
TORSDOF 3
ENDMDL
MODEL 5
REMARK VINA RESULT:      -7.9      3.706      7.728
REMARK  3 active torsions:
REMARK  status: ('A' for Active; 'I' for Inactive)
REMARK    1  A    between atoms: C5_6  and  S1_7 
REMARK    2  A    between atoms: S1_7  and  C6_10 
REMARK    3  A    between atoms: C6_10  and  C7_11 
ROOT
HETATM    1  S1  UNL     1      21.194   1.986  51.954  1.00  0.00     0.179 S 
HETATM    2  O2  UNL     1      21.023   2.987  50.851  1.00  0.00    -0.222 OA
HETATM    3  O3  UNL     1      20.220   2.371  53.041  1.00  0.00    -0.222 OA
ENDROOT
BRANCH   1   4
HETATM    4  C5  UNL     1      22.838   2.062  52.603  1.00  0.00     0.060 A 
HETATM    5  C4  UNL     1      23.433   0.868  52.957  1.00  0.00     0.033 A 
HETATM    6  C3  UNL     1      24.721   0.780  53.479  1.00  0.00    -0.021 A 
HETATM    7  C2  UNL     1      25.504  -0.429  53.909  1.00  0.00     0.144 A 
HETATM    8  C15 UNL     1      25.429   1.960  53.643  1.00  0.00     0.041 A 
HETATM    9  C1  UNL     1      26.776   0.182  54.357  1.00  0.00     0.226 A 
HETATM   10  O1  UNL     1      27.762  -0.479  54.818  1.00  0.00    -0.273 OA
HETATM   11  N1  UNL     1      26.697   1.602  54.183  1.00  0.00    -0.326 N 
HETATM   12  H11 UNL     1      27.476   2.255  54.426  1.00  0.00     0.169 HD
HETATM   13  C14 UNL     1      24.834   3.154  53.287  1.00  0.00     0.031 A 
HETATM   14  C13 UNL     1      23.553   3.230  52.771  1.00  0.00     0.026 A 
ENDBRANCH   1   4
BRANCH   1  15
HETATM   15  C6  UNL     1      20.793   0.344  51.443  1.00  0.00     0.187 C 
BRANCH  15  16
HETATM   16  C7  UNL     1      19.507  -0.137  51.956  1.00  0.00    -0.001 A 
HETATM   17  C8  UNL     1      18.404   0.185  51.178  1.00  0.00     0.043 A 
HETATM   18 CL1  UNL     1      18.384   1.097  49.681  1.00  0.00    -0.084 Cl
HETATM   19  C9  UNL     1      17.129  -0.222  51.561  1.00  0.00     0.024 A 
HETATM   20  C10 UNL     1      16.949  -0.958  52.729  1.00  0.00     0.003 A 
HETATM   21  C11 UNL     1      18.041  -1.283  53.511  1.00  0.00     0.024 A 
HETATM   22  C12 UNL     1      19.281  -0.867  53.105  1.00  0.00     0.043 A 
HETATM   23 CL2  UNL     1      20.697  -1.256  54.063  1.00  0.00    -0.084 Cl
ENDBRANCH  15  16
ENDBRANCH   1  15
TORSDOF 3
ENDMDL
MODEL 6
REMARK VINA RESULT:      -7.8      4.409      6.892
REMARK  3 active torsions:
REMARK  status: ('A' for Active; 'I' for Inactive)
REMARK    1  A    between atoms: C5_6  and  S1_7 
REMARK    2  A    between atoms: S1_7  and  C6_10 
REMARK    3  A    between atoms: C6_10  and  C7_11 
ROOT
HETATM    1  S1  UNL     1      23.183   3.655  51.400  1.00  0.00     0.179 S 
HETATM    2  O2  UNL     1      23.581   4.955  52.030  1.00  0.00    -0.222 OA
HETATM    3  O3  UNL     1      21.680   3.565  51.507  1.00  0.00    -0.222 OA
ENDROOT
BRANCH   1   4
HETATM    4  C5  UNL     1      23.903   2.300  52.282  1.00  0.00     0.060 A 
HETATM    5  C4  UNL     1      25.215   2.438  52.689  1.00  0.00     0.033 A 
HETATM    6  C3  UNL     1      25.906   1.454  53.391  1.00  0.00    -0.021 A 
HETATM    7  C2  UNL     1      27.319   1.450  53.902  1.00  0.00     0.144 A 
HETATM    8  C15 UNL     1      25.227   0.283  53.690  1.00  0.00     0.041 A 
HETATM    9  C1  UNL     1      27.401   0.118  54.544  1.00  0.00     0.226 A 
HETATM   10  O1  UNL     1      28.443  -0.333  55.122  1.00  0.00    -0.273 OA
HETATM   11  N1  UNL     1      26.140  -0.547  54.401  1.00  0.00    -0.326 N 
HETATM   12  H11 UNL     1      25.949  -1.503  54.776  1.00  0.00     0.169 HD
HETATM   13  C14 UNL     1      23.915   0.145  53.283  1.00  0.00     0.031 A 
HETATM   14  C13 UNL     1      23.239   1.130  52.585  1.00  0.00     0.026 A 
ENDBRANCH   1   4
BRANCH   1  15
HETATM   15  C6  UNL     1      23.595   3.581  49.685  1.00  0.00     0.187 C 
BRANCH  15  16
HETATM   16  C7  UNL     1      24.381   4.726  49.217  1.00  0.00    -0.001 A 
HETATM   17  C8  UNL     1      25.756   4.536  49.214  1.00  0.00     0.043 A 
HETATM   18 CL1  UNL     1      26.636   3.105  49.713  1.00  0.00    -0.084 Cl
HETATM   19  C9  UNL     1      26.606   5.551  48.786  1.00  0.00     0.024 A 
HETATM   20  C10 UNL     1      26.085   6.768  48.353  1.00  0.00     0.003 A 
HETATM   21  C11 UNL     1      24.717   6.966  48.352  1.00  0.00     0.024 A 
HETATM   22  C12 UNL     1      23.909   5.947  48.781  1.00  0.00     0.043 A 
HETATM   23 CL2  UNL     1      22.168   6.151  48.796  1.00  0.00    -0.084 Cl
ENDBRANCH  15  16
ENDBRANCH   1  15
TORSDOF 3
ENDMDL
MODEL 7
REMARK VINA RESULT:      -7.8      4.354      6.839
REMARK  3 active torsions:
REMARK  status: ('A' for Active; 'I' for Inactive)
REMARK    1  A    between atoms: C5_6  and  S1_7 
REMARK    2  A    between atoms: S1_7  and  C6_10 
REMARK    3  A    between atoms: C6_10  and  C7_11 
ROOT
HETATM    1  S1  UNL     1      23.086   3.459  51.408  1.00  0.00     0.179 S 
HETATM    2  O2  UNL     1      23.443   4.774  52.032  1.00  0.00    -0.222 OA
HETATM    3  O3  UNL     1      21.587   3.324  51.514  1.00  0.00    -0.222 OA
ENDROOT
BRANCH   1   4
HETATM    4  C5  UNL     1      23.846   2.132  52.299  1.00  0.00     0.060 A 
HETATM    5  C4  UNL     1      25.150   2.316  52.715  1.00  0.00     0.033 A 
HETATM    6  C3  UNL     1      25.868   1.358  53.426  1.00  0.00    -0.021 A 
HETATM    7  C2  UNL     1      27.277   1.403  53.946  1.00  0.00     0.144 A 
HETATM    8  C15 UNL     1      25.229   0.164  53.722  1.00  0.00     0.041 A 
HETATM    9  C1  UNL     1      27.401   0.077  54.592  1.00  0.00     0.226 A 
HETATM   10  O1  UNL     1      28.452  -0.337  55.179  1.00  0.00    -0.273 OA
HETATM   11  N1  UNL     1      26.164  -0.631  54.442  1.00  0.00    -0.326 N 
HETATM   12  H11 UNL     1      26.003  -1.593  54.818  1.00  0.00     0.169 HD
HETATM   13  C14 UNL     1      23.925  -0.019  53.306  1.00  0.00     0.031 A 
HETATM   14  C13 UNL     1      23.220   0.940  52.600  1.00  0.00     0.026 A 
ENDBRANCH   1   4
BRANCH   1  15
HETATM   15  C6  UNL     1      23.504   3.387  49.694  1.00  0.00     0.187 C 
BRANCH  15  16
HETATM   16  C7  UNL     1      24.356   4.494  49.248  1.00  0.00    -0.001 A 
HETATM   17  C8  UNL     1      23.676   5.613  48.788  1.00  0.00     0.043 A 
HETATM   18 CL1  UNL     1      21.941   5.835  48.676  1.00  0.00    -0.084 Cl
HETATM   19  C9  UNL     1      24.377   6.730  48.343  1.00  0.00     0.024 A 
HETATM   20  C10 UNL     1      25.770   6.735  48.356  1.00  0.00     0.003 A 
HETATM   21  C11 UNL     1      26.456   5.625  48.812  1.00  0.00     0.024 A 
HETATM   22  C12 UNL     1      25.735   4.544  49.242  1.00  0.00     0.043 A 
HETATM   23 CL2  UNL     1      26.561   3.113  49.830  1.00  0.00    -0.084 Cl
ENDBRANCH  15  16
ENDBRANCH   1  15
TORSDOF 3
ENDMDL
MODEL 8
REMARK VINA RESULT:      -7.8      3.780      7.666
REMARK  3 active torsions:
REMARK  status: ('A' for Active; 'I' for Inactive)
REMARK    1  A    between atoms: C5_6  and  S1_7 
REMARK    2  A    between atoms: S1_7  and  C6_10 
REMARK    3  A    between atoms: C6_10  and  C7_11 
ROOT
HETATM    1  S1  UNL     1      21.564   1.414  51.424  1.00  0.00     0.179 S 
HETATM    2  O2  UNL     1      21.545   0.058  50.785  1.00  0.00    -0.222 OA
HETATM    3  O3  UNL     1      21.463   2.420  50.303  1.00  0.00    -0.222 OA
ENDROOT
BRANCH   1   4
HETATM    4  C5  UNL     1      23.090   1.664  52.284  1.00  0.00     0.060 A 
HETATM    5  C4  UNL     1      23.794   0.539  52.661  1.00  0.00     0.033 A 
HETATM    6  C3  UNL     1      25.008   0.588  53.342  1.00  0.00    -0.021 A 
HETATM    7  C2  UNL     1      25.890  -0.532  53.818  1.00  0.00     0.144 A 
HETATM    8  C15 UNL     1      25.522   1.838  53.649  1.00  0.00     0.041 A 
HETATM    9  C1  UNL     1      27.001   0.212  54.454  1.00  0.00     0.226 A 
HETATM   10  O1  UNL     1      28.004  -0.342  55.011  1.00  0.00    -0.273 OA
HETATM   11  N1  UNL     1      26.750   1.617  54.333  1.00  0.00    -0.326 N 
HETATM   12  H11 UNL     1      27.396   2.350  54.704  1.00  0.00     0.169 HD
HETATM   13  C14 UNL     1      24.817   2.964  53.271  1.00  0.00     0.031 A 
HETATM   14  C13 UNL     1      23.612   2.903  52.595  1.00  0.00     0.026 A 
ENDBRANCH   1   4
BRANCH   1  15
HETATM   15  C6  UNL     1      20.186   1.676  52.496  1.00  0.00     0.187 C 
BRANCH  15  16
HETATM   16  C7  UNL     1      19.256   0.544  52.549  1.00  0.00    -0.001 A 
HETATM   17  C8  UNL     1      19.572  -0.435  53.480  1.00  0.00     0.043 A 
HETATM   18 CL1  UNL     1      20.945  -0.468  54.570  1.00  0.00    -0.084 Cl
HETATM   19  C9  UNL     1      18.760  -1.556  53.626  1.00  0.00     0.024 A 
HETATM   20  C10 UNL     1      17.621  -1.705  52.840  1.00  0.00     0.003 A 
HETATM   21  C11 UNL     1      17.298  -0.735  51.910  1.00  0.00     0.024 A 
HETATM   22  C12 UNL     1      18.119   0.354  51.792  1.00  0.00     0.043 A 
HETATM   23 CL2  UNL     1      17.749   1.612  50.626  1.00  0.00    -0.084 Cl
ENDBRANCH  15  16
ENDBRANCH   1  15
TORSDOF 3
ENDMDL
MODEL 9
REMARK VINA RESULT:      -7.7      4.463      7.085
REMARK  3 active torsions:
REMARK  status: ('A' for Active; 'I' for Inactive)
REMARK    1  A    between atoms: C5_6  and  S1_7 
REMARK    2  A    between atoms: S1_7  and  C6_10 
REMARK    3  A    between atoms: C6_10  and  C7_11 
ROOT
HETATM    1  S1  UNL     1      21.875   2.975  51.116  1.00  0.00     0.179 S 
HETATM    2  O2  UNL     1      20.666   3.365  50.320  1.00  0.00    -0.222 OA
HETATM    3  O3  UNL     1      21.522   3.187  52.568  1.00  0.00    -0.222 OA
ENDROOT
BRANCH   1   4
HETATM    4  C5  UNL     1      23.244   4.016  50.701  1.00  0.00     0.060 A 
HETATM    5  C4  UNL     1      24.337   3.416  50.108  1.00  0.00     0.033 A 
HETATM    6  C3  UNL     1      25.481   4.113  49.728  1.00  0.00    -0.021 A 
HETATM    7  C2  UNL     1      26.740   3.613  49.078  1.00  0.00     0.144 A 
HETATM    8  C15 UNL     1      25.508   5.479  49.964  1.00  0.00     0.041 A 
HETATM    9  C1  UNL     1      27.530   4.860  48.958  1.00  0.00     0.226 A 
HETATM   10  O1  UNL     1      28.698   4.920  48.455  1.00  0.00    -0.273 OA
HETATM   11  N1  UNL     1      26.766   5.949  49.492  1.00  0.00    -0.326 N 
HETATM   12  H11 UNL     1      27.111   6.934  49.517  1.00  0.00     0.169 HD
HETATM   13  C14 UNL     1      24.415   6.079  50.557  1.00  0.00     0.031 A 
HETATM   14  C13 UNL     1      23.284   5.376  50.931  1.00  0.00     0.026 A 
ENDBRANCH   1   4
BRANCH   1  15
HETATM   15  C6  UNL     1      22.295   1.272  50.917  1.00  0.00     0.187 C 
BRANCH  15  16
HETATM   16  C7  UNL     1      22.102   0.470  52.129  1.00  0.00    -0.001 A 
HETATM   17  C8  UNL     1      23.246   0.268  52.889  1.00  0.00     0.043 A 
HETATM   18 CL1  UNL     1      24.866   0.847  52.554  1.00  0.00    -0.084 Cl
HETATM   19  C9  UNL     1      23.187  -0.473  54.066  1.00  0.00     0.024 A 
HETATM   20  C10 UNL     1      21.979  -1.017  54.493  1.00  0.00     0.003 A 
HETATM   21  C11 UNL     1      20.834  -0.821  53.742  1.00  0.00     0.024 A 
HETATM   22  C12 UNL     1      20.928  -0.088  52.590  1.00  0.00     0.043 A 
HETATM   23 CL2  UNL     1      19.504   0.190  51.605  1.00  0.00    -0.084 Cl
ENDBRANCH  15  16
ENDBRANCH   1  15
TORSDOF 3
ENDMDL
