MODEL 1
REMARK VINA RESULT:      -6.2      0.000      0.000
REMARK  8 active torsions:
REMARK  status: ('A' for Active; 'I' for Inactive)
REMARK    1  A    between atoms: C2_2  and  C3_3 
REMARK    2  A    between atoms: C4_4  and  O1_5 
REMARK    3  A    between atoms: C11_13  and  O2_14 
REMARK    4  A    between atoms: N2_15  and  C12_16 
REMARK    5  A    between atoms: C12_16  and  C14_18 
REMARK    6  A    between atoms: C15_19  and  C16_20 
REMARK    7  A    between atoms: C15_19  and  O4_23 
REMARK    8  A    between atoms: C16_20  and  O3_21 
ROOT
HETATM    1  C3  UNL     1      25.673   2.068  51.627  1.00  0.00     0.001 C 
HETATM    2  C4  UNL     1      26.119   1.051  52.323  1.00  0.00     0.076 C 
HETATM    3  C6  UNL     1      25.250   0.188  53.114  1.00  0.00     0.035 C 
HETATM    4  C7  UNL     1      23.971   0.521  53.096  1.00  0.00     0.003 C 
HETATM    5  C8  UNL     1      23.393   1.644  52.390  1.00  0.00     0.135 C 
HETATM    6  C9  UNL     1      24.286   2.365  51.411  1.00  0.00     0.169 C 
HETATM    7  N1  UNL     1      23.876   3.763  51.555  1.00  0.00    -0.289 NA
HETATM    8  C10 UNL     1      22.583   3.938  51.827  1.00  0.00     0.137 C 
HETATM    9  C11 UNL     1      21.496   2.891  52.004  1.00  0.00     0.258 C 
HETATM   10  N2  UNL     1      22.129   1.630  51.835  1.00  0.00    -0.366 N 
ENDROOT
BRANCH  10  11
HETATM   11  C12 UNL     1      21.530   0.608  51.166  1.00  0.00     0.104 C 
HETATM   12  C13 UNL     1      21.301   0.931  49.711  1.00  0.00     0.036 C 
BRANCH  11  13
HETATM   13  C14 UNL     1      20.153   0.345  51.730  1.00  0.00     0.032 C 
HETATM   14  C15 UNL     1      19.927  -0.417  52.818  1.00  0.00     0.067 C 
BRANCH  14  15
HETATM   15  C16 UNL     1      18.544  -0.632  53.318  1.00  0.00     0.231 C 
BRANCH  15  16
HETATM   16  O3  UNL     1      17.885  -1.694  52.771  1.00  0.00    -0.390 OA
HETATM   17  C17 UNL     1      17.660  -2.754  53.611  1.00  0.00     0.201 C 
ENDBRANCH  15  16
ENDBRANCH  14  15
BRANCH  14  18
HETATM   18  O4  UNL     1      21.074  -0.952  53.386  1.00  0.00    -0.358 OA
HETATM   19  C18 UNL     1      21.137  -1.566  54.643  1.00  0.00     0.209 C 
ENDBRANCH  14  18
ENDBRANCH  11  13
ENDBRANCH  10  11
BRANCH   9  20
HETATM   20  O2  UNL     1      20.428   3.150  51.198  1.00  0.00    -0.372 OA
HETATM   21  H13 UNL     1      20.527   3.967  50.635  1.00  0.00     0.212 HD
ENDBRANCH   9  20
BRANCH   1  22
HETATM   22  C2  UNL     1      26.663   2.859  50.913  1.00  0.00     0.002 C 
HETATM   23  C1  UNL     1      26.549   3.173  49.636  1.00  0.00     0.012 C 
ENDBRANCH   1  22
BRANCH   2  24
HETATM   24  O1  UNL     1      27.498   0.863  52.266  1.00  0.00    -0.355 OA
HETATM   25  C5  UNL     1      28.141   0.471  53.470  1.00  0.00     0.210 C 
ENDBRANCH   2  24
TORSDOF 8
ENDMDL
MODEL 2
REMARK VINA RESULT:      -6.2      2.386      4.161
REMARK  8 active torsions:
REMARK  status: ('A' for Active; 'I' for Inactive)
REMARK    1  A    between atoms: C2_2  and  C3_3 
REMARK    2  A    between atoms: C4_4  and  O1_5 
REMARK    3  A    between atoms: C11_13  and  O2_14 
REMARK    4  A    between atoms: N2_15  and  C12_16 
REMARK    5  A    between atoms: C12_16  and  C14_18 
REMARK    6  A    between atoms: C15_19  and  C16_20 
REMARK    7  A    between atoms: C15_19  and  O4_23 
REMARK    8  A    between atoms: C16_20  and  O3_21 
ROOT
HETATM    1  C3  UNL     1      25.328   2.151  51.642  1.00  0.00     0.001 C 
HETATM    2  C4  UNL     1      25.544   0.953  52.129  1.00  0.00     0.076 C 
HETATM    3  C6  UNL     1      24.509   0.166  52.789  1.00  0.00     0.035 C 
HETATM    4  C7  UNL     1      23.332   0.760  52.881  1.00  0.00     0.003 C 
HETATM    5  C8  UNL     1      23.010   2.089  52.408  1.00  0.00     0.135 C 
HETATM    6  C9  UNL     1      24.037   2.770  51.538  1.00  0.00     0.169 C 
HETATM    7  N1  UNL     1      23.938   4.173  51.944  1.00  0.00    -0.289 NA
HETATM    8  C10 UNL     1      22.714   4.567  52.293  1.00  0.00     0.137 C 
HETATM    9  C11 UNL     1      21.427   3.759  52.325  1.00  0.00     0.258 C 
HETATM   10  N2  UNL     1      21.772   2.445  51.911  1.00  0.00    -0.366 N 
ENDROOT
BRANCH  10  11
HETATM   11  C12 UNL     1      20.967   1.712  51.096  1.00  0.00     0.104 C 
HETATM   12  C13 UNL     1      20.806   0.291  51.576  1.00  0.00     0.036 C 
BRANCH  11  13
HETATM   13  C14 UNL     1      21.580   1.592  49.719  1.00  0.00     0.032 C 
HETATM   14  C15 UNL     1      21.244   2.384  48.683  1.00  0.00     0.067 C 
BRANCH  14  15
HETATM   15  C16 UNL     1      21.890   2.210  47.356  1.00  0.00     0.231 C 
BRANCH  15  16
HETATM   16  O3  UNL     1      22.319   3.361  46.762  1.00  0.00    -0.390 OA
HETATM   17  C17 UNL     1      21.662   3.721  45.614  1.00  0.00     0.201 C 
ENDBRANCH  15  16
ENDBRANCH  14  15
BRANCH  14  18
HETATM   18  O4  UNL     1      20.275   3.330  48.981  1.00  0.00    -0.358 OA
HETATM   19  C18 UNL     1      19.032   3.437  48.344  1.00  0.00     0.209 C 
ENDBRANCH  14  18
ENDBRANCH  11  13
ENDBRANCH  10  11
BRANCH   9  20
HETATM   20  O2  UNL     1      20.440   4.381  51.622  1.00  0.00    -0.372 OA
HETATM   21  H13 UNL     1      19.527   4.267  52.007  1.00  0.00     0.212 HD
ENDBRANCH   9  20
BRANCH   1  22
HETATM   22  C2  UNL     1      26.464   2.831  51.042  1.00  0.00     0.002 C 
HETATM   23  C1  UNL     1      26.501   3.187  49.771  1.00  0.00     0.012 C 
ENDBRANCH   1  22
BRANCH   2  24
HETATM   24  O1  UNL     1      26.849   0.491  51.984  1.00  0.00    -0.355 OA
HETATM   25  C5  UNL     1      27.200  -0.674  52.716  1.00  0.00     0.210 C 
ENDBRANCH   2  24
TORSDOF 8
ENDMDL
MODEL 3
REMARK VINA RESULT:      -6.0      2.625      6.259
REMARK  8 active torsions:
REMARK  status: ('A' for Active; 'I' for Inactive)
REMARK    1  A    between atoms: C2_2  and  C3_3 
REMARK    2  A    between atoms: C4_4  and  O1_5 
REMARK    3  A    between atoms: C11_13  and  O2_14 
REMARK    4  A    between atoms: N2_15  and  C12_16 
REMARK    5  A    between atoms: C12_16  and  C14_18 
REMARK    6  A    between atoms: C15_19  and  C16_20 
REMARK    7  A    between atoms: C15_19  and  O4_23 
REMARK    8  A    between atoms: C16_20  and  O3_21 
ROOT
HETATM    1  C3  UNL     1      23.383   0.063  53.092  1.00  0.00     0.001 C 
HETATM    2  C4  UNL     1      24.678   0.115  53.291  1.00  0.00     0.076 C 
HETATM    3  C6  UNL     1      25.569   0.959  52.504  1.00  0.00     0.035 C 
HETATM    4  C7  UNL     1      24.976   1.659  51.553  1.00  0.00     0.003 C 
HETATM    5  C8  UNL     1      23.564   1.639  51.235  1.00  0.00     0.135 C 
HETATM    6  C9  UNL     1      22.656   0.934  52.212  1.00  0.00     0.169 C 
HETATM    7  N1  UNL     1      21.652   0.315  51.346  1.00  0.00    -0.289 NA
HETATM    8  C10 UNL     1      21.355   1.014  50.251  1.00  0.00     0.137 C 
HETATM    9  C11 UNL     1      21.917   2.350  49.792  1.00  0.00     0.258 C 
HETATM   10  N2  UNL     1      22.868   2.738  50.773  1.00  0.00    -0.366 N 
ENDROOT
BRANCH  10  11
HETATM   11  C12 UNL     1      22.991   4.028  51.187  1.00  0.00     0.104 C 
HETATM   12  C13 UNL     1      21.783   4.501  51.956  1.00  0.00     0.036 C 
BRANCH  11  13
HETATM   13  C14 UNL     1      23.084   4.955  49.996  1.00  0.00     0.032 C 
HETATM   14  C15 UNL     1      24.250   5.351  49.450  1.00  0.00     0.067 C 
BRANCH  14  15
HETATM   15  C16 UNL     1      24.266   6.264  48.278  1.00  0.00     0.231 C 
BRANCH  15  16
HETATM   16  O3  UNL     1      24.870   7.470  48.487  1.00  0.00    -0.390 OA
HETATM   17  C17 UNL     1      26.063   7.661  47.840  1.00  0.00     0.201 C 
ENDBRANCH  15  16
ENDBRANCH  14  15
BRANCH  14  18
HETATM   18  O4  UNL     1      25.375   4.834  50.075  1.00  0.00    -0.358 OA
HETATM   19  C18 UNL     1      26.479   4.280  49.415  1.00  0.00     0.209 C 
ENDBRANCH  14  18
ENDBRANCH  11  13
ENDBRANCH  10  11
BRANCH   9  20
HETATM   20  O2  UNL     1      20.918   3.237  49.527  1.00  0.00    -0.372 OA
HETATM   21  H13 UNL     1      20.528   3.155  48.613  1.00  0.00     0.212 HD
ENDBRANCH   9  20
BRANCH   1  22
HETATM   22  C2  UNL     1      22.626  -0.850  53.933  1.00  0.00     0.002 C 
HETATM   23  C1  UNL     1      21.695  -0.447  54.777  1.00  0.00     0.012 C 
ENDBRANCH   1  22
BRANCH   2  24
HETATM   24  O1  UNL     1      25.147  -0.716  54.305  1.00  0.00    -0.355 OA
HETATM   25  C5  UNL     1      26.164  -0.189  55.144  1.00  0.00     0.210 C 
ENDBRANCH   2  24
TORSDOF 8
ENDMDL
MODEL 4
REMARK VINA RESULT:      -5.9      2.850      6.110
REMARK  8 active torsions:
REMARK  status: ('A' for Active; 'I' for Inactive)
REMARK    1  A    between atoms: C2_2  and  C3_3 
REMARK    2  A    between atoms: C4_4  and  O1_5 
REMARK    3  A    between atoms: C11_13  and  O2_14 
REMARK    4  A    between atoms: N2_15  and  C12_16 
REMARK    5  A    between atoms: C12_16  and  C14_18 
REMARK    6  A    between atoms: C15_19  and  C16_20 
REMARK    7  A    between atoms: C15_19  and  O4_23 
REMARK    8  A    between atoms: C16_20  and  O3_21 
ROOT
HETATM    1  C3  UNL     1      23.268   5.320  48.461  1.00  0.00     0.001 C 
HETATM    2  C4  UNL     1      22.269   4.626  47.972  1.00  0.00     0.076 C 
HETATM    3  C6  UNL     1      22.172   3.177  48.098  1.00  0.00     0.035 C 
HETATM    4  C7  UNL     1      23.183   2.604  48.727  1.00  0.00     0.003 C 
HETATM    5  C8  UNL     1      24.344   3.281  49.266  1.00  0.00     0.135 C 
HETATM    6  C9  UNL     1      24.292   4.788  49.315  1.00  0.00     0.169 C 
HETATM    7  N1  UNL     1      25.672   5.177  49.019  1.00  0.00    -0.289 NA
HETATM    8  C10 UNL     1      26.597   4.336  49.478  1.00  0.00     0.137 C 
HETATM    9  C11 UNL     1      26.409   3.044  50.256  1.00  0.00     0.258 C 
HETATM   10  N2  UNL     1      25.007   2.872  50.406  1.00  0.00    -0.366 N 
ENDROOT
BRANCH  10  11
HETATM   11  C12 UNL     1      24.457   2.407  51.561  1.00  0.00     0.104 C 
HETATM   12  C13 UNL     1      24.343   3.480  52.614  1.00  0.00     0.036 C 
BRANCH  11  13
HETATM   13  C14 UNL     1      25.344   1.348  52.175  1.00  0.00     0.032 C 
HETATM   14  C15 UNL     1      24.879   0.335  52.932  1.00  0.00     0.067 C 
BRANCH  14  15
HETATM   15  C16 UNL     1      25.810  -0.672  53.504  1.00  0.00     0.231 C 
BRANCH  15  16
HETATM   16  O3  UNL     1      26.271  -0.392  54.758  1.00  0.00    -0.390 OA
HETATM   17  C17 UNL     1      27.552   0.091  54.828  1.00  0.00     0.201 C 
ENDBRANCH  15  16
ENDBRANCH  14  15
BRANCH  14  18
HETATM   18  O4  UNL     1      23.503   0.341  53.107  1.00  0.00    -0.358 OA
HETATM   19  C18 UNL     1      22.702  -0.802  53.226  1.00  0.00     0.209 C 
ENDBRANCH  14  18
ENDBRANCH  11  13
ENDBRANCH  10  11
BRANCH   9  20
HETATM   20  O2  UNL     1      27.149   3.047  51.400  1.00  0.00    -0.372 OA
HETATM   21  H13 UNL     1      28.135   3.043  51.251  1.00  0.00     0.212 HD
ENDBRANCH   9  20
BRANCH   1  22
HETATM   22  C2  UNL     1      23.246   6.755  48.229  1.00  0.00     0.002 C 
HETATM   23  C1  UNL     1      23.036   7.636  49.188  1.00  0.00     0.012 C 
ENDBRANCH   1  22
BRANCH   2  24
HETATM   24  O1  UNL     1      21.308   5.379  47.303  1.00  0.00    -0.355 OA
HETATM   25  C5  UNL     1      20.252   4.661  46.682  1.00  0.00     0.210 C 
ENDBRANCH   2  24
TORSDOF 8
ENDMDL
MODEL 5
REMARK VINA RESULT:      -5.9      9.485     14.528
REMARK  8 active torsions:
REMARK  status: ('A' for Active; 'I' for Inactive)
REMARK    1  A    between atoms: C2_2  and  C3_3 
REMARK    2  A    between atoms: C4_4  and  O1_5 
REMARK    3  A    between atoms: C11_13  and  O2_14 
REMARK    4  A    between atoms: N2_15  and  C12_16 
REMARK    5  A    between atoms: C12_16  and  C14_18 
REMARK    6  A    between atoms: C15_19  and  C16_20 
REMARK    7  A    between atoms: C15_19  and  O4_23 
REMARK    8  A    between atoms: C16_20  and  O3_21 
ROOT
HETATM    1  C3  UNL     1      31.933   5.414  47.866  1.00  0.00     0.001 C 
HETATM    2  C4  UNL     1      30.764   5.875  48.240  1.00  0.00     0.076 C 
HETATM    3  C6  UNL     1      30.573   7.220  48.768  1.00  0.00     0.035 C 
HETATM    4  C7  UNL     1      31.676   7.941  48.865  1.00  0.00     0.003 C 
HETATM    5  C8  UNL     1      33.011   7.508  48.513  1.00  0.00     0.135 C 
HETATM    6  C9  UNL     1      33.128   6.203  47.764  1.00  0.00     0.169 C 
HETATM    7  N1  UNL     1      34.357   5.619  48.303  1.00  0.00    -0.289 NA
HETATM    8  C10 UNL     1      35.296   6.506  48.633  1.00  0.00     0.137 C 
HETATM    9  C11 UNL     1      35.255   8.021  48.524  1.00  0.00     0.258 C 
HETATM   10  N2  UNL     1      33.977   8.347  47.996  1.00  0.00    -0.366 N 
ENDROOT
BRANCH  10  11
HETATM   11  C12 UNL     1      33.808   9.334  47.075  1.00  0.00     0.104 C 
HETATM   12  C13 UNL     1      32.574  10.160  47.340  1.00  0.00     0.036 C 
BRANCH  11  13
HETATM   13  C14 UNL     1      33.595   8.741  45.702  1.00  0.00     0.032 C 
HETATM   14  C15 UNL     1      34.501   8.818  44.708  1.00  0.00     0.067 C 
BRANCH  14  15
HETATM   15  C16 UNL     1      34.224   8.210  43.381  1.00  0.00     0.231 C 
BRANCH  15  16
HETATM   16  O3  UNL     1      34.130   6.848  43.373  1.00  0.00    -0.390 OA
HETATM   17  C17 UNL     1      32.904   6.337  43.037  1.00  0.00     0.201 C 
ENDBRANCH  15  16
ENDBRANCH  14  15
BRANCH  14  18
HETATM   18  O4  UNL     1      35.662   9.498  45.048  1.00  0.00    -0.358 OA
HETATM   19  C18 UNL     1      36.652   9.902  44.144  1.00  0.00     0.209 C 
ENDBRANCH  14  18
ENDBRANCH  11  13
ENDBRANCH  10  11
BRANCH   9  20
HETATM   20  O2  UNL     1      36.335   8.494  47.841  1.00  0.00    -0.372 OA
HETATM   21  H13 UNL     1      36.107   9.084  47.069  1.00  0.00     0.212 HD
ENDBRANCH   9  20
BRANCH   1  22
HETATM   22  C2  UNL     1      31.976   4.041  47.390  1.00  0.00     0.002 C 
HETATM   23  C1  UNL     1      32.333   3.716  46.161  1.00  0.00     0.012 C 
ENDBRANCH   1  22
BRANCH   2  24
HETATM   24  O1  UNL     1      29.712   4.972  48.110  1.00  0.00    -0.355 OA
HETATM   25  C5  UNL     1      28.408   5.466  48.379  1.00  0.00     0.210 C 
ENDBRANCH   2  24
TORSDOF 8
ENDMDL
MODEL 6
REMARK VINA RESULT:      -5.9      2.002      2.715
REMARK  8 active torsions:
REMARK  status: ('A' for Active; 'I' for Inactive)
REMARK    1  A    between atoms: C2_2  and  C3_3 
REMARK    2  A    between atoms: C4_4  and  O1_5 
REMARK    3  A    between atoms: C11_13  and  O2_14 
REMARK    4  A    between atoms: N2_15  and  C12_16 
REMARK    5  A    between atoms: C12_16  and  C14_18 
REMARK    6  A    between atoms: C15_19  and  C16_20 
REMARK    7  A    between atoms: C15_19  and  O4_23 
REMARK    8  A    between atoms: C16_20  and  O3_21 
ROOT
HETATM    1  C3  UNL     1      24.232   0.760  53.045  1.00  0.00     0.001 C 
HETATM    2  C4  UNL     1      23.899  -0.254  53.807  1.00  0.00     0.076 C 
HETATM    3  C6  UNL     1      22.516  -0.644  54.049  1.00  0.00     0.035 C 
HETATM    4  C7  UNL     1      21.612   0.117  53.457  1.00  0.00     0.003 C 
HETATM    5  C8  UNL     1      21.881   1.274  52.630  1.00  0.00     0.135 C 
HETATM    6  C9  UNL     1      23.317   1.501  52.225  1.00  0.00     0.169 C 
HETATM    7  N1  UNL     1      23.440   2.960  52.244  1.00  0.00    -0.289 NA
HETATM    8  C10 UNL     1      22.336   3.616  51.892  1.00  0.00     0.137 C 
HETATM    9  C11 UNL     1      20.984   3.055  51.479  1.00  0.00     0.258 C 
HETATM   10  N2  UNL     1      21.104   1.641  51.551  1.00  0.00    -0.366 N 
ENDROOT
BRANCH  10  11
HETATM   11  C12 UNL     1      20.541   0.823  50.621  1.00  0.00     0.104 C 
HETATM   12  C13 UNL     1      21.134   1.022  49.248  1.00  0.00     0.036 C 
BRANCH  11  13
HETATM   13  C14 UNL     1      19.072   1.139  50.462  1.00  0.00     0.032 C 
HETATM   14  C15 UNL     1      18.088   0.419  51.037  1.00  0.00     0.067 C 
BRANCH  14  15
HETATM   15  C16 UNL     1      16.663   0.789  50.838  1.00  0.00     0.231 C 
BRANCH  15  16
HETATM   16  O3  UNL     1      16.180   1.729  51.702  1.00  0.00    -0.390 OA
HETATM   17  C17 UNL     1      15.037   1.388  52.376  1.00  0.00     0.201 C 
ENDBRANCH  15  16
ENDBRANCH  14  15
BRANCH  14  18
HETATM   18  O4  UNL     1      18.537  -0.653  51.794  1.00  0.00    -0.358 OA
HETATM   19  C18 UNL     1      17.991  -1.057  53.019  1.00  0.00     0.209 C 
ENDBRANCH  14  18
ENDBRANCH  11  13
ENDBRANCH  10  11
BRANCH   9  20
HETATM   20  O2  UNL     1      20.581   3.573  50.286  1.00  0.00    -0.372 OA
HETATM   21  H13 UNL     1      19.714   4.066  50.325  1.00  0.00     0.212 HD
ENDBRANCH   9  20
BRANCH   1  22
HETATM   22  C2  UNL     1      25.652   1.051  52.923  1.00  0.00     0.002 C 
HETATM   23  C1  UNL     1      26.339   0.835  51.817  1.00  0.00     0.012 C 
ENDBRANCH   1  22
BRANCH   2  24
HETATM   24  O1  UNL     1      24.972  -0.925  54.388  1.00  0.00    -0.355 OA
HETATM   25  C5  UNL     1      24.898  -1.161  55.786  1.00  0.00     0.210 C 
ENDBRANCH   2  24
TORSDOF 8
ENDMDL
MODEL 7
REMARK VINA RESULT:      -5.7      4.815      6.552
REMARK  8 active torsions:
REMARK  status: ('A' for Active; 'I' for Inactive)
REMARK    1  A    between atoms: C2_2  and  C3_3 
REMARK    2  A    between atoms: C4_4  and  O1_5 
REMARK    3  A    between atoms: C11_13  and  O2_14 
REMARK    4  A    between atoms: N2_15  and  C12_16 
REMARK    5  A    between atoms: C12_16  and  C14_18 
REMARK    6  A    between atoms: C15_19  and  C16_20 
REMARK    7  A    between atoms: C15_19  and  O4_23 
REMARK    8  A    between atoms: C16_20  and  O3_21 
ROOT
HETATM    1  C3  UNL     1      26.381   6.572  48.678  1.00  0.00     0.001 C 
HETATM    2  C4  UNL     1      27.258   5.605  48.555  1.00  0.00     0.076 C 
HETATM    3  C6  UNL     1      27.089   4.296  49.174  1.00  0.00     0.035 C 
HETATM    4  C7  UNL     1      25.989   4.159  49.894  1.00  0.00     0.003 C 
HETATM    5  C8  UNL     1      24.985   5.178  50.117  1.00  0.00     0.135 C 
HETATM    6  C9  UNL     1      25.085   6.428  49.279  1.00  0.00     0.169 C 
HETATM    7  N1  UNL     1      24.661   7.482  50.202  1.00  0.00    -0.289 NA
HETATM    8  C10 UNL     1      23.730   7.110  51.080  1.00  0.00     0.137 C 
HETATM    9  C11 UNL     1      23.062   5.755  51.245  1.00  0.00     0.258 C 
HETATM   10  N2  UNL     1      23.639   4.906  50.262  1.00  0.00    -0.366 N 
ENDROOT
BRANCH  10  11
HETATM   11  C12 UNL     1      22.898   4.004  49.564  1.00  0.00     0.104 C 
HETATM   12  C13 UNL     1      23.405   2.594  49.731  1.00  0.00     0.036 C 
BRANCH  11  13
HETATM   13  C14 UNL     1      22.993   4.281  48.081  1.00  0.00     0.032 C 
HETATM   14  C15 UNL     1      22.053   4.953  47.387  1.00  0.00     0.067 C 
BRANCH  14  15
HETATM   15  C16 UNL     1      22.214   5.189  45.929  1.00  0.00     0.231 C 
BRANCH  15  16
HETATM   16  O3  UNL     1      22.088   4.081  45.142  1.00  0.00    -0.390 OA
HETATM   17  C17 UNL     1      20.903   3.962  44.463  1.00  0.00     0.201 C 
ENDBRANCH  15  16
ENDBRANCH  14  15
BRANCH  14  18
HETATM   18  O4  UNL     1      20.976   5.375  48.151  1.00  0.00    -0.358 OA
HETATM   19  C18 UNL     1      19.666   4.895  48.028  1.00  0.00     0.209 C 
ENDBRANCH  14  18
ENDBRANCH  11  13
ENDBRANCH  10  11
BRANCH   9  20
HETATM   20  O2  UNL     1      21.705   5.871  51.229  1.00  0.00    -0.372 OA
HETATM   21  H13 UNL     1      21.226   5.150  51.726  1.00  0.00     0.212 HD
ENDBRANCH   9  20
BRANCH   1  22
HETATM   22  C2  UNL     1      26.700   7.834  48.031  1.00  0.00     0.002 C 
HETATM   23  C1  UNL     1      26.055   8.284  46.971  1.00  0.00     0.012 C 
ENDBRANCH   1  22
BRANCH   2  24
HETATM   24  O1  UNL     1      28.380   5.928  47.797  1.00  0.00    -0.355 OA
HETATM   25  C5  UNL     1      29.632   5.456  48.274  1.00  0.00     0.210 C 
ENDBRANCH   2  24
TORSDOF 8
ENDMDL
MODEL 8
REMARK VINA RESULT:      -5.7      9.114     13.566
REMARK  8 active torsions:
REMARK  status: ('A' for Active; 'I' for Inactive)
REMARK    1  A    between atoms: C2_2  and  C3_3 
REMARK    2  A    between atoms: C4_4  and  O1_5 
REMARK    3  A    between atoms: C11_13  and  O2_14 
REMARK    4  A    between atoms: N2_15  and  C12_16 
REMARK    5  A    between atoms: C12_16  and  C14_18 
REMARK    6  A    between atoms: C15_19  and  C16_20 
REMARK    7  A    between atoms: C15_19  and  O4_23 
REMARK    8  A    between atoms: C16_20  and  O3_21 
ROOT
HETATM    1  C3  UNL     1      29.862   6.879  48.224  1.00  0.00     0.001 C 
HETATM    2  C4  UNL     1      29.705   8.046  48.803  1.00  0.00     0.076 C 
HETATM    3  C6  UNL     1      30.819   8.836  49.312  1.00  0.00     0.035 C 
HETATM    4  C7  UNL     1      32.009   8.278  49.166  1.00  0.00     0.003 C 
HETATM    5  C8  UNL     1      32.277   6.984  48.576  1.00  0.00     0.135 C 
HETATM    6  C9  UNL     1      31.130   6.310  47.864  1.00  0.00     0.169 C 
HETATM    7  N1  UNL     1      31.333   4.894  48.173  1.00  0.00    -0.289 NA
HETATM    8  C10 UNL     1      32.609   4.526  48.283  1.00  0.00     0.137 C 
HETATM    9  C11 UNL     1      33.861   5.374  48.132  1.00  0.00     0.258 C 
HETATM   10  N2  UNL     1      33.416   6.694  47.852  1.00  0.00    -0.366 N 
ENDROOT
BRANCH  10  11
HETATM   11  C12 UNL     1      34.046   7.491  46.949  1.00  0.00     0.104 C 
HETATM   12  C13 UNL     1      34.423   8.831  47.531  1.00  0.00     0.036 C 
BRANCH  11  13
HETATM   13  C14 UNL     1      33.124   7.811  45.795  1.00  0.00     0.032 C 
HETATM   14  C15 UNL     1      33.041   7.062  44.678  1.00  0.00     0.067 C 
BRANCH  14  15
HETATM   15  C16 UNL     1      32.109   7.436  43.583  1.00  0.00     0.231 C 
BRANCH  15  16
HETATM   16  O3  UNL     1      32.563   8.409  42.739  1.00  0.00    -0.390 OA
HETATM   17  C17 UNL     1      31.721   9.474  42.550  1.00  0.00     0.201 C 
ENDBRANCH  15  16
ENDBRANCH  14  15
BRANCH  14  18
HETATM   18  O4  UNL     1      33.883   5.960  44.669  1.00  0.00    -0.358 OA
HETATM   19  C18 UNL     1      34.571   5.483  43.546  1.00  0.00     0.209 C 
ENDBRANCH  14  18
ENDBRANCH  11  13
ENDBRANCH  10  11
BRANCH   9  20
HETATM   20  O2  UNL     1      34.725   4.820  47.235  1.00  0.00    -0.372 OA
HETATM   21  H13 UNL     1      34.972   5.421  46.478  1.00  0.00     0.212 HD
ENDBRANCH   9  20
BRANCH   1  22
HETATM   22  C2  UNL     1      28.655   6.191  47.796  1.00  0.00     0.002 C 
HETATM   23  C1  UNL     1      28.059   5.264  48.522  1.00  0.00     0.012 C 
ENDBRANCH   1  22
BRANCH   2  24
HETATM   24  O1  UNL     1      28.384   8.470  48.912  1.00  0.00    -0.355 OA
HETATM   25  C5  UNL     1      28.129   9.543  49.806  1.00  0.00     0.210 C 
ENDBRANCH   2  24
TORSDOF 8
ENDMDL
MODEL 9
REMARK VINA RESULT:      -5.7      2.880      4.544
REMARK  8 active torsions:
REMARK  status: ('A' for Active; 'I' for Inactive)
REMARK    1  A    between atoms: C2_2  and  C3_3 
REMARK    2  A    between atoms: C4_4  and  O1_5 
REMARK    3  A    between atoms: C11_13  and  O2_14 
REMARK    4  A    between atoms: N2_15  and  C12_16 
REMARK    5  A    between atoms: C12_16  and  C14_18 
REMARK    6  A    between atoms: C15_19  and  C16_20 
REMARK    7  A    between atoms: C15_19  and  O4_23 
REMARK    8  A    between atoms: C16_20  and  O3_21 
ROOT
HETATM    1  C3  UNL     1      26.130   6.158  48.907  1.00  0.00     0.001 C 
HETATM    2  C4  UNL     1      27.158   5.374  48.688  1.00  0.00     0.076 C 
HETATM    3  C6  UNL     1      27.285   4.048  49.280  1.00  0.00     0.035 C 
HETATM    4  C7  UNL     1      26.292   3.698  50.079  1.00  0.00     0.003 C 
HETATM    5  C8  UNL     1      25.139   4.508  50.409  1.00  0.00     0.135 C 
HETATM    6  C9  UNL     1      24.937   5.767  49.603  1.00  0.00     0.169 C 
HETATM    7  N1  UNL     1      24.403   6.710  50.586  1.00  0.00    -0.289 NA
HETATM    8  C10 UNL     1      23.631   6.159  51.523  1.00  0.00     0.137 C 
HETATM    9  C11 UNL     1      23.242   4.700  51.700  1.00  0.00     0.258 C 
HETATM   10  N2  UNL     1      23.883   3.988  50.650  1.00  0.00    -0.366 N 
ENDROOT
BRANCH  10  11
HETATM   11  C12 UNL     1      23.266   2.974  49.986  1.00  0.00     0.104 C 
HETATM   12  C13 UNL     1      22.281   3.476  48.961  1.00  0.00     0.036 C 
BRANCH  11  13
HETATM   13  C14 UNL     1      22.445   2.141  50.944  1.00  0.00     0.032 C 
HETATM   14  C15 UNL     1      22.970   1.195  51.747  1.00  0.00     0.067 C 
BRANCH  14  15
HETATM   15  C16 UNL     1      22.101   0.415  52.666  1.00  0.00     0.231 C 
BRANCH  15  16
HETATM   16  O3  UNL     1      22.608  -0.788  53.065  1.00  0.00    -0.390 OA
HETATM   17  C17 UNL     1      22.701  -0.976  54.419  1.00  0.00     0.201 C 
ENDBRANCH  15  16
ENDBRANCH  14  15
BRANCH  14  18
HETATM   18  O4  UNL     1      24.342   1.041  51.622  1.00  0.00    -0.358 OA
HETATM   19  C18 UNL     1      25.274   1.278  52.641  1.00  0.00     0.209 C 
ENDBRANCH  14  18
ENDBRANCH  11  13
ENDBRANCH  10  11
BRANCH   9  20
HETATM   20  O2  UNL     1      21.890   4.561  51.793  1.00  0.00    -0.372 OA
HETATM   21  H13 UNL     1      21.532   4.643  52.721  1.00  0.00     0.212 HD
ENDBRANCH   9  20
BRANCH   1  22
HETATM   22  C2  UNL     1      26.156   7.467  48.274  1.00  0.00     0.002 C 
HETATM   23  C1  UNL     1      25.337   7.811  47.298  1.00  0.00     0.012 C 
ENDBRANCH   1  22
BRANCH   2  24
HETATM   24  O1  UNL     1      28.135   5.911  47.854  1.00  0.00    -0.355 OA
HETATM   25  C5  UNL     1      29.487   5.701  48.235  1.00  0.00     0.210 C 
ENDBRANCH   2  24
TORSDOF 8
ENDMDL
