MODEL 1
REMARK VINA RESULT:      -9.0      0.000      0.000
REMARK  4 active torsions:
REMARK  status: ('A' for Active; 'I' for Inactive)
REMARK    1  A    between atoms: O1_2  and  C2_3 
REMARK    2  A    between atoms: C6_9  and  N3_10 
REMARK    3  A    between atoms: N3_10  and  C7_11 
REMARK    4  A    between atoms: C21_27  and  O2_28 
ROOT
HETATM    1  N3  UNL     1      25.187   3.483  50.037  1.00  0.00    -0.343 N 
HETATM    2  H6  UNL     1      25.112   2.887  49.183  1.00  0.00     0.167 HD
ENDROOT
BRANCH   1   3
HETATM    3  C6  UNL     1      24.989   4.876  50.232  1.00  0.00     0.141 A 
HETATM    4  N2  UNL     1      23.910   5.194  50.978  1.00  0.00    -0.224 NA
HETATM    5  C5  UNL     1      23.607   6.484  51.238  1.00  0.00     0.236 A 
HETATM    6  N1  UNL     1      24.366   7.514  50.767  1.00  0.00    -0.241 NA
HETATM    7  C4  UNL     1      25.438   7.178  50.026  1.00  0.00     0.075 A 
HETATM    8  C3  UNL     1      26.290   8.144  49.487  1.00  0.00     0.072 A 
HETATM    9  C19 UNL     1      25.777   5.871  49.740  1.00  0.00     0.042 A 
HETATM   10  C2  UNL     1      27.387   7.782  48.726  1.00  0.00     0.103 A 
HETATM   11  C21 UNL     1      27.684   6.439  48.467  1.00  0.00     0.102 A 
HETATM   12  C20 UNL     1      26.845   5.463  48.997  1.00  0.00     0.057 A 
BRANCH  10  13
HETATM   13  O1  UNL     1      28.261   8.714  48.170  1.00  0.00    -0.353 OA
HETATM   14  C1  UNL     1      29.203   9.422  48.955  1.00  0.00     0.210 C 
ENDBRANCH  10  13
BRANCH  11  15
HETATM   15  O2  UNL     1      28.790   6.102  47.700  1.00  0.00    -0.353 OA
HETATM   16  C22 UNL     1      29.959   5.695  48.372  1.00  0.00     0.210 C 
ENDBRANCH  11  15
ENDBRANCH   1   3
BRANCH   1  17
HETATM   17  C7  UNL     1      25.550   2.630  51.113  1.00  0.00     0.021 C 
HETATM   18  C8  UNL     1      26.796   2.476  51.548  1.00  0.00     0.055 C 
HETATM   19  C9  UNL     1      26.511   2.328  53.034  1.00  0.00     0.031 C 
HETATM   20  C10 UNL     1      25.219   2.431  53.340  1.00  0.00     0.014 C 
HETATM   21  N4  UNL     1      27.782   1.964  53.711  1.00  0.00    -0.359 N 
HETATM   22  C11 UNL     1      24.980   1.632  52.136  1.00  0.00     0.069 C 
HETATM   23  C12 UNL     1      25.438   0.259  52.061  1.00  0.00     0.082 C 
HETATM   24  S1  UNL     1      26.035  -0.665  53.567  1.00  0.00    -0.190 SA
HETATM   25  C13 UNL     1      27.216  -1.582  52.757  1.00  0.00     0.035 C 
HETATM   26  C18 UNL     1      26.695   0.028  55.258  1.00  0.00     0.124 C 
HETATM   27  C14 UNL     1      28.682  -1.831  53.059  1.00  0.00     0.006 C 
HETATM   28  C15 UNL     1      29.484  -0.996  53.806  1.00  0.00     0.002 C 
HETATM   29  C16 UNL     1      29.156   0.417  54.243  1.00  0.00     0.026 C 
HETATM   30  C17 UNL     1      27.896   0.710  54.544  1.00  0.00     0.018 C 
HETATM   31  H18 UNL     1      28.660   2.463  53.609  1.00  0.00     0.166 HD
ENDBRANCH   1  17
TORSDOF 4
ENDMDL
MODEL 2
REMARK VINA RESULT:      -8.3      3.972      8.035
REMARK  4 active torsions:
REMARK  status: ('A' for Active; 'I' for Inactive)
REMARK    1  A    between atoms: O1_2  and  C2_3 
REMARK    2  A    between atoms: C6_9  and  N3_10 
REMARK    3  A    between atoms: N3_10  and  C7_11 
REMARK    4  A    between atoms: C21_27  and  O2_28 
ROOT
HETATM    1  N3  UNL     1      21.733   0.616  51.787  1.00  0.00    -0.343 N 
HETATM    2  H6  UNL     1      21.202   0.247  50.968  1.00  0.00     0.167 HD
ENDROOT
BRANCH   1   3
HETATM    3  C6  UNL     1      22.202  -0.020  52.968  1.00  0.00     0.141 A 
HETATM    4  N2  UNL     1      21.232  -0.467  53.792  1.00  0.00    -0.224 NA
HETATM    5  C5  UNL     1      21.543  -1.089  54.950  1.00  0.00     0.236 A 
HETATM    6  N1  UNL     1      22.833  -1.294  55.336  1.00  0.00    -0.241 NA
HETATM    7  C4  UNL     1      23.788  -0.843  54.501  1.00  0.00     0.075 A 
HETATM    8  C3  UNL     1      25.145  -0.993  54.788  1.00  0.00     0.072 A 
HETATM    9  C19 UNL     1      23.507  -0.203  53.311  1.00  0.00     0.042 A 
HETATM   10  C2  UNL     1      26.114  -0.522  53.920  1.00  0.00     0.103 A 
HETATM   11  C21 UNL     1      25.772   0.121  52.725  1.00  0.00     0.102 A 
HETATM   12  C20 UNL     1      24.423   0.278  52.424  1.00  0.00     0.057 A 
BRANCH  10  13
HETATM   13  O1  UNL     1      27.479  -0.652  54.170  1.00  0.00    -0.353 OA
HETATM   14  C1  UNL     1      28.191   0.284  54.957  1.00  0.00     0.210 C 
ENDBRANCH  10  13
BRANCH  11  15
HETATM   15  O2  UNL     1      26.762   0.585  51.871  1.00  0.00    -0.353 OA
HETATM   16  C22 UNL     1      26.793   1.963  51.583  1.00  0.00     0.210 C 
ENDBRANCH  11  15
ENDBRANCH   1   3
BRANCH   1  17
HETATM   17  C7  UNL     1      21.960   1.997  51.551  1.00  0.00     0.021 C 
HETATM   18  C8  UNL     1      22.001   2.545  50.341  1.00  0.00     0.055 C 
HETATM   19  C9  UNL     1      21.350   3.880  50.663  1.00  0.00     0.031 C 
HETATM   20  C10 UNL     1      20.975   3.996  51.935  1.00  0.00     0.014 C 
HETATM   21  N4  UNL     1      21.452   4.744  49.458  1.00  0.00    -0.359 N 
HETATM   22  C11 UNL     1      22.242   3.335  52.257  1.00  0.00     0.069 C 
HETATM   23  C12 UNL     1      23.505   3.988  51.976  1.00  0.00     0.082 C 
HETATM   24  S1  UNL     1      23.601   5.795  51.523  1.00  0.00    -0.190 SA
HETATM   25  C13 UNL     1      24.917   5.642  50.457  1.00  0.00     0.035 C 
HETATM   26  C18 UNL     1      22.223   6.961  50.804  1.00  0.00     0.124 C 
HETATM   27  C14 UNL     1      25.129   6.139  49.039  1.00  0.00     0.006 C 
HETATM   28  C15 UNL     1      24.119   6.429  48.148  1.00  0.00     0.002 C 
HETATM   29  C16 UNL     1      22.653   6.078  48.300  1.00  0.00     0.026 C 
HETATM   30  C17 UNL     1      22.121   6.096  49.517  1.00  0.00     0.018 C 
HETATM   31  H18 UNL     1      21.166   4.473  48.523  1.00  0.00     0.166 HD
ENDBRANCH   1  17
TORSDOF 4
ENDMDL
MODEL 3
REMARK VINA RESULT:      -8.0      3.643      7.908
REMARK  4 active torsions:
REMARK  status: ('A' for Active; 'I' for Inactive)
REMARK    1  A    between atoms: O1_2  and  C2_3 
REMARK    2  A    between atoms: C6_9  and  N3_10 
REMARK    3  A    between atoms: N3_10  and  C7_11 
REMARK    4  A    between atoms: C21_27  and  O2_28 
ROOT
HETATM    1  N3  UNL     1      23.124   5.054  52.515  1.00  0.00    -0.343 N 
HETATM    2  H6  UNL     1      23.085   5.677  53.351  1.00  0.00     0.167 HD
ENDROOT
BRANCH   1   3
HETATM    3  C6  UNL     1      22.736   3.699  52.332  1.00  0.00     0.141 A 
HETATM    4  N2  UNL     1      21.529   3.531  51.752  1.00  0.00    -0.224 NA
HETATM    5  C5  UNL     1      21.041   2.293  51.522  1.00  0.00     0.236 A 
HETATM    6  N1  UNL     1      21.734   1.169  51.859  1.00  0.00    -0.241 NA
HETATM    7  C4  UNL     1      22.936   1.356  52.436  1.00  0.00     0.075 A 
HETATM    8  C3  UNL     1      23.737   0.282  52.826  1.00  0.00     0.072 A 
HETATM    9  C19 UNL     1      23.465   2.606  52.686  1.00  0.00     0.042 A 
HETATM   10  C2  UNL     1      24.970   0.492  53.419  1.00  0.00     0.103 A 
HETATM   11  C21 UNL     1      25.459   1.782  53.650  1.00  0.00     0.102 A 
HETATM   12  C20 UNL     1      24.671   2.864  53.266  1.00  0.00     0.057 A 
BRANCH  10  13
HETATM   13  O1  UNL     1      25.800  -0.552  53.823  1.00  0.00    -0.353 OA
HETATM   14  C1  UNL     1      26.543  -1.323  52.898  1.00  0.00     0.210 C 
ENDBRANCH  10  13
BRANCH  11  15
HETATM   15  O2  UNL     1      26.698   1.966  54.246  1.00  0.00    -0.353 OA
HETATM   16  C22 UNL     1      27.788   2.291  53.415  1.00  0.00     0.210 C 
ENDBRANCH  11  15
ENDBRANCH   1   3
BRANCH   1  17
HETATM   17  C7  UNL     1      23.673   5.816  51.450  1.00  0.00     0.021 C 
HETATM   18  C8  UNL     1      24.867   5.588  50.914  1.00  0.00     0.055 C 
HETATM   19  C9  UNL     1      24.545   5.923  49.467  1.00  0.00     0.031 C 
HETATM   20  C10 UNL     1      23.274   6.267  49.270  1.00  0.00     0.014 C 
HETATM   21  N4  UNL     1      25.817   5.902  48.698  1.00  0.00    -0.359 N 
HETATM   22  C11 UNL     1      23.394   7.014  50.525  1.00  0.00     0.069 C 
HETATM   23  C12 UNL     1      24.283   8.155  50.620  1.00  0.00     0.082 C 
HETATM   24  S1  UNL     1      25.046   8.939  49.109  1.00  0.00    -0.190 SA
HETATM   25  C13 UNL     1      26.515   9.364  49.852  1.00  0.00     0.035 C 
HETATM   26  C18 UNL     1      25.324   8.190  47.338  1.00  0.00     0.124 C 
HETATM   27  C14 UNL     1      27.957   9.145  49.434  1.00  0.00     0.006 C 
HETATM   28  C15 UNL     1      28.386   8.149  48.584  1.00  0.00     0.002 C 
HETATM   29  C16 UNL     1      27.583   6.953  48.116  1.00  0.00     0.026 C 
HETATM   30  C17 UNL     1      26.279   7.107  47.914  1.00  0.00     0.018 C 
HETATM   31  H18 UNL     1      26.486   5.139  48.701  1.00  0.00     0.166 HD
ENDBRANCH   1  17
TORSDOF 4
ENDMDL
MODEL 4
REMARK VINA RESULT:      -8.0      6.252      9.262
REMARK  4 active torsions:
REMARK  status: ('A' for Active; 'I' for Inactive)
REMARK    1  A    between atoms: O1_2  and  C2_3 
REMARK    2  A    between atoms: C6_9  and  N3_10 
REMARK    3  A    between atoms: N3_10  and  C7_11 
REMARK    4  A    between atoms: C21_27  and  O2_28 
ROOT
HETATM    1  N3  UNL     1      21.754   1.669  52.365  1.00  0.00    -0.343 N 
HETATM    2  H6  UNL     1      22.049   2.603  52.005  1.00  0.00     0.167 HD
ENDROOT
BRANCH   1   3
HETATM    3  C6  UNL     1      22.422   0.725  53.191  1.00  0.00     0.141 A 
HETATM    4  N2  UNL     1      21.626   0.081  54.070  1.00  0.00    -0.224 NA
HETATM    5  C5  UNL     1      22.135  -0.842  54.914  1.00  0.00     0.236 A 
HETATM    6  N1  UNL     1      23.460  -1.163  54.919  1.00  0.00    -0.241 NA
HETATM    7  C4  UNL     1      24.238  -0.511  54.036  1.00  0.00     0.075 A 
HETATM    8  C3  UNL     1      25.610  -0.753  53.948  1.00  0.00     0.072 A 
HETATM    9  C19 UNL     1      23.752   0.437  53.159  1.00  0.00     0.042 A 
HETATM   10  C2  UNL     1      26.396  -0.073  53.035  1.00  0.00     0.103 A 
HETATM   11  C21 UNL     1      25.850   0.880  52.168  1.00  0.00     0.102 A 
HETATM   12  C20 UNL     1      24.483   1.133  52.243  1.00  0.00     0.057 A 
BRANCH  10  13
HETATM   13  O1  UNL     1      27.768  -0.285  52.916  1.00  0.00    -0.353 OA
HETATM   14  C1  UNL     1      28.624  -0.323  54.043  1.00  0.00     0.210 C 
ENDBRANCH  10  13
BRANCH  11  15
HETATM   15  O2  UNL     1      26.660   1.548  51.262  1.00  0.00    -0.353 OA
HETATM   16  C22 UNL     1      26.306   2.864  50.906  1.00  0.00     0.210 C 
ENDBRANCH  11  15
ENDBRANCH   1   3
BRANCH   1  17
HETATM   17  C7  UNL     1      20.443   1.427  51.876  1.00  0.00     0.021 C 
HETATM   18  C8  UNL     1      19.410   2.234  52.094  1.00  0.00     0.055 C 
HETATM   19  C9  UNL     1      18.702   2.077  50.758  1.00  0.00     0.031 C 
HETATM   20  C10 UNL     1      19.340   1.276  49.908  1.00  0.00     0.014 C 
HETATM   21  N4  UNL     1      17.394   2.778  50.848  1.00  0.00    -0.359 N 
HETATM   22  C11 UNL     1      19.597   0.424  51.071  1.00  0.00     0.069 C 
HETATM   23  C12 UNL     1      18.504  -0.233  51.759  1.00  0.00     0.082 C 
HETATM   24  S1  UNL     1      16.790  -0.319  51.028  1.00  0.00    -0.190 SA
HETATM   25  C13 UNL     1      15.960  -0.221  52.508  1.00  0.00     0.035 C 
HETATM   26  C18 UNL     1      15.972   0.801  49.667  1.00  0.00     0.124 C 
HETATM   27  C14 UNL     1      14.811   0.659  52.963  1.00  0.00     0.006 C 
HETATM   28  C15 UNL     1      14.496   1.885  52.420  1.00  0.00     0.002 C 
HETATM   29  C16 UNL     1      15.352   2.698  51.471  1.00  0.00     0.026 C 
HETATM   30  C17 UNL     1      16.096   2.053  50.579  1.00  0.00     0.018 C 
HETATM   31  H18 UNL     1      17.266   3.735  51.160  1.00  0.00     0.166 HD
ENDBRANCH   1  17
TORSDOF 4
ENDMDL
MODEL 5
REMARK VINA RESULT:      -7.9      3.500      5.044
REMARK  4 active torsions:
REMARK  status: ('A' for Active; 'I' for Inactive)
REMARK    1  A    between atoms: O1_2  and  C2_3 
REMARK    2  A    between atoms: C6_9  and  N3_10 
REMARK    3  A    between atoms: N3_10  and  C7_11 
REMARK    4  A    between atoms: C21_27  and  O2_28 
ROOT
HETATM    1  N3  UNL     1      25.080   3.260  50.121  1.00  0.00    -0.343 N 
HETATM    2  H6  UNL     1      25.501   2.879  49.244  1.00  0.00     0.167 HD
ENDROOT
BRANCH   1   3
HETATM    3  C6  UNL     1      24.202   4.354  50.344  1.00  0.00     0.141 A 
HETATM    4  N2  UNL     1      24.760   5.570  50.167  1.00  0.00    -0.224 NA
HETATM    5  C5  UNL     1      24.034   6.695  50.350  1.00  0.00     0.236 A 
HETATM    6  N1  UNL     1      22.722   6.657  50.716  1.00  0.00    -0.241 NA
HETATM    7  C4  UNL     1      22.183   5.435  50.887  1.00  0.00     0.075 A 
HETATM    8  C3  UNL     1      20.849   5.268  51.262  1.00  0.00     0.072 A 
HETATM    9  C19 UNL     1      22.894   4.266  50.710  1.00  0.00     0.042 A 
HETATM   10  C2  UNL     1      20.310   4.006  51.436  1.00  0.00     0.103 A 
HETATM   11  C21 UNL     1      21.078   2.852  51.243  1.00  0.00     0.102 A 
HETATM   12  C20 UNL     1      22.410   3.002  50.868  1.00  0.00     0.057 A 
BRANCH  10  13
HETATM   13  O1  UNL     1      18.985   3.796  51.810  1.00  0.00    -0.353 OA
HETATM   14  C1  UNL     1      17.915   3.915  50.890  1.00  0.00     0.210 C 
ENDBRANCH  10  13
BRANCH  11  15
HETATM   15  O2  UNL     1      20.515   1.597  51.423  1.00  0.00    -0.353 OA
HETATM   16  C22 UNL     1      21.360   0.475  51.330  1.00  0.00     0.210 C 
ENDBRANCH  11  15
ENDBRANCH   1   3
BRANCH   1  17
HETATM   17  C7  UNL     1      25.544   2.452  51.192  1.00  0.00     0.021 C 
HETATM   18  C8  UNL     1      26.822   2.344  51.540  1.00  0.00     0.055 C 
HETATM   19  C9  UNL     1      26.650   2.239  53.046  1.00  0.00     0.031 C 
HETATM   20  C10 UNL     1      25.382   2.319  53.444  1.00  0.00     0.014 C 
HETATM   21  N4  UNL     1      27.977   1.929  53.639  1.00  0.00    -0.359 N 
HETATM   22  C11 UNL     1      25.077   1.475  52.286  1.00  0.00     0.069 C 
HETATM   23  C12 UNL     1      25.566   0.112  52.220  1.00  0.00     0.082 C 
HETATM   24  S1  UNL     1      26.296  -0.747  53.706  1.00  0.00    -0.190 SA
HETATM   25  C13 UNL     1      27.439  -1.660  52.840  1.00  0.00     0.035 C 
HETATM   26  C18 UNL     1      27.058   0.018  55.321  1.00  0.00     0.124 C 
HETATM   27  C14 UNL     1      28.929  -1.863  53.041  1.00  0.00     0.006 C 
HETATM   28  C15 UNL     1      29.760  -0.984  53.700  1.00  0.00     0.002 C 
HETATM   29  C16 UNL     1      29.427   0.434  54.116  1.00  0.00     0.026 C 
HETATM   30  C17 UNL     1      28.185   0.706  54.500  1.00  0.00     0.018 C 
HETATM   31  H18 UNL     1      28.831   2.446  53.456  1.00  0.00     0.166 HD
ENDBRANCH   1  17
TORSDOF 4
ENDMDL
MODEL 6
REMARK VINA RESULT:      -7.9      3.936      6.082
REMARK  4 active torsions:
REMARK  status: ('A' for Active; 'I' for Inactive)
REMARK    1  A    between atoms: O1_2  and  C2_3 
REMARK    2  A    between atoms: C6_9  and  N3_10 
REMARK    3  A    between atoms: N3_10  and  C7_11 
REMARK    4  A    between atoms: C21_27  and  O2_28 
ROOT
HETATM    1  N3  UNL     1      27.784   6.984  47.605  1.00  0.00    -0.343 N 
HETATM    2  H6  UNL     1      27.666   6.670  46.617  1.00  0.00     0.167 HD
ENDROOT
BRANCH   1   3
HETATM    3  C6  UNL     1      28.822   7.714  48.244  1.00  0.00     0.141 A 
HETATM    4  N2  UNL     1      28.484   8.966  48.619  1.00  0.00    -0.224 NA
HETATM    5  C5  UNL     1      29.380   9.767  49.235  1.00  0.00     0.236 A 
HETATM    6  N1  UNL     1      30.651   9.356  49.505  1.00  0.00    -0.241 NA
HETATM    7  C4  UNL     1      30.970   8.105  49.124  1.00  0.00     0.075 A 
HETATM    8  C3  UNL     1      32.241   7.572  49.345  1.00  0.00     0.072 A 
HETATM    9  C19 UNL     1      30.081   7.260  48.493  1.00  0.00     0.042 A 
HETATM   10  C2  UNL     1      32.554   6.285  48.946  1.00  0.00     0.103 A 
HETATM   11  C21 UNL     1      31.612   5.470  48.308  1.00  0.00     0.102 A 
HETATM   12  C20 UNL     1      30.339   5.986  48.081  1.00  0.00     0.057 A 
BRANCH  10  13
HETATM   13  O1  UNL     1      33.810   5.716  49.148  1.00  0.00    -0.353 OA
HETATM   14  C1  UNL     1      34.996   6.325  48.671  1.00  0.00     0.210 C 
ENDBRANCH  10  13
BRANCH  11  15
HETATM   15  O2  UNL     1      31.950   4.182  47.918  1.00  0.00    -0.353 OA
HETATM   16  C22 UNL     1      32.235   3.959  46.557  1.00  0.00     0.210 C 
ENDBRANCH  11  15
ENDBRANCH   1   3
BRANCH   1  17
HETATM   17  C7  UNL     1      26.640   6.545  48.322  1.00  0.00     0.021 C 
HETATM   18  C8  UNL     1      26.530   5.343  48.878  1.00  0.00     0.055 C 
HETATM   19  C9  UNL     1      25.746   5.728  50.122  1.00  0.00     0.031 C 
HETATM   20  C10 UNL     1      25.500   7.033  50.213  1.00  0.00     0.014 C 
HETATM   21  N4  UNL     1      25.353   4.477  50.822  1.00  0.00    -0.359 N 
HETATM   22  C11 UNL     1      25.233   6.975  48.775  1.00  0.00     0.069 C 
HETATM   23  C12 UNL     1      24.105   6.219  48.265  1.00  0.00     0.082 C 
HETATM   24  S1  UNL     1      22.761   5.578  49.388  1.00  0.00    -0.190 SA
HETATM   25  C13 UNL     1      22.461   4.152  48.511  1.00  0.00     0.035 C 
HETATM   26  C18 UNL     1      22.804   5.250  51.302  1.00  0.00     0.124 C 
HETATM   27  C14 UNL     1      22.356   2.703  48.948  1.00  0.00     0.006 C 
HETATM   28  C15 UNL     1      22.935   2.180  50.083  1.00  0.00     0.002 C 
HETATM   29  C16 UNL     1      23.973   2.852  50.959  1.00  0.00     0.026 C 
HETATM   30  C17 UNL     1      23.905   4.169  51.123  1.00  0.00     0.018 C 
HETATM   31  H18 UNL     1      25.988   3.725  51.071  1.00  0.00     0.166 HD
ENDBRANCH   1  17
TORSDOF 4
ENDMDL
MODEL 7
REMARK VINA RESULT:      -7.8      3.707      8.273
REMARK  4 active torsions:
REMARK  status: ('A' for Active; 'I' for Inactive)
REMARK    1  A    between atoms: O1_2  and  C2_3 
REMARK    2  A    between atoms: C6_9  and  N3_10 
REMARK    3  A    between atoms: N3_10  and  C7_11 
REMARK    4  A    between atoms: C21_27  and  O2_28 
ROOT
HETATM    1  N3  UNL     1      24.277   3.408  53.062  1.00  0.00    -0.343 N 
HETATM    2  H6  UNL     1      24.571   4.117  53.770  1.00  0.00     0.167 HD
ENDROOT
BRANCH   1   3
HETATM    3  C6  UNL     1      24.253   1.988  53.106  1.00  0.00     0.141 A 
HETATM    4  N2  UNL     1      23.017   1.446  53.134  1.00  0.00    -0.224 NA
HETATM    5  C5  UNL     1      22.853   0.106  53.178  1.00  0.00     0.236 A 
HETATM    6  N1  UNL     1      23.913  -0.751  53.197  1.00  0.00    -0.241 NA
HETATM    7  C4  UNL     1      25.137  -0.193  53.168  1.00  0.00     0.075 A 
HETATM    8  C3  UNL     1      26.298  -0.967  53.184  1.00  0.00     0.072 A 
HETATM    9  C19 UNL     1      25.341   1.172  53.123  1.00  0.00     0.042 A 
HETATM   10  C2  UNL     1      27.549  -0.377  53.155  1.00  0.00     0.103 A 
HETATM   11  C21 UNL     1      27.698   1.014  53.110  1.00  0.00     0.102 A 
HETATM   12  C20 UNL     1      26.550   1.800  53.093  1.00  0.00     0.057 A 
BRANCH  10  13
HETATM   13  O1  UNL     1      28.731  -1.113  53.170  1.00  0.00    -0.353 OA
HETATM   14  C1  UNL     1      28.737  -2.528  53.104  1.00  0.00     0.210 C 
ENDBRANCH  10  13
BRANCH  11  15
HETATM   15  O2  UNL     1      28.964   1.582  53.082  1.00  0.00    -0.353 OA
HETATM   16  C22 UNL     1      29.427   2.218  54.250  1.00  0.00     0.210 C 
ENDBRANCH  11  15
ENDBRANCH   1   3
BRANCH   1  17
HETATM   17  C7  UNL     1      23.848   4.120  51.911  1.00  0.00     0.021 C 
HETATM   18  C8  UNL     1      23.727   5.443  51.859  1.00  0.00     0.055 C 
HETATM   19  C9  UNL     1      24.173   5.665  50.423  1.00  0.00     0.031 C 
HETATM   20  C10 UNL     1      24.526   4.545  49.796  1.00  0.00     0.014 C 
HETATM   21  N4  UNL     1      23.945   7.095  50.088  1.00  0.00    -0.359 N 
HETATM   22  C11 UNL     1      23.371   3.936  50.459  1.00  0.00     0.069 C 
HETATM   23  C12 UNL     1      22.025   4.368  50.136  1.00  0.00     0.082 C 
HETATM   24  S1  UNL     1      21.664   5.443  48.656  1.00  0.00    -0.190 SA
HETATM   25  C13 UNL     1      20.386   6.307  49.371  1.00  0.00     0.035 C 
HETATM   26  C18 UNL     1      22.855   6.611  47.659  1.00  0.00     0.124 C 
HETATM   27  C14 UNL     1      20.103   7.794  49.466  1.00  0.00     0.006 C 
HETATM   28  C15 UNL     1      21.060   8.783  49.389  1.00  0.00     0.002 C 
HETATM   29  C16 UNL     1      22.561   8.593  49.454  1.00  0.00     0.026 C 
HETATM   30  C17 UNL     1      23.084   7.497  48.915  1.00  0.00     0.018 C 
HETATM   31  H18 UNL     1      24.269   7.881  50.642  1.00  0.00     0.166 HD
ENDBRANCH   1  17
TORSDOF 4
ENDMDL
MODEL 8
REMARK VINA RESULT:      -7.7      5.159      8.554
REMARK  4 active torsions:
REMARK  status: ('A' for Active; 'I' for Inactive)
REMARK    1  A    between atoms: O1_2  and  C2_3 
REMARK    2  A    between atoms: C6_9  and  N3_10 
REMARK    3  A    between atoms: N3_10  and  C7_11 
REMARK    4  A    between atoms: C21_27  and  O2_28 
ROOT
HETATM    1  N3  UNL     1      23.180   2.709  52.804  1.00  0.00    -0.343 N 
HETATM    2  H6  UNL     1      22.869   2.848  53.791  1.00  0.00     0.167 HD
ENDROOT
BRANCH   1   3
HETATM    3  C6  UNL     1      24.475   2.583  52.234  1.00  0.00     0.141 A 
HETATM    4  N2  UNL     1      24.732   3.437  51.221  1.00  0.00    -0.224 NA
HETATM    5  C5  UNL     1      25.926   3.421  50.591  1.00  0.00     0.236 A 
HETATM    6  N1  UNL     1      26.917   2.554  50.944  1.00  0.00    -0.241 NA
HETATM    7  C4  UNL     1      26.644   1.711  51.956  1.00  0.00     0.075 A 
HETATM    8  C3  UNL     1      27.579   0.777  52.406  1.00  0.00     0.072 A 
HETATM    9  C19 UNL     1      25.435   1.699  52.622  1.00  0.00     0.042 A 
HETATM   10  C2  UNL     1      27.282  -0.084  53.447  1.00  0.00     0.103 A 
HETATM   11  C21 UNL     1      26.038  -0.053  54.087  1.00  0.00     0.102 A 
HETATM   12  C20 UNL     1      25.095   0.873  53.651  1.00  0.00     0.057 A 
BRANCH  10  13
HETATM   13  O1  UNL     1      28.186  -1.030  53.926  1.00  0.00    -0.353 OA
HETATM   14  C1  UNL     1      29.585  -0.874  53.780  1.00  0.00     0.210 C 
ENDBRANCH  10  13
BRANCH  11  15
HETATM   15  O2  UNL     1      25.764  -0.927  55.130  1.00  0.00    -0.353 OA
HETATM   16  C22 UNL     1      24.415  -1.228  55.401  1.00  0.00     0.210 C 
ENDBRANCH  11  15
ENDBRANCH   1   3
BRANCH   1  17
HETATM   17  C7  UNL     1      22.010   2.650  52.002  1.00  0.00     0.021 C 
HETATM   18  C8  UNL     1      20.946   3.425  52.183  1.00  0.00     0.055 C 
HETATM   19  C9  UNL     1      20.548   3.625  50.730  1.00  0.00     0.031 C 
HETATM   20  C10 UNL     1      21.365   3.024  49.867  1.00  0.00     0.014 C 
HETATM   21  N4  UNL     1      19.246   4.340  50.705  1.00  0.00    -0.359 N 
HETATM   22  C11 UNL     1      21.370   1.908  50.815  1.00  0.00     0.069 C 
HETATM   23  C12 UNL     1      20.159   1.153  51.071  1.00  0.00     0.082 C 
HETATM   24  S1  UNL     1      18.647   1.321  49.991  1.00  0.00    -0.190 SA
HETATM   25  C13 UNL     1      17.513   1.097  51.238  1.00  0.00     0.035 C 
HETATM   26  C18 UNL     1      18.135   2.770  48.802  1.00  0.00     0.124 C 
HETATM   27  C14 UNL     1      16.284   1.892  51.637  1.00  0.00     0.006 C 
HETATM   28  C15 UNL     1      16.083   3.225  51.355  1.00  0.00     0.002 C 
HETATM   29  C16 UNL     1      17.118   4.204  50.838  1.00  0.00     0.026 C 
HETATM   30  C17 UNL     1      18.045   3.759  49.997  1.00  0.00     0.018 C 
HETATM   31  H18 UNL     1      19.044   5.199  51.207  1.00  0.00     0.166 HD
ENDBRANCH   1  17
TORSDOF 4
ENDMDL
MODEL 9
REMARK VINA RESULT:      -7.6      3.647      8.347
REMARK  4 active torsions:
REMARK  status: ('A' for Active; 'I' for Inactive)
REMARK    1  A    between atoms: O1_2  and  C2_3 
REMARK    2  A    between atoms: C6_9  and  N3_10 
REMARK    3  A    between atoms: N3_10  and  C7_11 
REMARK    4  A    between atoms: C21_27  and  O2_28 
ROOT
HETATM    1  N3  UNL     1      23.766   5.229  52.022  1.00  0.00    -0.343 N 
HETATM    2  H6  UNL     1      23.827   5.872  52.842  1.00  0.00     0.167 HD
ENDROOT
BRANCH   1   3
HETATM    3  C6  UNL     1      23.282   3.898  51.904  1.00  0.00     0.141 A 
HETATM    4  N2  UNL     1      22.101   3.782  51.261  1.00  0.00    -0.224 NA
HETATM    5  C5  UNL     1      21.528   2.572  51.082  1.00  0.00     0.236 A 
HETATM    6  N1  UNL     1      22.107   1.425  51.536  1.00  0.00    -0.241 NA
HETATM    7  C4  UNL     1      23.284   1.559  52.174  1.00  0.00     0.075 A 
HETATM    8  C3  UNL     1      23.972   0.457  52.685  1.00  0.00     0.072 A 
HETATM    9  C19 UNL     1      23.898   2.779  52.375  1.00  0.00     0.042 A 
HETATM   10  C2  UNL     1      25.181   0.613  53.340  1.00  0.00     0.103 A 
HETATM   11  C21 UNL     1      25.758   1.875  53.517  1.00  0.00     0.102 A 
HETATM   12  C20 UNL     1      25.085   2.985  53.013  1.00  0.00     0.057 A 
BRANCH  10  13
HETATM   13  O1  UNL     1      25.898  -0.460  53.864  1.00  0.00    -0.353 OA
HETATM   14  C1  UNL     1      26.667  -1.322  53.046  1.00  0.00     0.210 C 
ENDBRANCH  10  13
BRANCH  11  15
HETATM   15  O2  UNL     1      26.971   2.005  54.177  1.00  0.00    -0.353 OA
HETATM   16  C22 UNL     1      28.120   2.259  53.403  1.00  0.00     0.210 C 
ENDBRANCH  11  15
ENDBRANCH   1   3
BRANCH   1  17
HETATM   17  C7  UNL     1      24.285   5.929  50.902  1.00  0.00     0.021 C 
HETATM   18  C8  UNL     1      24.797   7.154  50.965  1.00  0.00     0.055 C 
HETATM   19  C9  UNL     1      25.906   7.000  49.938  1.00  0.00     0.031 C 
HETATM   20  C10 UNL     1      25.978   5.779  49.410  1.00  0.00     0.014 C 
HETATM   21  N4  UNL     1      26.515   8.337  49.716  1.00  0.00    -0.359 N 
HETATM   22  C11 UNL     1      24.514   5.821  49.384  1.00  0.00     0.069 C 
HETATM   23  C12 UNL     1      23.820   6.768  48.533  1.00  0.00     0.082 C 
HETATM   24  S1  UNL     1      24.704   7.726  47.199  1.00  0.00    -0.190 SA
HETATM   25  C13 UNL     1      23.769   9.138  47.345  1.00  0.00     0.035 C 
HETATM   26  C18 UNL     1      26.596   8.131  47.019  1.00  0.00     0.124 C 
HETATM   27  C14 UNL     1      24.161  10.598  47.484  1.00  0.00     0.006 C 
HETATM   28  C15 UNL     1      25.365  11.045  47.980  1.00  0.00     0.002 C 
HETATM   29  C16 UNL     1      26.405  10.217  48.707  1.00  0.00     0.026 C 
HETATM   30  C17 UNL     1      26.577   8.952  48.338  1.00  0.00     0.018 C 
HETATM   31  H18 UNL     1      26.851   8.953  50.450  1.00  0.00     0.166 HD
ENDBRANCH   1  17
TORSDOF 4
ENDMDL
