MODEL 1
REMARK VINA RESULT:      -9.7      0.000      0.000
REMARK  5 active torsions:
REMARK  status: ('A' for Active; 'I' for Inactive)
REMARK    1  A    between atoms: C2_2  and  C3_3 
REMARK       I    between atoms: C3_3  and  N1_5 
REMARK    2  A    between atoms: N1_5  and  C4_6 
REMARK    3  A    between atoms: C10_14  and  N3_15 
REMARK    4  A    between atoms: N3_15  and  C11_16 
REMARK    5  A    between atoms: C21_27  and  O3_28 
ROOT
HETATM    1  C4  UNL     1      25.671  -0.101  53.095  1.00  0.00     0.062 C 
HETATM    2  C5  UNL     1      26.593  -1.150  53.231  1.00  0.00     0.031 C 
HETATM    3  C6  UNL     1      28.028  -1.585  53.419  1.00  0.00    -0.002 C 
HETATM    4  C7  UNL     1      29.256  -1.013  53.621  1.00  0.00    -0.026 C 
HETATM    5  C8  UNL     1      29.006   0.328  53.677  1.00  0.00     0.031 C 
HETATM    6  O2  UNL     1      28.754   1.686  53.734  1.00  0.00     0.000 OA
HETATM    7  C9  UNL     1      27.913   2.103  52.612  1.00  0.00     0.098 A 
HETATM    8  N2  UNL     1      27.467   2.635  51.496  1.00  0.00    -0.213 NA
HETATM    9  C10 UNL     1      26.242   2.497  50.962  1.00  0.00     0.229 A 
HETATM   10  N5  UNL     1      25.560   1.658  51.846  1.00  0.00    -0.213 NA
HETATM   11  C23 UNL     1      26.336   1.284  52.928  1.00  0.00     0.097 A 
HETATM   12  C24 UNL     1      27.484   1.300  53.644  1.00  0.00     0.162 A 
HETATM   13 CL1  UNL     1      26.982   0.255  55.020  1.00  0.00    -0.102 Cl
ENDROOT
BRANCH   9  14
HETATM   14  N3  UNL     1      26.447   3.299  49.832  1.00  0.00    -0.323 N 
HETATM   15  H10 UNL     1      27.187   2.962  49.172  1.00  0.00     0.169 HD
BRANCH  14  16
HETATM   16  C11 UNL     1      25.770   4.478  49.513  1.00  0.00     0.068 C 
HETATM   17  C12 UNL     1      24.479   4.546  49.862  1.00  0.00     0.032 C 
HETATM   18  C13 UNL     1      23.462   5.594  49.700  1.00  0.00    -0.001 C 
HETATM   19  C14 UNL     1      23.379   6.626  48.845  1.00  0.00    -0.020 C 
HETATM   20  C15 UNL     1      24.298   7.090  47.740  1.00  0.00     0.034 C 
HETATM   21  C16 UNL     1      23.519   7.925  46.800  1.00  0.00     0.012 C 
HETATM   22  C19 UNL     1      25.509   7.685  48.347  1.00  0.00     0.110 C 
HETATM   23  C17 UNL     1      23.972   9.341  46.633  1.00  0.00     0.020 C 
HETATM   24  C18 UNL     1      25.494   9.245  46.483  1.00  0.00     0.114 C 
HETATM   25  N4  UNL     1      26.012   8.865  47.761  1.00  0.00    -0.413 N 
HETATM   26  H21 UNL     1      26.103   9.678  48.386  1.00  0.00     0.153 HD
HETATM   27  C20 UNL     1      26.624   6.668  48.362  1.00  0.00     0.037 C 
HETATM   28  C21 UNL     1      26.696   5.411  48.830  1.00  0.00     0.093 C 
BRANCH  28  29
HETATM   29  O3  UNL     1      27.936   4.836  48.629  1.00  0.00    -0.354 OA
HETATM   30  C22 UNL     1      29.114   5.483  48.286  1.00  0.00     0.210 C 
ENDBRANCH  28  29
ENDBRANCH  14  16
ENDBRANCH   9  14
BRANCH   1  31
HETATM   31  N1  UNL     1      24.307  -0.438  52.957  1.00  0.00    -0.322 N 
HETATM   32  C3  UNL     1      23.467  -0.874  53.995  1.00  0.00     0.244 C 
HETATM   33  O1  UNL     1      23.822  -1.021  55.178  1.00  0.00    -0.268 OA
HETATM   34  H4  UNL     1      24.098  -0.291  51.944  1.00  0.00     0.169 HD
BRANCH  32  35
HETATM   35  C2  UNL     1      22.116  -1.133  53.496  1.00  0.00     0.064 C 
HETATM   36  C1  UNL     1      21.014  -1.522  54.148  1.00  0.00     0.017 C 
ENDBRANCH  32  35
ENDBRANCH   1  31
TORSDOF 5
ENDMDL
MODEL 2
REMARK VINA RESULT:      -9.5      5.110      8.163
REMARK  5 active torsions:
REMARK  status: ('A' for Active; 'I' for Inactive)
REMARK    1  A    between atoms: C2_2  and  C3_3 
REMARK       I    between atoms: C3_3  and  N1_5 
REMARK    2  A    between atoms: N1_5  and  C4_6 
REMARK    3  A    between atoms: C10_14  and  N3_15 
REMARK    4  A    between atoms: N3_15  and  C11_16 
REMARK    5  A    between atoms: C21_27  and  O3_28 
ROOT
HETATM    1  C4  UNL     1      32.360   4.728  46.983  1.00  0.00     0.062 C 
HETATM    2  C5  UNL     1      33.183   5.529  46.174  1.00  0.00     0.031 C 
HETATM    3  C6  UNL     1      33.842   6.867  45.936  1.00  0.00    -0.002 C 
HETATM    4  C7  UNL     1      33.967   8.076  46.568  1.00  0.00    -0.026 C 
HETATM    5  C8  UNL     1      33.294   7.922  47.745  1.00  0.00     0.031 C 
HETATM    6  O2  UNL     1      32.611   7.766  48.937  1.00  0.00     0.000 OA
HETATM    7  C9  UNL     1      31.291   7.180  48.705  1.00  0.00     0.098 A 
HETATM    8  N2  UNL     1      29.997   6.990  48.586  1.00  0.00    -0.213 NA
HETATM    9  C10 UNL     1      29.374   5.878  48.161  1.00  0.00     0.229 A 
HETATM   10  N5  UNL     1      30.405   4.983  47.865  1.00  0.00    -0.213 NA
HETATM   11  C23 UNL     1      31.658   5.515  48.112  1.00  0.00     0.097 A 
HETATM   12  C24 UNL     1      32.479   6.509  48.522  1.00  0.00     0.162 A 
HETATM   13 CL1  UNL     1      34.063   5.684  48.302  1.00  0.00    -0.102 Cl
ENDROOT
BRANCH   9  14
HETATM   14  N3  UNL     1      28.060   6.347  48.288  1.00  0.00    -0.323 N 
HETATM   15  H10 UNL     1      27.866   7.263  47.817  1.00  0.00     0.169 HD
BRANCH  14  16
HETATM   16  C11 UNL     1      27.013   5.720  48.966  1.00  0.00     0.068 C 
HETATM   17  C12 UNL     1      27.026   4.382  48.992  1.00  0.00     0.032 C 
HETATM   18  C13 UNL     1      26.119   3.393  49.590  1.00  0.00    -0.001 C 
HETATM   19  C14 UNL     1      24.830   3.478  49.957  1.00  0.00    -0.020 C 
HETATM   20  C15 UNL     1      23.841   4.618  49.893  1.00  0.00     0.034 C 
HETATM   21  C16 UNL     1      22.474   4.057  49.933  1.00  0.00     0.012 C 
HETATM   22  C19 UNL     1      24.205   5.620  50.918  1.00  0.00     0.110 C 
HETATM   23  C17 UNL     1      21.613   4.480  51.082  1.00  0.00     0.020 C 
HETATM   24  C18 UNL     1      21.817   5.995  51.181  1.00  0.00     0.114 C 
HETATM   25  N4  UNL     1      23.150   6.202  51.653  1.00  0.00    -0.413 N 
HETATM   26  H21 UNL     1      23.205   6.106  52.677  1.00  0.00     0.153 HD
HETATM   27  C20 UNL     1      24.992   6.739  50.282  1.00  0.00     0.037 C 
HETATM   28  C21 UNL     1      26.097   6.746  49.518  1.00  0.00     0.093 C 
BRANCH  28  29
HETATM   29  O3  UNL     1      26.483   8.020  49.148  1.00  0.00    -0.354 OA
HETATM   30  C22 UNL     1      26.591   9.134  49.967  1.00  0.00     0.210 C 
ENDBRANCH  28  29
ENDBRANCH  14  16
ENDBRANCH   9  14
BRANCH   1  31
HETATM   31  N1  UNL     1      32.144   3.392  46.583  1.00  0.00    -0.322 N 
HETATM   32  C3  UNL     1      32.742   2.262  47.163  1.00  0.00     0.244 C 
HETATM   33  O1  UNL     1      33.545   2.294  48.112  1.00  0.00    -0.268 OA
HETATM   34  H4  UNL     1      31.468   3.459  45.789  1.00  0.00     0.169 HD
BRANCH  32  35
HETATM   35  C2  UNL     1      32.290   1.038  46.501  1.00  0.00     0.064 C 
HETATM   36  C1  UNL     1      32.044  -0.178  47.005  1.00  0.00     0.017 C 
ENDBRANCH  32  35
ENDBRANCH   1  31
TORSDOF 5
ENDMDL
MODEL 3
REMARK VINA RESULT:      -9.4      2.202      4.554
REMARK  5 active torsions:
REMARK  status: ('A' for Active; 'I' for Inactive)
REMARK    1  A    between atoms: C2_2  and  C3_3 
REMARK       I    between atoms: C3_3  and  N1_5 
REMARK    2  A    between atoms: N1_5  and  C4_6 
REMARK    3  A    between atoms: C10_14  and  N3_15 
REMARK    4  A    between atoms: N3_15  and  C11_16 
REMARK    5  A    between atoms: C21_27  and  O3_28 
ROOT
HETATM    1  C4  UNL     1      24.498  -0.284  53.213  1.00  0.00     0.062 C 
HETATM    2  C5  UNL     1      23.755  -0.580  54.367  1.00  0.00     0.031 C 
HETATM    3  C6  UNL     1      22.436  -0.512  55.101  1.00  0.00    -0.002 C 
HETATM    4  C7  UNL     1      21.155  -0.087  54.871  1.00  0.00    -0.026 C 
HETATM    5  C8  UNL     1      21.166   0.363  53.582  1.00  0.00     0.031 C 
HETATM    6  O2  UNL     1      21.178   0.819  52.277  1.00  0.00     0.000 OA
HETATM    7  C9  UNL     1      22.312   1.715  52.053  1.00  0.00     0.098 A 
HETATM    8  N2  UNL     1      23.065   2.770  51.836  1.00  0.00    -0.213 NA
HETATM    9  C10 UNL     1      24.407   2.815  51.794  1.00  0.00     0.229 A 
HETATM   10  N5  UNL     1      24.817   1.503  52.042  1.00  0.00    -0.213 NA
HETATM   11  C23 UNL     1      23.752   0.640  52.224  1.00  0.00     0.097 A 
HETATM   12  C24 UNL     1      22.429   0.364  52.289  1.00  0.00     0.162 A 
HETATM   13 CL1  UNL     1      22.517  -1.405  52.603  1.00  0.00    -0.102 Cl
ENDROOT
BRANCH   9  14
HETATM   14  N3  UNL     1      24.533   4.185  51.527  1.00  0.00    -0.323 N 
HETATM   15  H10 UNL     1      24.027   4.818  52.191  1.00  0.00     0.169 HD
BRANCH  14  16
HETATM   16  C11 UNL     1      25.254   4.768  50.483  1.00  0.00     0.068 C 
HETATM   17  C12 UNL     1      26.292   4.072  50.004  1.00  0.00     0.032 C 
HETATM   18  C13 UNL     1      27.263   4.348  48.937  1.00  0.00    -0.001 C 
HETATM   19  C14 UNL     1      27.661   5.501  48.375  1.00  0.00    -0.020 C 
HETATM   20  C15 UNL     1      27.256   6.934  48.629  1.00  0.00     0.034 C 
HETATM   21  C16 UNL     1      28.328   7.821  48.131  1.00  0.00     0.012 C 
HETATM   22  C19 UNL     1      25.889   7.141  48.102  1.00  0.00     0.110 C 
HETATM   23  C17 UNL     1      27.948   8.784  47.050  1.00  0.00     0.020 C 
HETATM   24  C18 UNL     1      26.619   9.386  47.518  1.00  0.00     0.114 C 
HETATM   25  N4  UNL     1      25.639   8.350  47.418  1.00  0.00    -0.413 N 
HETATM   26  H21 UNL     1      25.284   8.260  46.455  1.00  0.00     0.153 HD
HETATM   27  C20 UNL     1      24.887   7.033  49.224  1.00  0.00     0.037 C 
HETATM   28  C21 UNL     1      24.660   6.083  50.147  1.00  0.00     0.093 C 
BRANCH  28  29
HETATM   29  O3  UNL     1      23.621   6.402  50.999  1.00  0.00    -0.354 OA
HETATM   30  C22 UNL     1      22.434   7.041  50.670  1.00  0.00     0.210 C 
ENDBRANCH  28  29
ENDBRANCH  14  16
ENDBRANCH   9  14
BRANCH   1  31
HETATM   31  N1  UNL     1      25.845  -0.703  53.171  1.00  0.00    -0.322 N 
HETATM   32  C3  UNL     1      26.892  -0.150  53.926  1.00  0.00     0.244 C 
HETATM   33  O1  UNL     1      26.765   0.788  54.733  1.00  0.00    -0.268 OA
HETATM   34  H4  UNL     1      25.860  -1.481  52.475  1.00  0.00     0.169 HD
BRANCH  32  35
HETATM   35  C2  UNL     1      28.156  -0.829  53.635  1.00  0.00     0.064 C 
HETATM   36  C1  UNL     1      29.415  -0.384  53.723  1.00  0.00     0.017 C 
ENDBRANCH  32  35
ENDBRANCH   1  31
TORSDOF 5
ENDMDL
MODEL 4
REMARK VINA RESULT:      -9.0      2.026      2.482
REMARK  5 active torsions:
REMARK  status: ('A' for Active; 'I' for Inactive)
REMARK    1  A    between atoms: C2_2  and  C3_3 
REMARK       I    between atoms: C3_3  and  N1_5 
REMARK    2  A    between atoms: N1_5  and  C4_6 
REMARK    3  A    between atoms: C10_14  and  N3_15 
REMARK    4  A    between atoms: N3_15  and  C11_16 
REMARK    5  A    between atoms: C21_27  and  O3_28 
ROOT
HETATM    1  C4  UNL     1      25.138  -0.132  53.322  1.00  0.00     0.062 C 
HETATM    2  C5  UNL     1      26.105  -1.148  53.266  1.00  0.00     0.031 C 
HETATM    3  C6  UNL     1      27.565  -1.533  53.194  1.00  0.00    -0.002 C 
HETATM    4  C7  UNL     1      28.789  -0.919  53.203  1.00  0.00    -0.026 C 
HETATM    5  C8  UNL     1      28.508   0.410  53.344  1.00  0.00     0.031 C 
HETATM    6  O2  UNL     1      28.223   1.755  53.487  1.00  0.00     0.000 OA
HETATM    7  C9  UNL     1      27.190   2.168  52.538  1.00  0.00     0.098 A 
HETATM    8  N2  UNL     1      26.543   2.712  51.531  1.00  0.00    -0.213 NA
HETATM    9  C10 UNL     1      25.251   2.541  51.208  1.00  0.00     0.229 A 
HETATM   10  N5  UNL     1      24.757   1.654  52.167  1.00  0.00    -0.213 NA
HETATM   11  C23 UNL     1      25.718   1.281  53.090  1.00  0.00     0.097 A 
HETATM   12  C24 UNL     1      26.970   1.323  53.601  1.00  0.00     0.162 A 
HETATM   13 CL1  UNL     1      26.745   0.223  55.008  1.00  0.00    -0.102 Cl
ENDROOT
BRANCH   9  14
HETATM   14  N3  UNL     1      25.232   3.380  50.087  1.00  0.00    -0.323 N 
HETATM   15  H10 UNL     1      26.144   3.845  49.862  1.00  0.00     0.169 HD
BRANCH  14  16
HETATM   16  C11 UNL     1      24.137   3.646  49.262  1.00  0.00     0.068 C 
HETATM   17  C12 UNL     1      23.313   2.623  49.005  1.00  0.00     0.032 C 
HETATM   18  C13 UNL     1      22.088   2.515  48.203  1.00  0.00    -0.001 C 
HETATM   19  C14 UNL     1      21.620   3.264  47.191  1.00  0.00    -0.020 C 
HETATM   20  C15 UNL     1      22.177   4.491  46.509  1.00  0.00     0.034 C 
HETATM   21  C16 UNL     1      21.560   4.607  45.171  1.00  0.00     0.012 C 
HETATM   22  C19 UNL     1      22.050   5.644  47.429  1.00  0.00     0.110 C 
HETATM   23  C17 UNL     1      20.765   5.848  44.909  1.00  0.00     0.020 C 
HETATM   24  C18 UNL     1      21.639   6.987  45.445  1.00  0.00     0.114 C 
HETATM   25  N4  UNL     1      21.639   6.872  46.870  1.00  0.00    -0.413 N 
HETATM   26  H21 UNL     1      20.795   7.296  47.280  1.00  0.00     0.153 HD
HETATM   27  C20 UNL     1      23.362   5.878  48.137  1.00  0.00     0.037 C 
HETATM   28  C21 UNL     1      24.161   5.070  48.853  1.00  0.00     0.093 C 
BRANCH  28  29
HETATM   29  O3  UNL     1      25.286   5.715  49.328  1.00  0.00    -0.354 OA
HETATM   30  C22 UNL     1      26.261   6.360  48.582  1.00  0.00     0.210 C 
ENDBRANCH  28  29
ENDBRANCH  14  16
ENDBRANCH   9  14
BRANCH   1  31
HETATM   31  N1  UNL     1      23.782  -0.518  53.406  1.00  0.00    -0.322 N 
HETATM   32  C3  UNL     1      23.163  -1.072  54.538  1.00  0.00     0.244 C 
HETATM   33  O1  UNL     1      23.735  -1.297  55.619  1.00  0.00    -0.268 OA
HETATM   34  H4  UNL     1      23.386  -0.300  52.465  1.00  0.00     0.169 HD
BRANCH  32  35
HETATM   35  C2  UNL     1      21.751  -1.350  54.272  1.00  0.00     0.064 C 
HETATM   36  C1  UNL     1      20.773  -0.535  53.861  1.00  0.00     0.017 C 
ENDBRANCH  32  35
ENDBRANCH   1  31
TORSDOF 5
ENDMDL
MODEL 5
REMARK VINA RESULT:      -8.5      3.112      5.869
REMARK  5 active torsions:
REMARK  status: ('A' for Active; 'I' for Inactive)
REMARK    1  A    between atoms: C2_2  and  C3_3 
REMARK       I    between atoms: C3_3  and  N1_5 
REMARK    2  A    between atoms: N1_5  and  C4_6 
REMARK    3  A    between atoms: C10_14  and  N3_15 
REMARK    4  A    between atoms: N3_15  and  C11_16 
REMARK    5  A    between atoms: C21_27  and  O3_28 
ROOT
HETATM    1  C4  UNL     1      25.099   2.981  51.681  1.00  0.00     0.062 C 
HETATM    2  C5  UNL     1      23.960   3.170  52.480  1.00  0.00     0.031 C 
HETATM    3  C6  UNL     1      22.490   3.508  52.565  1.00  0.00    -0.002 C 
HETATM    4  C7  UNL     1      21.447   3.775  51.717  1.00  0.00    -0.026 C 
HETATM    5  C8  UNL     1      21.981   3.656  50.466  1.00  0.00     0.031 C 
HETATM    6  O2  UNL     1      22.521   3.535  49.199  1.00  0.00     0.000 OA
HETATM    7  C9  UNL     1      23.774   4.283  49.098  1.00  0.00     0.098 A 
HETATM    8  N2  UNL     1      24.695   5.170  48.797  1.00  0.00    -0.213 NA
HETATM    9  C10 UNL     1      25.956   5.220  49.257  1.00  0.00     0.229 A 
HETATM   10  N5  UNL     1      26.062   4.135  50.129  1.00  0.00    -0.213 NA
HETATM   11  C23 UNL     1      24.892   3.401  50.208  1.00  0.00     0.097 A 
HETATM   12  C24 UNL     1      23.607   3.151  49.864  1.00  0.00     0.162 A 
HETATM   13 CL1  UNL     1      23.329   1.668  50.845  1.00  0.00    -0.102 Cl
ENDROOT
BRANCH   9  14
HETATM   14  N3  UNL     1      26.360   6.361  48.552  1.00  0.00    -0.323 N 
HETATM   15  H10 UNL     1      25.590   7.024  48.296  1.00  0.00     0.169 HD
BRANCH  14  16
HETATM   16  C11 UNL     1      27.662   6.687  48.168  1.00  0.00     0.068 C 
HETATM   17  C12 UNL     1      28.581   5.719  48.271  1.00  0.00     0.032 C 
HETATM   18  C13 UNL     1      30.019   5.681  47.972  1.00  0.00    -0.001 C 
HETATM   19  C14 UNL     1      30.931   6.662  47.873  1.00  0.00    -0.020 C 
HETATM   20  C15 UNL     1      30.816   8.160  48.028  1.00  0.00     0.034 C 
HETATM   21  C16 UNL     1      32.157   8.707  48.325  1.00  0.00     0.012 C 
HETATM   22  C19 UNL     1      30.095   8.704  46.856  1.00  0.00     0.110 C 
HETATM   23  C17 UNL     1      32.709   9.691  47.342  1.00  0.00     0.020 C 
HETATM   24  C18 UNL     1      31.545  10.645  47.056  1.00  0.00     0.114 C 
HETATM   25  N4  UNL     1      30.582   9.907  46.301  1.00  0.00    -0.413 N 
HETATM   26  H21 UNL     1      30.831   9.876  45.303  1.00  0.00     0.153 HD
HETATM   27  C20 UNL     1      28.642   8.914  47.204  1.00  0.00     0.037 C 
HETATM   28  C21 UNL     1      27.708   8.098  47.720  1.00  0.00     0.093 C 
BRANCH  28  29
HETATM   29  O3  UNL     1      26.483   8.719  47.876  1.00  0.00    -0.354 OA
HETATM   30  C22 UNL     1      26.237   9.952  48.461  1.00  0.00     0.210 C 
ENDBRANCH  28  29
ENDBRANCH  14  16
ENDBRANCH   9  14
BRANCH   1  31
HETATM   31  N1  UNL     1      26.299   2.609  52.324  1.00  0.00    -0.322 N 
HETATM   32  C3  UNL     1      26.842   1.314  52.348  1.00  0.00     0.244 C 
HETATM   33  O1  UNL     1      26.328   0.321  51.803  1.00  0.00    -0.268 OA
HETATM   34  H4  UNL     1      26.655   3.492  52.752  1.00  0.00     0.169 HD
BRANCH  32  35
HETATM   35  C2  UNL     1      28.095   1.290  53.103  1.00  0.00     0.064 C 
HETATM   36  C1  UNL     1      28.730   2.273  53.754  1.00  0.00     0.017 C 
ENDBRANCH  32  35
ENDBRANCH   1  31
TORSDOF 5
ENDMDL
MODEL 6
REMARK VINA RESULT:      -8.4      3.509      7.005
REMARK  5 active torsions:
REMARK  status: ('A' for Active; 'I' for Inactive)
REMARK    1  A    between atoms: C2_2  and  C3_3 
REMARK       I    between atoms: C3_3  and  N1_5 
REMARK    2  A    between atoms: N1_5  and  C4_6 
REMARK    3  A    between atoms: C10_14  and  N3_15 
REMARK    4  A    between atoms: N3_15  and  C11_16 
REMARK    5  A    between atoms: C21_27  and  O3_28 
ROOT
HETATM    1  C4  UNL     1      24.524   4.191  50.821  1.00  0.00     0.062 C 
HETATM    2  C5  UNL     1      23.417   4.752  51.477  1.00  0.00     0.031 C 
HETATM    3  C6  UNL     1      22.252   5.715  51.441  1.00  0.00    -0.002 C 
HETATM    4  C7  UNL     1      21.655   6.571  50.554  1.00  0.00    -0.026 C 
HETATM    5  C8  UNL     1      22.370   6.425  49.400  1.00  0.00     0.031 C 
HETATM    6  O2  UNL     1      23.093   6.278  48.231  1.00  0.00     0.000 OA
HETATM    7  C9  UNL     1      24.529   6.364  48.498  1.00  0.00     0.098 A 
HETATM    8  N2  UNL     1      25.781   6.758  48.563  1.00  0.00    -0.213 NA
HETATM    9  C10 UNL     1      26.795   6.141  49.191  1.00  0.00     0.229 A 
HETATM   10  N5  UNL     1      26.223   5.004  49.763  1.00  0.00    -0.213 NA
HETATM   11  C23 UNL     1      24.871   4.895  49.490  1.00  0.00     0.097 A 
HETATM   12  C24 UNL     1      23.724   5.330  48.919  1.00  0.00     0.162 A 
HETATM   13 CL1  UNL     1      22.621   4.008  49.442  1.00  0.00    -0.102 Cl
ENDROOT
BRANCH   9  14
HETATM   14  N3  UNL     1      27.798   7.063  48.862  1.00  0.00    -0.323 N 
HETATM   15  H10 UNL     1      27.517   8.070  48.924  1.00  0.00     0.169 HD
BRANCH  14  16
HETATM   16  C11 UNL     1      29.105   6.768  48.468  1.00  0.00     0.068 C 
HETATM   17  C12 UNL     1      29.344   5.517  48.057  1.00  0.00     0.032 C 
HETATM   18  C13 UNL     1      30.560   4.845  47.579  1.00  0.00    -0.001 C 
HETATM   19  C14 UNL     1      31.860   5.133  47.755  1.00  0.00    -0.020 C 
HETATM   20  C15 UNL     1      32.550   6.249  48.502  1.00  0.00     0.034 C 
HETATM   21  C16 UNL     1      33.932   5.826  48.810  1.00  0.00     0.012 C 
HETATM   22  C19 UNL     1      32.367   7.509  47.748  1.00  0.00     0.110 C 
HETATM   23  C17 UNL     1      35.030   6.662  48.232  1.00  0.00     0.020 C 
HETATM   24  C18 UNL     1      34.599   8.108  48.503  1.00  0.00     0.114 C 
HETATM   25  N4  UNL     1      33.480   8.371  47.653  1.00  0.00    -0.413 N 
HETATM   26  H21 UNL     1      33.782   8.617  46.700  1.00  0.00     0.153 HD
HETATM   27  C20 UNL     1      31.225   8.298  48.340  1.00  0.00     0.037 C 
HETATM   28  C21 UNL     1      29.949   7.978  48.611  1.00  0.00     0.093 C 
BRANCH  28  29
HETATM   29  O3  UNL     1      29.239   9.028  49.161  1.00  0.00    -0.354 OA
HETATM   30  C22 UNL     1      29.341  10.372  48.832  1.00  0.00     0.210 C 
ENDBRANCH  28  29
ENDBRANCH  14  16
ENDBRANCH   9  14
BRANCH   1  31
HETATM   31  N1  UNL     1      25.264   3.204  51.507  1.00  0.00    -0.322 N 
HETATM   32  C3  UNL     1      24.869   1.868  51.685  1.00  0.00     0.244 C 
HETATM   33  O1  UNL     1      23.807   1.380  51.259  1.00  0.00    -0.268 OA
HETATM   34  H4  UNL     1      26.127   3.696  51.830  1.00  0.00     0.169 HD
BRANCH  32  35
HETATM   35  C2  UNL     1      25.878   1.125  52.442  1.00  0.00     0.064 C 
HETATM   36  C1  UNL     1      26.494  -0.029  52.159  1.00  0.00     0.017 C 
ENDBRANCH  32  35
ENDBRANCH   1  31
TORSDOF 5
ENDMDL
MODEL 7
REMARK VINA RESULT:      -8.4      4.689      8.802
REMARK  5 active torsions:
REMARK  status: ('A' for Active; 'I' for Inactive)
REMARK    1  A    between atoms: C2_2  and  C3_3 
REMARK       I    between atoms: C3_3  and  N1_5 
REMARK    2  A    between atoms: N1_5  and  C4_6 
REMARK    3  A    between atoms: C10_14  and  N3_15 
REMARK    4  A    between atoms: N3_15  and  C11_16 
REMARK    5  A    between atoms: C21_27  and  O3_28 
ROOT
HETATM    1  C4  UNL     1      31.311   7.018  47.247  1.00  0.00     0.062 C 
HETATM    2  C5  UNL     1      31.738   8.135  46.511  1.00  0.00     0.031 C 
HETATM    3  C6  UNL     1      31.801   9.639  46.376  1.00  0.00    -0.002 C 
HETATM    4  C7  UNL     1      31.431  10.750  47.087  1.00  0.00    -0.026 C 
HETATM    5  C8  UNL     1      30.882  10.257  48.236  1.00  0.00     0.031 C 
HETATM    6  O2  UNL     1      30.326   9.758  49.399  1.00  0.00     0.000 OA
HETATM    7  C9  UNL     1      29.352   8.708  49.097  1.00  0.00     0.098 A 
HETATM    8  N2  UNL     1      28.244   8.022  48.936  1.00  0.00    -0.213 NA
HETATM    9  C10 UNL     1      28.120   6.786  48.425  1.00  0.00     0.229 A 
HETATM   10  N5  UNL     1      29.422   6.403  48.096  1.00  0.00    -0.213 NA
HETATM   11  C23 UNL     1      30.356   7.376  48.407  1.00  0.00     0.097 A 
HETATM   12  C24 UNL     1      30.709   8.586  48.900  1.00  0.00     0.162 A 
HETATM   13 CL1  UNL     1      32.490   8.485  48.665  1.00  0.00    -0.102 Cl
ENDROOT
BRANCH   9  14
HETATM   14  N3  UNL     1      26.729   6.677  48.551  1.00  0.00    -0.323 N 
HETATM   15  H10 UNL     1      26.175   7.371  47.995  1.00  0.00     0.169 HD
BRANCH  14  16
HETATM   16  C11 UNL     1      26.032   5.751  49.329  1.00  0.00     0.068 C 
HETATM   17  C12 UNL     1      26.459   4.483  49.285  1.00  0.00     0.032 C 
HETATM   18  C13 UNL     1      25.994   3.256  49.947  1.00  0.00    -0.001 C 
HETATM   19  C14 UNL     1      24.807   2.934  50.485  1.00  0.00    -0.020 C 
HETATM   20  C15 UNL     1      23.517   3.709  50.610  1.00  0.00     0.034 C 
HETATM   21  C16 UNL     1      22.408   2.750  50.801  1.00  0.00     0.012 C 
HETATM   22  C19 UNL     1      23.696   4.767  51.628  1.00  0.00     0.110 C 
HETATM   23  C17 UNL     1      21.631   2.875  52.074  1.00  0.00     0.020 C 
HETATM   24  C18 UNL     1      21.370   4.378  52.222  1.00  0.00     0.114 C 
HETATM   25  N4  UNL     1      22.628   4.987  52.524  1.00  0.00    -0.413 N 
HETATM   26  H21 UNL     1      22.854   4.906  53.525  1.00  0.00     0.153 HD
HETATM   27  C20 UNL     1      24.003   6.080  50.950  1.00  0.00     0.037 C 
HETATM   28  C21 UNL     1      24.933   6.437  50.048  1.00  0.00     0.093 C 
BRANCH  28  29
HETATM   29  O3  UNL     1      24.852   7.770  49.695  1.00  0.00    -0.354 OA
HETATM   30  C22 UNL     1      23.701   8.499  49.434  1.00  0.00     0.210 C 
ENDBRANCH  28  29
ENDBRANCH  14  16
ENDBRANCH   9  14
BRANCH   1  31
HETATM   31  N1  UNL     1      31.649   5.739  46.755  1.00  0.00    -0.322 N 
HETATM   32  C3  UNL     1      32.060   4.649  47.539  1.00  0.00     0.244 C 
HETATM   33  O1  UNL     1      32.179   4.672  48.777  1.00  0.00    -0.268 OA
HETATM   34  H4  UNL     1      31.526   5.811  45.721  1.00  0.00     0.169 HD
BRANCH  32  35
HETATM   35  C2  UNL     1      32.328   3.479  46.702  1.00  0.00     0.064 C 
HETATM   36  C1  UNL     1      33.007   2.359  46.975  1.00  0.00     0.017 C 
ENDBRANCH  32  35
ENDBRANCH   1  31
TORSDOF 5
ENDMDL
MODEL 8
REMARK VINA RESULT:      -8.3      2.950      5.108
REMARK  5 active torsions:
REMARK  status: ('A' for Active; 'I' for Inactive)
REMARK    1  A    between atoms: C2_2  and  C3_3 
REMARK       I    between atoms: C3_3  and  N1_5 
REMARK    2  A    between atoms: N1_5  and  C4_6 
REMARK    3  A    between atoms: C10_14  and  N3_15 
REMARK    4  A    between atoms: N3_15  and  C11_16 
REMARK    5  A    between atoms: C21_27  and  O3_28 
ROOT
HETATM    1  C4  UNL     1      23.376   1.533  52.461  1.00  0.00     0.062 C 
HETATM    2  C5  UNL     1      22.121   1.443  53.084  1.00  0.00     0.031 C 
HETATM    3  C6  UNL     1      20.616   1.442  52.950  1.00  0.00    -0.002 C 
HETATM    4  C7  UNL     1      19.674   1.491  51.957  1.00  0.00    -0.026 C 
HETATM    5  C8  UNL     1      20.395   1.525  50.799  1.00  0.00     0.031 C 
HETATM    6  O2  UNL     1      21.126   1.560  49.626  1.00  0.00     0.000 OA
HETATM    7  C9  UNL     1      22.180   2.571  49.703  1.00  0.00     0.098 A 
HETATM    8  N2  UNL     1      22.912   3.648  49.532  1.00  0.00    -0.213 NA
HETATM    9  C10 UNL     1      24.050   3.968  50.172  1.00  0.00     0.229 A 
HETATM   10  N5  UNL     1      24.270   2.912  51.058  1.00  0.00    -0.213 NA
HETATM   11  C23 UNL     1      23.295   1.934  50.971  1.00  0.00     0.097 A 
HETATM   12  C24 UNL     1      22.163   1.412  50.445  1.00  0.00     0.162 A 
HETATM   13 CL1  UNL     1      22.086  -0.120  51.387  1.00  0.00    -0.102 Cl
ENDROOT
BRANCH   9  14
HETATM   14  N3  UNL     1      24.284   5.187  49.523  1.00  0.00    -0.323 N 
HETATM   15  H10 UNL     1      23.459   5.831  49.469  1.00  0.00     0.169 HD
BRANCH  14  16
HETATM   16  C11 UNL     1      25.488   5.613  48.958  1.00  0.00     0.068 C 
HETATM   17  C12 UNL     1      26.526   4.772  49.045  1.00  0.00     0.032 C 
HETATM   18  C13 UNL     1      27.918   4.863  48.582  1.00  0.00    -0.001 C 
HETATM   19  C14 UNL     1      28.685   5.923  48.280  1.00  0.00    -0.020 C 
HETATM   20  C15 UNL     1      28.401   7.406  48.299  1.00  0.00     0.034 C 
HETATM   21  C16 UNL     1      29.687   8.130  48.381  1.00  0.00     0.012 C 
HETATM   22  C19 UNL     1      27.497   7.732  47.174  1.00  0.00     0.110 C 
HETATM   23  C17 UNL     1      30.005   9.055  47.247  1.00  0.00     0.020 C 
HETATM   24  C18 UNL     1      28.708   9.834  47.009  1.00  0.00     0.114 C 
HETATM   25  N4  UNL     1      27.769   8.912  46.450  1.00  0.00    -0.413 N 
HETATM   26  H21 UNL     1      27.912   8.799  45.437  1.00  0.00     0.153 HD
HETATM   27  C20 UNL     1      26.075   7.815  47.670  1.00  0.00     0.037 C 
HETATM   28  C21 UNL     1      25.309   6.961  48.371  1.00  0.00     0.093 C 
BRANCH  28  29
HETATM   29  O3  UNL     1      24.041   7.453  48.610  1.00  0.00    -0.354 OA
HETATM   30  C22 UNL     1      23.705   8.720  49.065  1.00  0.00     0.210 C 
ENDBRANCH  28  29
ENDBRANCH  14  16
ENDBRANCH   9  14
BRANCH   1  31
HETATM   31  N1  UNL     1      24.524   1.423  53.276  1.00  0.00    -0.322 N 
HETATM   32  C3  UNL     1      25.206   0.229  53.563  1.00  0.00     0.244 C 
HETATM   33  O1  UNL     1      24.882  -0.892  53.134  1.00  0.00    -0.268 OA
HETATM   34  H4  UNL     1      24.720   2.398  53.592  1.00  0.00     0.169 HD
BRANCH  32  35
HETATM   35  C2  UNL     1      26.352   0.484  54.438  1.00  0.00     0.064 C 
HETATM   36  C1  UNL     1      27.652   0.609  54.144  1.00  0.00     0.017 C 
ENDBRANCH  32  35
ENDBRANCH   1  31
TORSDOF 5
ENDMDL
MODEL 9
REMARK VINA RESULT:      -8.1      3.131      5.335
REMARK  5 active torsions:
REMARK  status: ('A' for Active; 'I' for Inactive)
REMARK    1  A    between atoms: C2_2  and  C3_3 
REMARK       I    between atoms: C3_3  and  N1_5 
REMARK    2  A    between atoms: N1_5  and  C4_6 
REMARK    3  A    between atoms: C10_14  and  N3_15 
REMARK    4  A    between atoms: N3_15  and  C11_16 
REMARK    5  A    between atoms: C21_27  and  O3_28 
ROOT
HETATM    1  C4  UNL     1      24.554   3.160  52.008  1.00  0.00     0.062 C 
HETATM    2  C5  UNL     1      23.406   3.718  52.594  1.00  0.00     0.031 C 
HETATM    3  C6  UNL     1      22.043   4.344  52.411  1.00  0.00    -0.002 C 
HETATM    4  C7  UNL     1      21.178   4.638  51.391  1.00  0.00    -0.026 C 
HETATM    5  C8  UNL     1      21.800   4.178  50.267  1.00  0.00     0.031 C 
HETATM    6  O2  UNL     1      22.431   3.711  49.128  1.00  0.00     0.000 OA
HETATM    7  C9  UNL     1      23.819   4.168  49.082  1.00  0.00     0.098 A 
HETATM    8  N2  UNL     1      24.937   4.785  48.770  1.00  0.00    -0.213 NA
HETATM    9  C10 UNL     1      26.124   4.679  49.390  1.00  0.00     0.229 A 
HETATM   10  N5  UNL     1      25.901   3.783  50.438  1.00  0.00    -0.213 NA
HETATM   11  C23 UNL     1      24.598   3.319  50.472  1.00  0.00     0.097 A 
HETATM   12  C24 UNL     1      23.333   3.260  49.995  1.00  0.00     0.162 A 
HETATM   13 CL1  UNL     1      22.639   2.079  51.161  1.00  0.00    -0.102 Cl
ENDROOT
BRANCH   9  14
HETATM   14  N3  UNL     1      26.836   5.561  48.568  1.00  0.00    -0.323 N 
HETATM   15  H10 UNL     1      27.025   5.214  47.598  1.00  0.00     0.169 HD
BRANCH  14  16
HETATM   16  C11 UNL     1      27.305   6.830  48.915  1.00  0.00     0.068 C 
HETATM   17  C12 UNL     1      26.439   7.647  49.525  1.00  0.00     0.032 C 
HETATM   18  C13 UNL     1      26.558   9.022  50.028  1.00  0.00    -0.001 C 
HETATM   19  C14 UNL     1      27.410  10.012  49.713  1.00  0.00    -0.020 C 
HETATM   20  C15 UNL     1      28.556  10.076  48.732  1.00  0.00     0.034 C 
HETATM   21  C16 UNL     1      28.820  11.494  48.408  1.00  0.00     0.012 C 
HETATM   22  C19 UNL     1      29.679   9.270  49.260  1.00  0.00     0.110 C 
HETATM   23  C17 UNL     1      30.181  12.014  48.749  1.00  0.00     0.020 C 
HETATM   24  C18 UNL     1      31.144  10.930  48.255  1.00  0.00     0.114 C 
HETATM   25  N4  UNL     1      30.977   9.804  49.120  1.00  0.00    -0.413 N 
HETATM   26  H21 UNL     1      31.516   9.917  49.990  1.00  0.00     0.153 HD
HETATM   27  C20 UNL     1      29.673   7.905  48.618  1.00  0.00     0.037 C 
HETATM   28  C21 UNL     1      28.721   6.965  48.499  1.00  0.00     0.093 C 
BRANCH  28  29
HETATM   29  O3  UNL     1      29.158   5.843  47.821  1.00  0.00    -0.354 OA
HETATM   30  C22 UNL     1      30.448   5.333  47.789  1.00  0.00     0.210 C 
ENDBRANCH  28  29
ENDBRANCH  14  16
ENDBRANCH   9  14
BRANCH   1  31
HETATM   31  N1  UNL     1      25.572   2.695  52.869  1.00  0.00    -0.322 N 
HETATM   32  C3  UNL     1      25.932   1.350  53.051  1.00  0.00     0.244 C 
HETATM   33  O1  UNL     1      25.394   0.389  52.472  1.00  0.00    -0.268 OA
HETATM   34  H4  UNL     1      25.961   3.558  53.310  1.00  0.00     0.169 HD
BRANCH  32  35
HETATM   35  C2  UNL     1      27.027   1.231  54.014  1.00  0.00     0.064 C 
HETATM   36  C1  UNL     1      27.839   0.200  54.276  1.00  0.00     0.017 C 
ENDBRANCH  32  35
ENDBRANCH   1  31
TORSDOF 5
ENDMDL
