MODEL 1
REMARK VINA RESULT:      -7.6      0.000      0.000
REMARK  4 active torsions:
REMARK  status: ('A' for Active; 'I' for Inactive)
REMARK    1  A    between atoms: C3_3  and  C4_4 
REMARK    2  A    between atoms: C5_5  and  C6_6 
REMARK    3  A    between atoms: C6_6  and  C7_7 
REMARK    4  A    between atoms: C7_7  and  C8_8 
ROOT
HETATM    1  C8  UNL     1      25.245   0.566  53.490  1.00  0.00     0.091 A 
HETATM    2  N1  UNL     1      24.943   1.843  53.891  1.00  0.00    -0.131 NA
HETATM    3  O1  UNL     1      25.990   2.579  53.957  1.00  0.00    -0.215 OA
HETATM    4  C9  UNL     1      27.067   1.940  53.632  1.00  0.00     0.111 A 
HETATM    5  C10 UNL     1      26.607   0.663  53.333  1.00  0.00     0.097 A 
HETATM    6  N2  UNL     1      27.314  -0.471  52.908  1.00  0.00    -0.309 N 
HETATM    7  C11 UNL     1      26.838  -1.573  52.113  1.00  0.00     0.234 C 
HETATM    8  N3  UNL     1      27.528  -2.619  52.527  1.00  0.00    -0.172 NA
HETATM    9  N4  UNL     1      28.428  -2.226  53.555  1.00  0.00    -0.286 N 
HETATM   10  C12 UNL     1      28.697  -0.861  53.142  1.00  0.00     0.231 C 
HETATM   11  C13 UNL     1      29.416  -0.034  54.094  1.00  0.00     0.017 C 
HETATM   12  C14 UNL     1      29.346   1.301  54.270  1.00  0.00    -0.020 C 
HETATM   13  C15 UNL     1      28.517   2.303  53.543  1.00  0.00     0.096 C 
HETATM   14  H13 UNL     1      28.703  -2.879  54.319  1.00  0.00     0.185 HD
ENDROOT
BRANCH   1  15
HETATM   15  C7  UNL     1      24.253  -0.522  53.348  1.00  0.00     0.068 C 
BRANCH  15  16
HETATM   16  C6  UNL     1      23.594  -0.816  54.714  1.00  0.00     0.033 C 
BRANCH  16  17
HETATM   17  C5  UNL     1      22.119  -0.814  54.577  1.00  0.00    -0.026 C 
HETATM   18  C4  UNL     1      21.338  -0.639  53.526  1.00  0.00    -0.004 C 
BRANCH  18  19
HETATM   19  C3  UNL     1      19.902  -0.648  53.454  1.00  0.00    -0.005 C 
HETATM   20  C2  UNL     1      19.322  -0.258  52.331  1.00  0.00    -0.031 C 
HETATM   21  C1  UNL     1      17.858  -0.261  52.239  1.00  0.00     0.036 C 
ENDBRANCH  18  19
ENDBRANCH  16  17
ENDBRANCH  15  16
ENDBRANCH   1  15
TORSDOF 4
ENDMDL
MODEL 2
REMARK VINA RESULT:      -7.3      4.090      7.160
REMARK  4 active torsions:
REMARK  status: ('A' for Active; 'I' for Inactive)
REMARK    1  A    between atoms: C3_3  and  C4_4 
REMARK    2  A    between atoms: C5_5  and  C6_6 
REMARK    3  A    between atoms: C6_6  and  C7_7 
REMARK    4  A    between atoms: C7_7  and  C8_8 
ROOT
HETATM    1  C8  UNL     1      25.851   2.677  51.413  1.00  0.00     0.091 A 
HETATM    2  N1  UNL     1      27.216   2.606  51.531  1.00  0.00    -0.131 NA
HETATM    3  O1  UNL     1      27.591   1.480  52.015  1.00  0.00    -0.215 OA
HETATM    4  C9  UNL     1      26.595   0.693  52.271  1.00  0.00     0.111 A 
HETATM    5  C10 UNL     1      25.488   1.441  51.891  1.00  0.00     0.097 A 
HETATM    6  N2  UNL     1      24.125   1.111  51.927  1.00  0.00    -0.309 N 
HETATM    7  C11 UNL     1      23.065   1.608  51.088  1.00  0.00     0.234 C 
HETATM    8  N3  UNL     1      21.988   1.595  51.851  1.00  0.00    -0.172 NA
HETATM    9  N4  UNL     1      22.320   1.107  53.144  1.00  0.00    -0.286 N 
HETATM   10  C12 UNL     1      23.399   0.199  52.798  1.00  0.00     0.231 C 
HETATM   11  C13 UNL     1      24.168  -0.334  53.908  1.00  0.00     0.017 C 
HETATM   12  C14 UNL     1      25.463  -0.711  53.930  1.00  0.00    -0.020 C 
HETATM   13  C15 UNL     1      26.467  -0.690  52.830  1.00  0.00     0.096 C 
HETATM   14  H13 UNL     1      21.816   1.430  53.997  1.00  0.00     0.185 HD
ENDROOT
BRANCH   1  15
HETATM   15  C7  UNL     1      25.116   3.861  50.914  1.00  0.00     0.068 C 
BRANCH  15  16
HETATM   16  C6  UNL     1      25.267   3.967  49.380  1.00  0.00     0.033 C 
BRANCH  16  17
HETATM   17  C5  UNL     1      26.335   4.934  49.040  1.00  0.00    -0.026 C 
HETATM   18  C4  UNL     1      27.585   4.757  48.650  1.00  0.00    -0.004 C 
BRANCH  18  19
HETATM   19  C3  UNL     1      28.583   5.742  48.331  1.00  0.00    -0.005 C 
HETATM   20  C2  UNL     1      28.187   6.929  47.906  1.00  0.00    -0.031 C 
HETATM   21  C1  UNL     1      29.191   7.947  47.577  1.00  0.00     0.036 C 
ENDBRANCH  18  19
ENDBRANCH  16  17
ENDBRANCH  15  16
ENDBRANCH   1  15
TORSDOF 4
ENDMDL
MODEL 3
REMARK VINA RESULT:      -7.3      2.146      2.974
REMARK  4 active torsions:
REMARK  status: ('A' for Active; 'I' for Inactive)
REMARK    1  A    between atoms: C3_3  and  C4_4 
REMARK    2  A    between atoms: C5_5  and  C6_6 
REMARK    3  A    between atoms: C6_6  and  C7_7 
REMARK    4  A    between atoms: C7_7  and  C8_8 
ROOT
HETATM    1  C8  UNL     1      23.231   0.565  52.780  1.00  0.00     0.091 A 
HETATM    2  N1  UNL     1      22.696   1.241  51.712  1.00  0.00    -0.131 NA
HETATM    3  O1  UNL     1      23.605   1.791  50.996  1.00  0.00    -0.215 OA
HETATM    4  C9  UNL     1      24.797   1.576  51.455  1.00  0.00     0.111 A 
HETATM    5  C10 UNL     1      24.571   0.798  52.584  1.00  0.00     0.097 A 
HETATM    6  N2  UNL     1      25.485   0.248  53.493  1.00  0.00    -0.309 N 
HETATM    7  C11 UNL     1      25.339  -0.936  54.299  1.00  0.00     0.234 C 
HETATM    8  N3  UNL     1      26.033  -0.694  55.396  1.00  0.00    -0.172 NA
HETATM    9  N4  UNL     1      26.618   0.598  55.319  1.00  0.00    -0.286 N 
HETATM   10  C12 UNL     1      26.813   0.698  53.884  1.00  0.00     0.231 C 
HETATM   11  C13 UNL     1      27.191   2.007  53.379  1.00  0.00     0.017 C 
HETATM   12  C14 UNL     1      26.926   2.553  52.175  1.00  0.00    -0.020 C 
HETATM   13  C15 UNL     1      26.175   1.975  51.026  1.00  0.00     0.096 C 
HETATM   14  H13 UNL     1      26.785   1.174  56.172  1.00  0.00     0.185 HD
ENDROOT
BRANCH   1  15
HETATM   15  C7  UNL     1      22.433  -0.147  53.802  1.00  0.00     0.068 C 
BRANCH  15  16
HETATM   16  C6  UNL     1      21.058   0.538  53.969  1.00  0.00     0.033 C 
BRANCH  16  17
HETATM   17  C5  UNL     1      19.974  -0.465  53.861  1.00  0.00    -0.026 C 
HETATM   18  C4  UNL     1      18.942  -0.553  53.042  1.00  0.00    -0.004 C 
BRANCH  18  19
HETATM   19  C3  UNL     1      17.915  -1.557  52.984  1.00  0.00    -0.005 C 
HETATM   20  C2  UNL     1      18.083  -2.676  53.668  1.00  0.00    -0.031 C 
HETATM   21  C1  UNL     1      17.046  -3.712  53.620  1.00  0.00     0.036 C 
ENDBRANCH  18  19
ENDBRANCH  16  17
ENDBRANCH  15  16
ENDBRANCH   1  15
TORSDOF 4
ENDMDL
MODEL 4
REMARK VINA RESULT:      -7.3      3.461      7.240
REMARK  4 active torsions:
REMARK  status: ('A' for Active; 'I' for Inactive)
REMARK    1  A    between atoms: C3_3  and  C4_4 
REMARK    2  A    between atoms: C5_5  and  C6_6 
REMARK    3  A    between atoms: C6_6  and  C7_7 
REMARK    4  A    between atoms: C7_7  and  C8_8 
ROOT
HETATM    1  C8  UNL     1      24.759   1.148  53.075  1.00  0.00     0.091 A 
HETATM    2  N1  UNL     1      25.509   0.316  53.867  1.00  0.00    -0.131 NA
HETATM    3  O1  UNL     1      24.801  -0.632  54.362  1.00  0.00    -0.215 OA
HETATM    4  C9  UNL     1      23.561  -0.569  53.995  1.00  0.00     0.111 A 
HETATM    5  C10 UNL     1      23.523   0.555  53.178  1.00  0.00     0.097 A 
HETATM    6  N2  UNL     1      22.448   1.123  52.480  1.00  0.00    -0.309 N 
HETATM    7  C11 UNL     1      22.483   1.904  51.270  1.00  0.00     0.234 C 
HETATM    8  N3  UNL     1      21.465   2.738  51.371  1.00  0.00    -0.172 NA
HETATM    9  N4  UNL     1      20.781   2.518  52.597  1.00  0.00    -0.286 N 
HETATM   10  C12 UNL     1      21.021   1.096  52.764  1.00  0.00     0.231 C 
HETATM   11  C13 UNL     1      20.661   0.533  54.053  1.00  0.00     0.017 C 
HETATM   12  C14 UNL     1      21.213  -0.515  54.697  1.00  0.00    -0.020 C 
HETATM   13  C15 UNL     1      22.341  -1.391  54.272  1.00  0.00     0.096 C 
HETATM   14  H13 UNL     1      20.296   3.292  53.099  1.00  0.00     0.185 HD
ENDROOT
BRANCH   1  15
HETATM   15  C7  UNL     1      25.287   2.348  52.390  1.00  0.00     0.068 C 
BRANCH  15  16
HETATM   16  C6  UNL     1      26.194   1.926  51.213  1.00  0.00     0.033 C 
BRANCH  16  17
HETATM   17  C5  UNL     1      26.683   3.124  50.492  1.00  0.00    -0.026 C 
HETATM   18  C4  UNL     1      26.094   3.921  49.619  1.00  0.00    -0.004 C 
BRANCH  18  19
HETATM   19  C3  UNL     1      26.622   5.077  48.949  1.00  0.00    -0.005 C 
HETATM   20  C2  UNL     1      27.904   5.093  48.627  1.00  0.00    -0.031 C 
HETATM   21  C1  UNL     1      28.461   6.265  47.942  1.00  0.00     0.036 C 
ENDBRANCH  18  19
ENDBRANCH  16  17
ENDBRANCH  15  16
ENDBRANCH   1  15
TORSDOF 4
ENDMDL
MODEL 5
REMARK VINA RESULT:      -7.3      2.013      3.399
REMARK  4 active torsions:
REMARK  status: ('A' for Active; 'I' for Inactive)
REMARK    1  A    between atoms: C3_3  and  C4_4 
REMARK    2  A    between atoms: C5_5  and  C6_6 
REMARK    3  A    between atoms: C6_6  and  C7_7 
REMARK    4  A    between atoms: C7_7  and  C8_8 
ROOT
HETATM    1  C8  UNL     1      24.385  -0.419  53.828  1.00  0.00     0.091 A 
HETATM    2  N1  UNL     1      25.279  -1.066  54.643  1.00  0.00    -0.131 NA
HETATM    3  O1  UNL     1      26.366  -0.401  54.774  1.00  0.00    -0.215 OA
HETATM    4  C9  UNL     1      26.353   0.709  54.109  1.00  0.00     0.111 A 
HETATM    5  C10 UNL     1      25.101   0.709  53.507  1.00  0.00     0.097 A 
HETATM    6  N2  UNL     1      24.507   1.663  52.668  1.00  0.00    -0.309 N 
HETATM    7  C11 UNL     1      23.107   1.942  52.486  1.00  0.00     0.234 C 
HETATM    8  N3  UNL     1      22.996   2.341  51.232  1.00  0.00    -0.172 NA
HETATM    9  N4  UNL     1      24.273   2.329  50.609  1.00  0.00    -0.286 N 
HETATM   10  C12 UNL     1      25.112   2.622  51.756  1.00  0.00     0.231 C 
HETATM   11  C13 UNL     1      26.543   2.465  51.559  1.00  0.00     0.017 C 
HETATM   12  C14 UNL     1      27.485   2.130  52.463  1.00  0.00    -0.020 C 
HETATM   13  C15 UNL     1      27.330   1.827  53.914  1.00  0.00     0.096 C 
HETATM   14  H13 UNL     1      24.381   2.140  49.590  1.00  0.00     0.185 HD
ENDROOT
BRANCH   1  15
HETATM   15  C7  UNL     1      23.052  -0.948  53.462  1.00  0.00     0.068 C 
BRANCH  15  16
HETATM   16  C6  UNL     1      22.085  -0.814  54.660  1.00  0.00     0.033 C 
BRANCH  16  17
HETATM   17  C5  UNL     1      20.683  -0.803  54.182  1.00  0.00    -0.026 C 
HETATM   18  C4  UNL     1      20.140  -0.324  53.077  1.00  0.00    -0.004 C 
BRANCH  18  19
HETATM   19  C3  UNL     1      18.763  -0.342  52.664  1.00  0.00    -0.005 C 
HETATM   20  C2  UNL     1      17.996  -1.344  53.059  1.00  0.00    -0.031 C 
HETATM   21  C1  UNL     1      16.589  -1.379  52.648  1.00  0.00     0.036 C 
ENDBRANCH  18  19
ENDBRANCH  16  17
ENDBRANCH  15  16
ENDBRANCH   1  15
TORSDOF 4
ENDMDL
MODEL 6
REMARK VINA RESULT:      -7.2      3.865      7.144
REMARK  4 active torsions:
REMARK  status: ('A' for Active; 'I' for Inactive)
REMARK    1  A    between atoms: C3_3  and  C4_4 
REMARK    2  A    between atoms: C5_5  and  C6_6 
REMARK    3  A    between atoms: C6_6  and  C7_7 
REMARK    4  A    between atoms: C7_7  and  C8_8 
ROOT
HETATM    1  C8  UNL     1      25.013   2.349  51.288  1.00  0.00     0.091 A 
HETATM    2  N1  UNL     1      23.813   2.327  50.623  1.00  0.00    -0.131 NA
HETATM    3  O1  UNL     1      22.918   1.687  51.281  1.00  0.00    -0.215 OA
HETATM    4  C9  UNL     1      23.365   1.222  52.403  1.00  0.00     0.111 A 
HETATM    5  C10 UNL     1      24.691   1.638  52.419  1.00  0.00     0.097 A 
HETATM    6  N2  UNL     1      25.684   1.440  53.389  1.00  0.00    -0.309 N 
HETATM    7  C11 UNL     1      26.827   2.266  53.677  1.00  0.00     0.234 C 
HETATM    8  N3  UNL     1      27.758   1.431  54.099  1.00  0.00    -0.172 NA
HETATM    9  N4  UNL     1      27.251   0.103  54.093  1.00  0.00    -0.286 N 
HETATM   10  C12 UNL     1      25.850   0.371  54.363  1.00  0.00     0.231 C 
HETATM   11  C13 UNL     1      24.942  -0.752  54.204  1.00  0.00     0.017 C 
HETATM   12  C14 UNL     1      23.641  -0.738  53.849  1.00  0.00    -0.020 C 
HETATM   13  C15 UNL     1      22.769   0.425  53.521  1.00  0.00     0.096 C 
HETATM   14  H13 UNL     1      27.870  -0.718  53.922  1.00  0.00     0.185 HD
ENDROOT
BRANCH   1  15
HETATM   15  C7  UNL     1      26.243   2.986  50.770  1.00  0.00     0.068 C 
BRANCH  15  16
HETATM   16  C6  UNL     1      25.920   3.798  49.496  1.00  0.00     0.033 C 
BRANCH  16  17
HETATM   17  C5  UNL     1      27.149   4.443  48.978  1.00  0.00    -0.026 C 
HETATM   18  C4  UNL     1      27.382   5.674  48.562  1.00  0.00    -0.004 C 
BRANCH  18  19
HETATM   19  C3  UNL     1      28.605   6.247  48.068  1.00  0.00    -0.005 C 
HETATM   20  C2  UNL     1      29.699   5.505  48.072  1.00  0.00    -0.031 C 
HETATM   21  C1  UNL     1      30.956   6.072  47.571  1.00  0.00     0.036 C 
ENDBRANCH  18  19
ENDBRANCH  16  17
ENDBRANCH  15  16
ENDBRANCH   1  15
TORSDOF 4
ENDMDL
MODEL 7
REMARK VINA RESULT:      -7.1      3.726      6.460
REMARK  4 active torsions:
REMARK  status: ('A' for Active; 'I' for Inactive)
REMARK    1  A    between atoms: C3_3  and  C4_4 
REMARK    2  A    between atoms: C5_5  and  C6_6 
REMARK    3  A    between atoms: C6_6  and  C7_7 
REMARK    4  A    between atoms: C7_7  and  C8_8 
ROOT
HETATM    1  C8  UNL     1      23.279   1.593  51.959  1.00  0.00     0.091 A 
HETATM    2  N1  UNL     1      21.937   1.346  51.821  1.00  0.00    -0.131 NA
HETATM    3  O1  UNL     1      21.503   1.719  50.674  1.00  0.00    -0.215 OA
HETATM    4  C9  UNL     1      22.432   2.234  49.935  1.00  0.00     0.111 A 
HETATM    5  C10 UNL     1      23.563   2.158  50.739  1.00  0.00     0.097 A 
HETATM    6  N2  UNL     1      24.881   2.555  50.475  1.00  0.00    -0.309 N 
HETATM    7  C11 UNL     1      26.100   2.025  51.029  1.00  0.00     0.234 C 
HETATM    8  N3  UNL     1      26.936   3.046  51.063  1.00  0.00    -0.172 NA
HETATM    9  N4  UNL     1      26.297   4.208  50.550  1.00  0.00    -0.286 N 
HETATM   10  C12 UNL     1      25.394   3.593  49.594  1.00  0.00     0.231 C 
HETATM   11  C13 UNL     1      24.385   4.463  49.016  1.00  0.00     0.017 C 
HETATM   12  C14 UNL     1      23.151   4.143  48.576  1.00  0.00    -0.020 C 
HETATM   13  C15 UNL     1      22.475   2.816  48.556  1.00  0.00     0.096 C 
HETATM   14  H13 UNL     1      26.541   5.161  50.892  1.00  0.00     0.185 HD
ENDROOT
BRANCH   1  15
HETATM   15  C7  UNL     1      24.061   1.300  53.181  1.00  0.00     0.068 C 
BRANCH  15  16
HETATM   16  C6  UNL     1      24.184  -0.229  53.373  1.00  0.00     0.033 C 
BRANCH  16  17
HETATM   17  C5  UNL     1      25.608  -0.610  53.517  1.00  0.00    -0.026 C 
HETATM   18  C4  UNL     1      26.430  -1.246  52.702  1.00  0.00    -0.004 C 
BRANCH  18  19
HETATM   19  C3  UNL     1      27.812  -1.590  52.896  1.00  0.00    -0.005 C 
HETATM   20  C2  UNL     1      28.606  -0.712  53.485  1.00  0.00    -0.031 C 
HETATM   21  C1  UNL     1      30.019  -1.046  53.693  1.00  0.00     0.036 C 
ENDBRANCH  18  19
ENDBRANCH  16  17
ENDBRANCH  15  16
ENDBRANCH   1  15
TORSDOF 4
ENDMDL
MODEL 8
REMARK VINA RESULT:      -6.8      2.400      3.401
REMARK  4 active torsions:
REMARK  status: ('A' for Active; 'I' for Inactive)
REMARK    1  A    between atoms: C3_3  and  C4_4 
REMARK    2  A    between atoms: C5_5  and  C6_6 
REMARK    3  A    between atoms: C6_6  and  C7_7 
REMARK    4  A    between atoms: C7_7  and  C8_8 
ROOT
HETATM    1  C8  UNL     1      23.530   0.285  52.971  1.00  0.00     0.091 A 
HETATM    2  N1  UNL     1      23.353  -0.760  53.842  1.00  0.00    -0.131 NA
HETATM    3  O1  UNL     1      24.384  -0.938  54.583  1.00  0.00    -0.215 OA
HETATM    4  C9  UNL     1      25.331  -0.094  54.327  1.00  0.00     0.111 A 
HETATM    5  C10 UNL     1      24.800   0.687  53.308  1.00  0.00     0.097 A 
HETATM    6  N2  UNL     1      25.361   1.775  52.624  1.00  0.00    -0.309 N 
HETATM    7  C11 UNL     1      24.683   2.878  51.994  1.00  0.00     0.234 C 
HETATM    8  N3  UNL     1      25.453   3.220  50.978  1.00  0.00    -0.172 NA
HETATM    9  N4  UNL     1      26.597   2.378  50.937  1.00  0.00    -0.286 N 
HETATM   10  C12 UNL     1      26.753   2.101  52.353  1.00  0.00     0.231 C 
HETATM   11  C13 UNL     1      27.707   1.063  52.701  1.00  0.00     0.017 C 
HETATM   12  C14 UNL     1      27.694   0.230  53.762  1.00  0.00    -0.020 C 
HETATM   13  C15 UNL     1      26.706   0.138  54.873  1.00  0.00     0.096 C 
HETATM   14  H13 UNL     1      27.064   2.134  50.038  1.00  0.00     0.185 HD
ENDROOT
BRANCH   1  15
HETATM   15  C7  UNL     1      22.530   0.716  51.969  1.00  0.00     0.068 C 
BRANCH  15  16
HETATM   16  C6  UNL     1      21.335   1.395  52.676  1.00  0.00     0.033 C 
BRANCH  16  17
HETATM   17  C5  UNL     1      20.126   0.549  52.557  1.00  0.00    -0.026 C 
HETATM   18  C4  UNL     1      19.625  -0.379  53.353  1.00  0.00    -0.004 C 
BRANCH  18  19
HETATM   19  C3  UNL     1      18.439  -1.173  53.184  1.00  0.00    -0.005 C 
HETATM   20  C2  UNL     1      18.447  -2.423  53.614  1.00  0.00    -0.031 C 
HETATM   21  C1  UNL     1      17.245  -3.248  53.451  1.00  0.00     0.036 C 
ENDBRANCH  18  19
ENDBRANCH  16  17
ENDBRANCH  15  16
ENDBRANCH   1  15
TORSDOF 4
ENDMDL
MODEL 9
REMARK VINA RESULT:      -6.7      4.159      6.943
REMARK  4 active torsions:
REMARK  status: ('A' for Active; 'I' for Inactive)
REMARK    1  A    between atoms: C3_3  and  C4_4 
REMARK    2  A    between atoms: C5_5  and  C6_6 
REMARK    3  A    between atoms: C6_6  and  C7_7 
REMARK    4  A    between atoms: C7_7  and  C8_8 
ROOT
HETATM    1  C8  UNL     1      22.682   1.932  50.435  1.00  0.00     0.091 A 
HETATM    2  N1  UNL     1      21.365   1.623  50.209  1.00  0.00    -0.131 NA
HETATM    3  O1  UNL     1      20.856   0.975  51.191  1.00  0.00    -0.215 OA
HETATM    4  C9  UNL     1      21.705   0.772  52.146  1.00  0.00     0.111 A 
HETATM    5  C10 UNL     1      22.866   1.377  51.679  1.00  0.00     0.097 A 
HETATM    6  N2  UNL     1      24.126   1.491  52.283  1.00  0.00    -0.309 N 
HETATM    7  C11 UNL     1      25.120   2.514  52.086  1.00  0.00     0.234 C 
HETATM    8  N3  UNL     1      26.278   1.907  52.266  1.00  0.00    -0.172 NA
HETATM    9  N4  UNL     1      26.061   0.536  52.571  1.00  0.00    -0.286 N 
HETATM   10  C12 UNL     1      24.785   0.633  53.256  1.00  0.00     0.231 C 
HETATM   11  C13 UNL     1      24.107  -0.622  53.528  1.00  0.00     0.017 C 
HETATM   12  C14 UNL     1      22.784  -0.860  53.623  1.00  0.00    -0.020 C 
HETATM   13  C15 UNL     1      21.645   0.090  53.478  1.00  0.00     0.096 C 
HETATM   14  H13 UNL     1      26.745  -0.200  52.295  1.00  0.00     0.185 HD
ENDROOT
BRANCH   1  15
HETATM   15  C7  UNL     1      23.548   2.651  49.474  1.00  0.00     0.068 C 
BRANCH  15  16
HETATM   16  C6  UNL     1      23.185   4.152  49.459  1.00  0.00     0.033 C 
BRANCH  16  17
HETATM   17  C5  UNL     1      24.355   4.954  49.033  1.00  0.00    -0.026 C 
HETATM   18  C4  UNL     1      25.651   4.777  49.219  1.00  0.00    -0.004 C 
BRANCH  18  19
HETATM   19  C3  UNL     1      26.749   5.594  48.778  1.00  0.00    -0.005 C 
HETATM   20  C2  UNL     1      27.923   5.021  48.573  1.00  0.00    -0.031 C 
HETATM   21  C1  UNL     1      29.054   5.839  48.124  1.00  0.00     0.036 C 
ENDBRANCH  18  19
ENDBRANCH  16  17
ENDBRANCH  15  16
ENDBRANCH   1  15
TORSDOF 4
ENDMDL
