MODEL 1
REMARK VINA RESULT:      -8.7      0.000      0.000
REMARK  0 active torsions:
REMARK  status: ('A' for Active; 'I' for Inactive)
ROOT
HETATM    1  C1  UNL     1      24.572   6.862  50.832  1.00  0.00     0.175 C 
HETATM    2  N1  UNL     1      24.410   5.764  49.864  1.00  0.00    -0.290 N 
HETATM    3  C2  UNL     1      23.595   6.051  48.632  1.00  0.00     0.167 C 
HETATM    4  O1  UNL     1      22.327   5.850  48.961  1.00  0.00     0.000 OA
HETATM    5  C3  UNL     1      21.102   5.660  49.261  1.00  0.00     0.117 A 
HETATM    6  O2  UNL     1      21.257   6.045  48.098  1.00  0.00    -0.194 OA
HETATM    7  C4  UNL     1      20.613   5.201  50.559  1.00  0.00     0.074 C 
HETATM    8  C5  UNL     1      19.565   4.082  50.462  1.00  0.00     0.034 C 
HETATM    9  C6  UNL     1      19.671   3.439  51.830  1.00  0.00    -0.025 C 
HETATM   10  C7  UNL     1      20.036   2.181  51.919  1.00  0.00     0.019 C 
HETATM   11  C8  UNL     1      20.450   0.804  51.723  1.00  0.00     0.031 C 
HETATM   12 CL1  UNL     1      20.399   1.020  49.992  1.00  0.00    -0.085 Cl
HETATM   13  C9  UNL     1      20.795  -0.380  52.255  1.00  0.00     0.016 C 
HETATM   14  C10 UNL     1      20.818  -0.498  53.736  1.00  0.00     0.150 C 
HETATM   15  N2  UNL     1      22.170  -0.837  54.178  1.00  0.00    -0.371 N 
HETATM   16  C11 UNL     1      23.309  -0.085  53.772  1.00  0.00     0.125 C 
HETATM   17  C12 UNL     1      23.491   0.889  52.815  1.00  0.00     0.052 C 
HETATM   18  C13 UNL     1      23.863   2.216  52.818  1.00  0.00     0.037 C 
HETATM   19  C14 UNL     1      24.808   2.790  51.987  1.00  0.00     0.081 C 
HETATM   20  C15 UNL     1      26.093   2.268  51.852  1.00  0.00     0.035 C 
HETATM   21  C16 UNL     1      26.827   1.163  51.530  1.00  0.00     0.022 C 
HETATM   22  C17 UNL     1      26.711  -0.101  52.049  1.00  0.00     0.118 C 
HETATM   23  N3  UNL     1      26.382  -0.159  53.358  1.00  0.00    -0.254 NA
HETATM   24  C18 UNL     1      25.404  -1.028  53.719  1.00  0.00     0.234 C 
HETATM   25  N4  UNL     1      24.496  -0.284  54.381  1.00  0.00    -0.225 NA
HETATM   26  N5  UNL     1      24.419   3.933  51.284  1.00  0.00    -0.133 NA
HETATM   27  N6  UNL     1      25.074   4.619  50.437  1.00  0.00    -0.071 NA
HETATM   28  H15 UNL     1      22.376  -1.636  54.808  1.00  0.00     0.161 HD
ENDROOT
TORSDOF 0
ENDMDL
MODEL 2
REMARK VINA RESULT:      -8.0      2.621      5.285
REMARK  0 active torsions:
REMARK  status: ('A' for Active; 'I' for Inactive)
ROOT
HETATM    1  C1  UNL     1      19.068   0.717  50.211  1.00  0.00     0.175 C 
HETATM    2  N1  UNL     1      19.359   1.707  51.261  1.00  0.00    -0.290 N 
HETATM    3  C2  UNL     1      18.311   2.753  51.527  1.00  0.00     0.167 C 
HETATM    4  O1  UNL     1      18.517   3.727  50.653  1.00  0.00     0.000 OA
HETATM    5  C3  UNL     1      18.703   4.674  49.819  1.00  0.00     0.117 A 
HETATM    6  O2  UNL     1      17.730   4.866  50.554  1.00  0.00    -0.194 OA
HETATM    7  C4  UNL     1      19.776   4.728  48.829  1.00  0.00     0.074 C 
HETATM    8  C5  UNL     1      20.493   6.086  48.771  1.00  0.00     0.034 C 
HETATM    9  C6  UNL     1      21.824   5.707  48.154  1.00  0.00    -0.025 C 
HETATM   10  C7  UNL     1      22.927   5.902  48.839  1.00  0.00     0.019 C 
HETATM   11  C8  UNL     1      23.962   6.226  49.803  1.00  0.00     0.031 C 
HETATM   12 CL1  UNL     1      22.766   6.889  50.887  1.00  0.00    -0.085 Cl
HETATM   13  C9  UNL     1      25.263   6.225  50.137  1.00  0.00     0.016 C 
HETATM   14  C10 UNL     1      26.230   5.646  49.168  1.00  0.00     0.150 C 
HETATM   15  N2  UNL     1      26.919   4.513  49.783  1.00  0.00    -0.371 N 
HETATM   16  C11 UNL     1      26.211   3.443  50.402  1.00  0.00     0.125 C 
HETATM   17  C12 UNL     1      24.890   3.281  50.757  1.00  0.00     0.052 C 
HETATM   18  C13 UNL     1      23.872   2.422  50.402  1.00  0.00     0.037 C 
HETATM   19  C14 UNL     1      23.035   1.758  51.281  1.00  0.00     0.081 C 
HETATM   20  C15 UNL     1      23.523   0.993  52.338  1.00  0.00     0.035 C 
HETATM   21  C16 UNL     1      24.304   0.996  53.457  1.00  0.00     0.022 C 
HETATM   22  C17 UNL     1      25.608   1.407  53.569  1.00  0.00     0.118 C 
HETATM   23  N3  UNL     1      26.384   1.158  52.492  1.00  0.00    -0.254 NA
HETATM   24  C18 UNL     1      27.179   2.166  52.048  1.00  0.00     0.234 C 
HETATM   25  N4  UNL     1      26.866   2.315  50.747  1.00  0.00    -0.225 NA
HETATM   26  N5  UNL     1      21.661   1.883  51.058  1.00  0.00    -0.133 NA
HETATM   27  N6  UNL     1      20.690   1.414  51.733  1.00  0.00    -0.071 NA
HETATM   28  H15 UNL     1      27.953   4.422  49.804  1.00  0.00     0.161 HD
ENDROOT
TORSDOF 0
ENDMDL
MODEL 3
REMARK VINA RESULT:      -7.9      3.059      5.805
REMARK  0 active torsions:
REMARK  status: ('A' for Active; 'I' for Inactive)
ROOT
HETATM    1  C1  UNL     1      19.058   2.881  48.277  1.00  0.00     0.175 C 
HETATM    2  N1  UNL     1      19.377   3.814  49.370  1.00  0.00    -0.290 N 
HETATM    3  C2  UNL     1      18.564   5.078  49.452  1.00  0.00     0.167 C 
HETATM    4  O1  UNL     1      19.138   5.951  48.637  1.00  0.00     0.000 OA
HETATM    5  C3  UNL     1      19.679   6.803  47.858  1.00  0.00     0.117 A 
HETATM    6  O2  UNL     1      18.662   7.234  48.407  1.00  0.00    -0.194 OA
HETATM    7  C4  UNL     1      20.895   6.581  47.078  1.00  0.00     0.074 C 
HETATM    8  C5  UNL     1      21.901   7.739  47.161  1.00  0.00     0.034 C 
HETATM    9  C6  UNL     1      23.198   7.049  46.790  1.00  0.00    -0.025 C 
HETATM   10  C7  UNL     1      24.177   7.014  47.664  1.00  0.00     0.019 C 
HETATM   11  C8  UNL     1      25.071   7.128  48.801  1.00  0.00     0.031 C 
HETATM   12 CL1  UNL     1      23.885   8.079  49.658  1.00  0.00    -0.085 Cl
HETATM   13  C9  UNL     1      26.258   6.844  49.364  1.00  0.00     0.016 C 
HETATM   14  C10 UNL     1      27.223   6.031  48.581  1.00  0.00     0.150 C 
HETATM   15  N2  UNL     1      27.516   4.793  49.301  1.00  0.00    -0.371 N 
HETATM   16  C11 UNL     1      26.485   3.931  49.773  1.00  0.00     0.125 C 
HETATM   17  C12 UNL     1      25.120   4.083  49.884  1.00  0.00     0.052 C 
HETATM   18  C13 UNL     1      24.013   3.464  49.344  1.00  0.00     0.037 C 
HETATM   19  C14 UNL     1      22.905   3.036  50.053  1.00  0.00     0.081 C 
HETATM   20  C15 UNL     1      23.010   2.217  51.174  1.00  0.00     0.035 C 
HETATM   21  C16 UNL     1      23.561   2.080  52.416  1.00  0.00     0.022 C 
HETATM   22  C17 UNL     1      24.883   2.191  52.764  1.00  0.00     0.118 C 
HETATM   23  N3  UNL     1      25.760   1.737  51.842  1.00  0.00    -0.254 NA
HETATM   24  C18 UNL     1      26.829   2.524  51.557  1.00  0.00     0.234 C 
HETATM   25  N4  UNL     1      26.794   2.697  50.222  1.00  0.00    -0.225 NA
HETATM   26  N5  UNL     1      21.656   3.460  49.587  1.00  0.00    -0.133 NA
HETATM   27  N6  UNL     1      20.501   3.245  50.072  1.00  0.00    -0.071 NA
HETATM   28  H15 UNL     1      28.481   4.472  49.507  1.00  0.00     0.161 HD
ENDROOT
TORSDOF 0
ENDMDL
MODEL 4
REMARK VINA RESULT:      -7.8      2.988      6.236
REMARK  0 active torsions:
REMARK  status: ('A' for Active; 'I' for Inactive)
ROOT
HETATM    1  C1  UNL     1      26.792  -0.101  51.813  1.00  0.00     0.175 C 
HETATM    2  N1  UNL     1      26.173   0.932  52.661  1.00  0.00    -0.290 N 
HETATM    3  C2  UNL     1      25.748   0.519  54.044  1.00  0.00     0.167 C 
HETATM    4  O1  UNL     1      24.538  -0.006  53.927  1.00  0.00     0.000 OA
HETATM    5  C3  UNL     1      23.371  -0.514  53.832  1.00  0.00     0.117 A 
HETATM    6  O2  UNL     1      23.813  -0.539  54.985  1.00  0.00    -0.194 OA
HETATM    7  C4  UNL     1      22.595  -0.618  52.599  1.00  0.00     0.074 C 
HETATM    8  C5  UNL     1      21.132  -0.176  52.752  1.00  0.00     0.034 C 
HETATM    9  C6  UNL     1      20.757   0.158  51.322  1.00  0.00    -0.025 C 
HETATM   10  C7  UNL     1      20.402   1.386  51.024  1.00  0.00     0.019 C 
HETATM   11  C8  UNL     1      20.054   2.794  50.982  1.00  0.00     0.031 C 
HETATM   12 CL1  UNL     1      20.287   2.918  52.708  1.00  0.00    -0.085 Cl
HETATM   13  C9  UNL     1      19.679   3.865  50.263  1.00  0.00     0.016 C 
HETATM   14  C10 UNL     1      19.497   3.692  48.799  1.00  0.00     0.150 C 
HETATM   15  N2  UNL     1      20.425   4.567  48.084  1.00  0.00    -0.371 N 
HETATM   16  C11 UNL     1      21.822   4.578  48.364  1.00  0.00     0.125 C 
HETATM   17  C12 UNL     1      22.574   4.028  49.379  1.00  0.00     0.052 C 
HETATM   18  C13 UNL     1      23.581   3.091  49.462  1.00  0.00     0.037 C 
HETATM   19  C14 UNL     1      24.761   3.237  50.170  1.00  0.00     0.081 C 
HETATM   20  C15 UNL     1      25.591   4.344  50.011  1.00  0.00     0.035 C 
HETATM   21  C16 UNL     1      25.667   5.706  50.066  1.00  0.00     0.022 C 
HETATM   22  C17 UNL     1      24.860   6.618  49.434  1.00  0.00     0.118 C 
HETATM   23  N3  UNL     1      24.428   6.251  48.208  1.00  0.00    -0.254 NA
HETATM   24  C18 UNL     1      23.111   6.429  47.930  1.00  0.00     0.234 C 
HETATM   25  N4  UNL     1      22.667   5.221  47.532  1.00  0.00    -0.225 NA
HETATM   26  N5  UNL     1      25.093   2.211  51.060  1.00  0.00    -0.133 NA
HETATM   27  N6  UNL     1      26.086   2.121  51.849  1.00  0.00    -0.071 NA
HETATM   28  H15 UNL     1      20.124   5.224  47.339  1.00  0.00     0.161 HD
ENDROOT
TORSDOF 0
ENDMDL
MODEL 5
REMARK VINA RESULT:      -7.8      2.819      5.270
REMARK  0 active torsions:
REMARK  status: ('A' for Active; 'I' for Inactive)
ROOT
HETATM    1  C1  UNL     1      17.279  -0.136  50.155  1.00  0.00     0.175 C 
HETATM    2  N1  UNL     1      17.489   0.813  51.262  1.00  0.00    -0.290 N 
HETATM    3  C2  UNL     1      16.663   2.071  51.252  1.00  0.00     0.167 C 
HETATM    4  O1  UNL     1      17.304   2.939  50.484  1.00  0.00     0.000 OA
HETATM    5  C3  UNL     1      17.909   3.787  49.747  1.00  0.00     0.117 A 
HETATM    6  O2  UNL     1      16.842   4.216  50.195  1.00  0.00    -0.194 OA
HETATM    7  C4  UNL     1      19.193   3.565  49.085  1.00  0.00     0.074 C 
HETATM    8  C5  UNL     1      20.179   4.732  49.247  1.00  0.00     0.034 C 
HETATM    9  C6  UNL     1      21.510   4.048  49.006  1.00  0.00    -0.025 C 
HETATM   10  C7  UNL     1      22.404   4.031  49.967  1.00  0.00     0.019 C 
HETATM   11  C8  UNL     1      23.189   4.166  51.180  1.00  0.00     0.031 C 
HETATM   12 CL1  UNL     1      21.922   5.117  51.912  1.00  0.00    -0.085 Cl
HETATM   13  C9  UNL     1      24.320   3.898  51.853  1.00  0.00     0.016 C 
HETATM   14  C10 UNL     1      25.359   3.083  51.173  1.00  0.00     0.150 C 
HETATM   15  N2  UNL     1      25.593   1.855  51.932  1.00  0.00    -0.371 N 
HETATM   16  C11 UNL     1      24.528   0.991  52.318  1.00  0.00     0.125 C 
HETATM   17  C12 UNL     1      23.158   1.134  52.300  1.00  0.00     0.052 C 
HETATM   18  C13 UNL     1      22.110   0.500  51.668  1.00  0.00     0.037 C 
HETATM   19  C14 UNL     1      20.944   0.071  52.276  1.00  0.00     0.081 C 
HETATM   20  C15 UNL     1      20.951  -0.735  53.413  1.00  0.00     0.035 C 
HETATM   21  C16 UNL     1      21.385  -0.852  54.702  1.00  0.00     0.022 C 
HETATM   22  C17 UNL     1      22.669  -0.727  55.169  1.00  0.00     0.118 C 
HETATM   23  N3  UNL     1      23.631  -1.184  54.338  1.00  0.00    -0.254 NA
HETATM   24  C18 UNL     1      24.716  -0.392  54.142  1.00  0.00     0.234 C 
HETATM   25  N4  UNL     1      24.803  -0.235  52.808  1.00  0.00    -0.225 NA
HETATM   26  N5  UNL     1      19.741   0.480  51.692  1.00  0.00    -0.133 NA
HETATM   27  N6  UNL     1      18.547   0.261  52.071  1.00  0.00    -0.071 NA
HETATM   28  H15 UNL     1      26.537   1.545  52.230  1.00  0.00     0.161 HD
ENDROOT
TORSDOF 0
ENDMDL
MODEL 6
REMARK VINA RESULT:      -7.8      2.549      4.809
REMARK  0 active torsions:
REMARK  status: ('A' for Active; 'I' for Inactive)
ROOT
HETATM    1  C1  UNL     1      19.598   2.857  47.026  1.00  0.00     0.175 C 
HETATM    2  N1  UNL     1      19.460   3.575  48.304  1.00  0.00    -0.290 N 
HETATM    3  C2  UNL     1      19.505   5.079  48.254  1.00  0.00     0.167 C 
HETATM    4  O1  UNL     1      20.784   5.421  48.284  1.00  0.00     0.000 OA
HETATM    5  C3  UNL     1      22.011   5.767  48.312  1.00  0.00     0.117 A 
HETATM    6  O2  UNL     1      21.243   6.729  48.220  1.00  0.00    -0.194 OA
HETATM    7  C4  UNL     1      23.144   4.851  48.423  1.00  0.00     0.074 C 
HETATM    8  C5  UNL     1      24.192   5.289  49.458  1.00  0.00     0.034 C 
HETATM    9  C6  UNL     1      24.883   3.977  49.772  1.00  0.00    -0.025 C 
HETATM   10  C7  UNL     1      24.839   3.508  50.998  1.00  0.00     0.019 C 
HETATM   11  C8  UNL     1      24.634   3.235  52.408  1.00  0.00     0.031 C 
HETATM   12 CL1  UNL     1      23.795   4.754  52.596  1.00  0.00    -0.085 Cl
HETATM   13  C9  UNL     1      24.810   2.415  53.458  1.00  0.00     0.016 C 
HETATM   14  C10 UNL     1      25.534   1.138  53.231  1.00  0.00     0.150 C 
HETATM   15  N2  UNL     1      24.655   0.015  53.552  1.00  0.00    -0.371 N 
HETATM   16  C11 UNL     1      23.349  -0.106  52.997  1.00  0.00     0.125 C 
HETATM   17  C12 UNL     1      22.553   0.766  52.286  1.00  0.00     0.052 C 
HETATM   18  C13 UNL     1      22.001   0.789  51.024  1.00  0.00     0.037 C 
HETATM   19  C14 UNL     1      20.685   1.095  50.726  1.00  0.00     0.081 C 
HETATM   20  C15 UNL     1      19.614   0.463  51.353  1.00  0.00     0.035 C 
HETATM   21  C16 UNL     1      19.027   0.175  52.551  1.00  0.00     0.022 C 
HETATM   22  C17 UNL     1      19.604  -0.409  53.650  1.00  0.00     0.118 C 
HETATM   23  N3  UNL     1      20.534  -1.350  53.379  1.00  0.00    -0.254 NA
HETATM   24  C18 UNL     1      21.701  -1.294  54.070  1.00  0.00     0.234 C 
HETATM   25  N4  UNL     1      22.667  -1.262  53.132  1.00  0.00    -0.225 NA
HETATM   26  N5  UNL     1      20.471   2.075  49.752  1.00  0.00    -0.133 NA
HETATM   27  N6  UNL     1      19.376   2.564  49.329  1.00  0.00    -0.071 NA
HETATM   28  H15 UNL     1      24.929  -0.753  54.195  1.00  0.00     0.161 HD
ENDROOT
TORSDOF 0
ENDMDL
MODEL 7
REMARK VINA RESULT:      -7.7      8.537     12.260
REMARK  0 active torsions:
REMARK  status: ('A' for Active; 'I' for Inactive)
ROOT
HETATM    1  C1  UNL     1      33.654   5.103  47.586  1.00  0.00     0.175 C 
HETATM    2  N1  UNL     1      32.752   5.504  46.494  1.00  0.00    -0.290 N 
HETATM    3  C2  UNL     1      33.365   5.697  45.133  1.00  0.00     0.167 C 
HETATM    4  O1  UNL     1      33.835   6.935  45.102  1.00  0.00     0.000 OA
HETATM    5  C3  UNL     1      34.292   8.125  45.055  1.00  0.00     0.117 A 
HETATM    6  O2  UNL     1      34.508   7.487  44.021  1.00  0.00    -0.194 OA
HETATM    7  C4  UNL     1      34.181   9.114  46.125  1.00  0.00     0.074 C 
HETATM    8  C5  UNL     1      33.731  10.501  45.639  1.00  0.00     0.034 C 
HETATM    9  C6  UNL     1      33.168  11.106  46.909  1.00  0.00    -0.025 C 
HETATM   10  C7  UNL     1      31.899  11.442  46.950  1.00  0.00     0.019 C 
HETATM   11  C8  UNL     1      30.494  11.716  46.715  1.00  0.00     0.031 C 
HETATM   12 CL1  UNL     1      30.648  11.172  45.064  1.00  0.00    -0.085 Cl
HETATM   13  C9  UNL     1      29.314  12.155  47.185  1.00  0.00     0.016 C 
HETATM   14  C10 UNL     1      29.251  12.604  48.599  1.00  0.00     0.150 C 
HETATM   15  N2  UNL     1      28.298  11.773  49.334  1.00  0.00    -0.371 N 
HETATM   16  C11 UNL     1      28.367  10.350  49.319  1.00  0.00     0.125 C 
HETATM   17  C12 UNL     1      29.088   9.460  48.554  1.00  0.00     0.052 C 
HETATM   18  C13 UNL     1      30.052   8.506  48.799  1.00  0.00     0.037 C 
HETATM   19  C14 UNL     1      30.049   7.213  48.307  1.00  0.00     0.081 C 
HETATM   20  C15 UNL     1      28.952   6.366  48.450  1.00  0.00     0.035 C 
HETATM   21  C16 UNL     1      27.618   6.208  48.207  1.00  0.00     0.022 C 
HETATM   22  C17 UNL     1      26.598   7.064  48.535  1.00  0.00     0.118 C 
HETATM   23  N3  UNL     1      26.757   7.728  49.701  1.00  0.00    -0.254 NA
HETATM   24  C18 UNL     1      26.504   9.061  49.701  1.00  0.00     0.234 C 
HETATM   25  N4  UNL     1      27.623   9.634  50.186  1.00  0.00    -0.225 NA
HETATM   26  N5  UNL     1      31.210   6.783  47.658  1.00  0.00    -0.133 NA
HETATM   27  N6  UNL     1      31.449   5.671  47.088  1.00  0.00    -0.071 NA
HETATM   28  H15 UNL     1      27.525  12.167  49.903  1.00  0.00     0.161 HD
ENDROOT
TORSDOF 0
ENDMDL
MODEL 8
REMARK VINA RESULT:      -7.3     10.449     13.528
REMARK  0 active torsions:
REMARK  status: ('A' for Active; 'I' for Inactive)
ROOT
HETATM    1  C1  UNL     1      33.074   8.748  41.205  1.00  0.00     0.175 C 
HETATM    2  N1  UNL     1      34.079   8.940  42.264  1.00  0.00    -0.290 N 
HETATM    3  C2  UNL     1      35.443   8.350  42.030  1.00  0.00     0.167 C 
HETATM    4  O1  UNL     1      35.381   7.085  42.418  1.00  0.00     0.000 OA
HETATM    5  C3  UNL     1      35.339   5.865  42.788  1.00  0.00     0.117 A 
HETATM    6  O2  UNL     1      36.438   6.189  42.328  1.00  0.00    -0.194 OA
HETATM    7  C4  UNL     1      34.176   5.202  43.375  1.00  0.00     0.074 C 
HETATM    8  C5  UNL     1      34.507   4.366  44.621  1.00  0.00     0.034 C 
HETATM    9  C6  UNL     1      33.160   4.292  45.311  1.00  0.00    -0.025 C 
HETATM   10  C7  UNL     1      33.027   4.810  46.510  1.00  0.00     0.019 C 
HETATM   11  C8  UNL     1      33.166   5.448  47.806  1.00  0.00     0.031 C 
HETATM   12 CL1  UNL     1      34.866   5.708  47.512  1.00  0.00    -0.085 Cl
HETATM   13  C9  UNL     1      32.600   5.848  48.957  1.00  0.00     0.016 C 
HETATM   14  C10 UNL     1      31.148   5.596  49.145  1.00  0.00     0.150 C 
HETATM   15  N2  UNL     1      30.450   6.869  49.317  1.00  0.00    -0.371 N 
HETATM   16  C11 UNL     1      30.602   7.946  48.397  1.00  0.00     0.125 C 
HETATM   17  C12 UNL     1      31.481   8.170  47.361  1.00  0.00     0.052 C 
HETATM   18  C13 UNL     1      31.373   8.339  45.997  1.00  0.00     0.037 C 
HETATM   19  C14 UNL     1      31.984   9.337  45.259  1.00  0.00     0.081 C 
HETATM   20  C15 UNL     1      31.868  10.684  45.592  1.00  0.00     0.035 C 
HETATM   21  C16 UNL     1      32.059  11.618  46.569  1.00  0.00     0.022 C 
HETATM   22  C17 UNL     1      31.603  11.586  47.862  1.00  0.00     0.118 C 
HETATM   23  N3  UNL     1      30.388  11.017  48.029  1.00  0.00    -0.254 NA
HETATM   24  C18 UNL     1      30.251  10.123  49.041  1.00  0.00     0.234 C 
HETATM   25  N4  UNL     1      29.770   9.006  48.463  1.00  0.00    -0.225 NA
HETATM   26  N5  UNL     1      32.726   8.933  44.145  1.00  0.00    -0.133 NA
HETATM   27  N6  UNL     1      33.408   9.635  43.335  1.00  0.00    -0.071 NA
HETATM   28  H15 UNL     1      29.809   7.060  50.111  1.00  0.00     0.161 HD
ENDROOT
TORSDOF 0
ENDMDL
MODEL 9
REMARK VINA RESULT:      -7.2      9.151     12.406
REMARK  0 active torsions:
REMARK  status: ('A' for Active; 'I' for Inactive)
ROOT
HETATM    1  C1  UNL     1      26.826   8.033  47.972  1.00  0.00     0.175 C 
HETATM    2  N1  UNL     1      27.967   8.396  48.828  1.00  0.00    -0.290 N 
HETATM    3  C2  UNL     1      27.842   9.659  49.638  1.00  0.00     0.167 C 
HETATM    4  O1  UNL     1      28.212  10.655  48.847  1.00  0.00     0.000 OA
HETATM    5  C3  UNL     1      28.567  11.625  48.099  1.00  0.00     0.117 A 
HETATM    6  O2  UNL     1      28.203  11.992  49.220  1.00  0.00    -0.194 OA
HETATM    7  C4  UNL     1      29.048  11.498  46.725  1.00  0.00     0.074 C 
HETATM    8  C5  UNL     1      30.309  12.327  46.436  1.00  0.00     0.034 C 
HETATM    9  C6  UNL     1      30.884  11.605  45.233  1.00  0.00    -0.025 C 
HETATM   10  C7  UNL     1      32.073  11.055  45.325  1.00  0.00     0.019 C 
HETATM   11  C8  UNL     1      33.381  10.554  45.703  1.00  0.00     0.031 C 
HETATM   12 CL1  UNL     1      33.232  11.304  47.272  1.00  0.00    -0.085 Cl
HETATM   13  C9  UNL     1      34.485   9.860  45.377  1.00  0.00     0.016 C 
HETATM   14  C10 UNL     1      34.549   9.247  44.026  1.00  0.00     0.150 C 
HETATM   15  N2  UNL     1      34.674   7.796  44.153  1.00  0.00    -0.371 N 
HETATM   16  C11 UNL     1      33.780   7.027  44.951  1.00  0.00     0.125 C 
HETATM   17  C12 UNL     1      32.822   7.376  45.878  1.00  0.00     0.052 C 
HETATM   18  C13 UNL     1      31.456   7.229  45.985  1.00  0.00     0.037 C 
HETATM   19  C14 UNL     1      30.780   6.775  47.104  1.00  0.00     0.081 C 
HETATM   20  C15 UNL     1      31.115   5.583  47.741  1.00  0.00     0.035 C 
HETATM   21  C16 UNL     1      32.113   4.879  48.352  1.00  0.00     0.022 C 
HETATM   22  C17 UNL     1      33.363   4.599  47.862  1.00  0.00     0.118 C 
HETATM   23  N3  UNL     1      33.423   4.382  46.530  1.00  0.00    -0.254 NA
HETATM   24  C18 UNL     1      34.412   5.004  45.839  1.00  0.00     0.234 C 
HETATM   25  N4  UNL     1      33.785   5.681  44.857  1.00  0.00    -0.225 NA
HETATM   26  N5  UNL     1      29.729   7.570  47.571  1.00  0.00    -0.133 NA
HETATM   27  N6  UNL     1      28.985   7.403  48.588  1.00  0.00    -0.071 NA
HETATM   28  H15 UNL     1      35.413   7.248  43.673  1.00  0.00     0.161 HD
ENDROOT
TORSDOF 0
ENDMDL
