MODEL 1
REMARK VINA RESULT:      -8.0      0.000      0.000
REMARK  0 active torsions:
REMARK  status: ('A' for Active; 'I' for Inactive)
ROOT
HETATM    1 CL1  UNL     1      23.040   7.178  50.895  1.00  0.00    -0.200 Cl
HETATM    2  C1  UNL     1      22.448   5.542  50.896  1.00  0.00     0.048 A 
HETATM    3  C2  UNL     1      23.777   5.393  50.961  1.00  0.00     0.189 A 
HETATM    4  C3  UNL     1      24.662   4.198  51.022  1.00  0.00     0.107 C 
HETATM    5  N1  UNL     1      24.894   2.929  51.045  1.00  0.00    -0.279 NA
HETATM    6  C4  UNL     1      26.245   2.423  51.134  1.00  0.00     0.315 C 
HETATM    7  O1  UNL     1      26.248   1.325  51.998  1.00  0.00    -0.370 OA
HETATM    8  C5  UNL     1      27.499   0.798  52.172  1.00  0.00     0.171 C 
HETATM    9  C6  UNL     1      27.446  -0.420  53.109  1.00  0.00     0.056 C 
HETATM   10  C7  UNL     1      26.841   0.062  54.394  1.00  0.00     0.275 C 
HETATM   11  N2  UNL     1      25.519   0.570  54.141  1.00  0.00     0.112 N 
HETATM   12  C8  UNL     1      24.551  -0.423  53.763  1.00  0.00     0.369 C 
HETATM   13  C9  UNL     1      23.389   0.250  53.092  1.00  0.00     0.067 C 
HETATM   14  S1  UNL     1      21.824   0.392  53.463  1.00  0.00    -0.172 SA
HETATM   15  C10 UNL     1      21.565  -0.703  54.893  1.00  0.00     0.115 C 
HETATM   16  C11 UNL     1      22.905  -1.270  55.295  1.00  0.00     0.096 C 
HETATM   17  N3  UNL     1      24.127  -1.113  54.937  1.00  0.00    -0.266 NA
HETATM   18  C12 UNL     1      20.812  -0.185  52.110  1.00  0.00     0.216 C 
HETATM   19  N4  UNL     1      19.746   0.680  51.769  1.00  0.00    -0.285 NA
HETATM   20  C13 UNL     1      18.615   0.288  51.261  1.00  0.00     0.155 C 
HETATM   21  S2  UNL     1      17.324   1.496  50.868  1.00  0.00    -0.122 SA
HETATM   22  C14 UNL     1      18.090   3.149  50.822  1.00  0.00     0.045 C 
HETATM   23  C15 UNL     1      18.931   4.209  50.806  1.00  0.00     0.068 C 
HETATM   24  C16 UNL     1      20.407   4.047  50.878  1.00  0.00    -0.023 C 
HETATM   25  C17 UNL     1      20.989   5.233  50.848  1.00  0.00    -0.009 C 
HETATM   26  H11 UNL     1      25.152   1.074  54.983  1.00  0.00     0.319 HD
ENDROOT
TORSDOF 0
ENDMDL
MODEL 2
REMARK VINA RESULT:      -7.9      2.940      5.219
REMARK  0 active torsions:
REMARK  status: ('A' for Active; 'I' for Inactive)
ROOT
HETATM    1 CL1  UNL     1      17.911  -0.142  50.796  1.00  0.00    -0.200 Cl
HETATM    2  C1  UNL     1      18.954   1.227  51.046  1.00  0.00     0.048 A 
HETATM    3  C2  UNL     1      19.553   0.249  51.737  1.00  0.00     0.189 A 
HETATM    4  C3  UNL     1      20.794   0.199  52.556  1.00  0.00     0.107 C 
HETATM    5  N1  UNL     1      21.850   0.713  53.091  1.00  0.00    -0.279 NA
HETATM    6  C4  UNL     1      22.740  -0.093  53.895  1.00  0.00     0.315 C 
HETATM    7  O1  UNL     1      24.056   0.271  53.595  1.00  0.00    -0.370 OA
HETATM    8  C5  UNL     1      24.976  -0.468  54.288  1.00  0.00     0.171 C 
HETATM    9  C6  UNL     1      26.404  -0.014  53.942  1.00  0.00     0.056 C 
HETATM   10  C7  UNL     1      26.546  -0.165  52.456  1.00  0.00     0.275 C 
HETATM   11  N2  UNL     1      25.572   0.662  51.795  1.00  0.00     0.112 N 
HETATM   12  C8  UNL     1      25.790   2.077  51.926  1.00  0.00     0.369 C 
HETATM   13  C9  UNL     1      24.513   2.804  51.619  1.00  0.00     0.067 C 
HETATM   14  S1  UNL     1      24.082   3.850  50.467  1.00  0.00    -0.172 SA
HETATM   15  C10 UNL     1      25.620   4.259  49.586  1.00  0.00     0.115 C 
HETATM   16  C11 UNL     1      26.728   3.409  50.160  1.00  0.00     0.096 C 
HETATM   17  N3  UNL     1      26.823   2.463  51.022  1.00  0.00    -0.266 NA
HETATM   18  C12 UNL     1      23.428   5.341  51.198  1.00  0.00     0.216 C 
HETATM   19  N4  UNL     1      22.221   5.794  50.616  1.00  0.00    -0.285 NA
HETATM   20  C13 UNL     1      21.854   7.040  50.561  1.00  0.00     0.155 C 
HETATM   21  S2  UNL     1      20.281   7.495  49.786  1.00  0.00    -0.122 SA
HETATM   22  C14 UNL     1      19.258   5.992  49.656  1.00  0.00     0.045 C 
HETATM   23  C15 UNL     1      18.728   4.750  49.744  1.00  0.00     0.068 C 
HETATM   24  C16 UNL     1      19.390   3.662  50.510  1.00  0.00    -0.023 C 
HETATM   25  C17 UNL     1      18.669   2.557  50.431  1.00  0.00    -0.009 C 
HETATM   26  H11 UNL     1      25.532   0.435  50.773  1.00  0.00     0.319 HD
ENDROOT
TORSDOF 0
ENDMDL
MODEL 3
REMARK VINA RESULT:      -7.5      3.501      8.014
REMARK  0 active torsions:
REMARK  status: ('A' for Active; 'I' for Inactive)
ROOT
HETATM    1 CL1  UNL     1      19.767  -1.188  53.871  1.00  0.00    -0.200 Cl
HETATM    2  C1  UNL     1      21.049  -0.354  53.043  1.00  0.00     0.048 A 
HETATM    3  C2  UNL     1      19.956  -0.018  52.345  1.00  0.00     0.189 A 
HETATM    4  C3  UNL     1      19.741   0.837  51.147  1.00  0.00     0.107 C 
HETATM    5  N1  UNL     1      20.133   1.606  50.187  1.00  0.00    -0.279 NA
HETATM    6  C4  UNL     1      19.184   2.165  49.251  1.00  0.00     0.315 C 
HETATM    7  O1  UNL     1      19.553   3.486  48.986  1.00  0.00    -0.370 OA
HETATM    8  C5  UNL     1      18.688   4.112  48.131  1.00  0.00     0.171 C 
HETATM    9  C6  UNL     1      19.150   5.552  47.852  1.00  0.00     0.056 C 
HETATM   10  C7  UNL     1      19.233   6.234  49.186  1.00  0.00     0.275 C 
HETATM   11  N2  UNL     1      20.183   5.544  50.018  1.00  0.00     0.112 N 
HETATM   12  C8  UNL     1      21.551   5.653  49.594  1.00  0.00     0.369 C 
HETATM   13  C9  UNL     1      22.354   4.554  50.228  1.00  0.00     0.067 C 
HETATM   14  S1  UNL     1      23.583   4.542  51.277  1.00  0.00    -0.172 SA
HETATM   15  C10 UNL     1      24.082   6.282  51.456  1.00  0.00     0.115 C 
HETATM   16  C11 UNL     1      23.120   7.129  50.657  1.00  0.00     0.096 C 
HETATM   17  N3  UNL     1      22.047   6.932  49.983  1.00  0.00    -0.266 NA
HETATM   18  C12 UNL     1      24.956   3.618  50.610  1.00  0.00     0.216 C 
HETATM   19  N4  UNL     1      25.530   2.694  51.515  1.00  0.00    -0.285 NA
HETATM   20  C13 UNL     1      26.780   2.333  51.502  1.00  0.00     0.155 C 
HETATM   21  S2  UNL     1      27.396   1.140  52.717  1.00  0.00    -0.122 SA
HETATM   22  C14 UNL     1      25.963   0.284  53.450  1.00  0.00     0.045 C 
HETATM   23  C15 UNL     1      24.739  -0.200  53.761  1.00  0.00     0.068 C 
HETATM   24  C16 UNL     1      23.524   0.169  52.988  1.00  0.00    -0.023 C 
HETATM   25  C17 UNL     1      22.467  -0.436  53.500  1.00  0.00    -0.009 C 
HETATM   26  H11 UNL     1      20.123   5.889  51.006  1.00  0.00     0.319 HD
ENDROOT
TORSDOF 0
ENDMDL
MODEL 4
REMARK VINA RESULT:      -7.4      3.385      7.173
REMARK  0 active torsions:
REMARK  status: ('A' for Active; 'I' for Inactive)
ROOT
HETATM    1 CL1  UNL     1      27.887   4.763  48.574  1.00  0.00    -0.200 Cl
HETATM    2  C1  UNL     1      26.603   4.278  49.643  1.00  0.00     0.048 A 
HETATM    3  C2  UNL     1      26.220   5.492  49.226  1.00  0.00     0.189 A 
HETATM    4  C3  UNL     1      25.031   6.336  49.518  1.00  0.00     0.107 C 
HETATM    5  N1  UNL     1      23.906   6.592  50.098  1.00  0.00    -0.279 NA
HETATM    6  C4  UNL     1      23.207   7.831  49.844  1.00  0.00     0.315 C 
HETATM    7  O1  UNL     1      21.840   7.555  49.757  1.00  0.00    -0.370 OA
HETATM    8  C5  UNL     1      21.095   8.670  49.482  1.00  0.00     0.171 C 
HETATM    9  C6  UNL     1      19.599   8.319  49.421  1.00  0.00     0.056 C 
HETATM   10  C7  UNL     1      19.458   7.259  48.368  1.00  0.00     0.275 C 
HETATM   11  N2  UNL     1      20.238   6.109  48.738  1.00  0.00     0.112 N 
HETATM   12  C8  UNL     1      19.753   5.391  49.885  1.00  0.00     0.369 C 
HETATM   13  C9  UNL     1      20.857   4.539  50.438  1.00  0.00     0.067 C 
HETATM   14  S1  UNL     1      21.052   2.944  50.600  1.00  0.00    -0.172 SA
HETATM   15  C10 UNL     1      19.446   2.213  50.158  1.00  0.00     0.115 C 
HETATM   16  C11 UNL     1      18.537   3.328  49.698  1.00  0.00     0.096 C 
HETATM   17  N3  UNL     1      18.645   4.588  49.482  1.00  0.00    -0.266 NA
HETATM   18  C12 UNL     1      21.420   2.534  52.297  1.00  0.00     0.216 C 
HETATM   19  N4  UNL     1      22.503   1.639  52.459  1.00  0.00    -0.285 NA
HETATM   20  C13 UNL     1      22.619   0.796  53.442  1.00  0.00     0.155 C 
HETATM   21  S2  UNL     1      24.057  -0.301  53.538  1.00  0.00    -0.122 SA
HETATM   22  C14 UNL     1      25.350   0.360  52.437  1.00  0.00     0.045 C 
HETATM   23  C15 UNL     1      26.113   1.104  51.602  1.00  0.00     0.068 C 
HETATM   24  C16 UNL     1      25.691   2.451  51.138  1.00  0.00    -0.023 C 
HETATM   25  C17 UNL     1      26.611   2.956  50.334  1.00  0.00    -0.009 C 
HETATM   26  H11 UNL     1      20.300   5.435  47.938  1.00  0.00     0.319 HD
ENDROOT
TORSDOF 0
ENDMDL
MODEL 5
REMARK VINA RESULT:      -7.1      2.681      3.311
REMARK  0 active torsions:
REMARK  status: ('A' for Active; 'I' for Inactive)
ROOT
HETATM    1 CL1  UNL     1      26.509   7.123  49.056  1.00  0.00    -0.200 Cl
HETATM    2  C1  UNL     1      25.256   5.932  48.862  1.00  0.00     0.048 A 
HETATM    3  C2  UNL     1      26.220   5.266  49.511  1.00  0.00     0.189 A 
HETATM    4  C3  UNL     1      26.332   3.867  50.003  1.00  0.00     0.107 C 
HETATM    5  N1  UNL     1      25.902   2.663  50.177  1.00  0.00    -0.279 NA
HETATM    6  C4  UNL     1      26.704   1.682  50.872  1.00  0.00     0.315 C 
HETATM    7  O1  UNL     1      25.863   0.926  51.692  1.00  0.00    -0.370 OA
HETATM    8  C5  UNL     1      26.544  -0.012  52.420  1.00  0.00     0.171 C 
HETATM    9  C6  UNL     1      25.573  -0.832  53.286  1.00  0.00     0.056 C 
HETATM   10  C7  UNL     1      24.846   0.153  54.153  1.00  0.00     0.275 C 
HETATM   11  N2  UNL     1      24.129   1.084  53.323  1.00  0.00     0.112 N 
HETATM   12  C8  UNL     1      23.022   0.521  52.598  1.00  0.00     0.369 C 
HETATM   13  C9  UNL     1      22.666   1.429  51.457  1.00  0.00     0.067 C 
HETATM   14  S1  UNL     1      21.349   2.291  51.095  1.00  0.00    -0.172 SA
HETATM   15  C10 UNL     1      20.091   1.783  52.308  1.00  0.00     0.115 C 
HETATM   16  C11 UNL     1      20.739   0.829  53.282  1.00  0.00     0.096 C 
HETATM   17  N3  UNL     1      21.921   0.375  53.493  1.00  0.00    -0.266 NA
HETATM   18  C12 UNL     1      20.768   1.875  49.460  1.00  0.00     0.216 C 
HETATM   19  N4  UNL     1      20.457   2.993  48.651  1.00  0.00    -0.285 NA
HETATM   20  C13 UNL     1      19.557   2.993  47.712  1.00  0.00     0.155 C 
HETATM   21  S2  UNL     1      19.250   4.492  46.743  1.00  0.00    -0.122 SA
HETATM   22  C14 UNL     1      20.667   5.616  46.972  1.00  0.00     0.045 C 
HETATM   23  C15 UNL     1      21.850   6.194  47.286  1.00  0.00     0.068 C 
HETATM   24  C16 UNL     1      22.921   5.459  48.006  1.00  0.00    -0.023 C 
HETATM   25  C17 UNL     1      23.963   6.252  48.189  1.00  0.00    -0.009 C 
HETATM   26  H11 UNL     1      23.766   1.882  53.897  1.00  0.00     0.319 HD
ENDROOT
TORSDOF 0
ENDMDL
MODEL 6
REMARK VINA RESULT:      -7.0      4.432      8.204
REMARK  0 active torsions:
REMARK  status: ('A' for Active; 'I' for Inactive)
ROOT
HETATM    1 CL1  UNL     1      18.839   0.854  50.066  1.00  0.00    -0.200 Cl
HETATM    2  C1  UNL     1      20.516   1.316  50.024  1.00  0.00     0.048 A 
HETATM    3  C2  UNL     1      20.019   1.847  48.900  1.00  0.00     0.189 A 
HETATM    4  C3  UNL     1      20.623   2.649  47.803  1.00  0.00     0.107 C 
HETATM    5  N1  UNL     1      21.601   3.244  47.206  1.00  0.00    -0.279 NA
HETATM    6  C4  UNL     1      21.393   3.943  45.958  1.00  0.00     0.315 C 
HETATM    7  O1  UNL     1      22.139   5.124  45.986  1.00  0.00    -0.370 OA
HETATM    8  C5  UNL     1      21.976   5.874  44.853  1.00  0.00     0.171 C 
HETATM    9  C6  UNL     1      22.835   7.149  44.921  1.00  0.00     0.056 C 
HETATM   10  C7  UNL     1      22.408   7.878  46.161  1.00  0.00     0.275 C 
HETATM   11  N2  UNL     1      22.637   7.045  47.311  1.00  0.00     0.112 N 
HETATM   12  C8  UNL     1      24.020   6.809  47.621  1.00  0.00     0.369 C 
HETATM   13  C9  UNL     1      24.130   5.600  48.504  1.00  0.00     0.067 C 
HETATM   14  S1  UNL     1      24.644   5.375  50.018  1.00  0.00    -0.172 SA
HETATM   15  C10 UNL     1      25.378   6.962  50.520  1.00  0.00     0.115 C 
HETATM   16  C11 UNL     1      25.158   7.953  49.402  1.00  0.00     0.096 C 
HETATM   17  N3  UNL     1      24.542   7.964  48.277  1.00  0.00    -0.266 NA
HETATM   18  C12 UNL     1      25.911   4.119  50.061  1.00  0.00     0.216 C 
HETATM   19  N4  UNL     1      25.736   3.149  51.076  1.00  0.00    -0.285 NA
HETATM   20  C13 UNL     1      26.708   2.511  51.659  1.00  0.00     0.155 C 
HETATM   21  S2  UNL     1      26.354   1.290  52.948  1.00  0.00    -0.122 SA
HETATM   22  C14 UNL     1      24.592   0.836  52.831  1.00  0.00     0.045 C 
HETATM   23  C15 UNL     1      23.299   0.666  52.471  1.00  0.00     0.068 C 
HETATM   24  C16 UNL     1      22.743   1.253  51.224  1.00  0.00    -0.023 C 
HETATM   25  C17 UNL     1      21.464   0.941  51.114  1.00  0.00    -0.009 C 
HETATM   26  H11 UNL     1      22.182   7.458  48.160  1.00  0.00     0.319 HD
ENDROOT
TORSDOF 0
ENDMDL
MODEL 7
REMARK VINA RESULT:      -7.0      2.678      6.725
REMARK  0 active torsions:
REMARK  status: ('A' for Active; 'I' for Inactive)
ROOT
HETATM    1 CL1  UNL     1      26.793   3.305  49.793  1.00  0.00    -0.200 Cl
HETATM    2  C1  UNL     1      25.472   2.839  50.826  1.00  0.00     0.048 A 
HETATM    3  C2  UNL     1      24.982   3.884  50.145  1.00  0.00     0.189 A 
HETATM    4  C3  UNL     1      23.668   4.579  50.162  1.00  0.00     0.107 C 
HETATM    5  N1  UNL     1      22.462   4.767  50.583  1.00  0.00    -0.279 NA
HETATM    6  C4  UNL     1      21.639   5.819  50.031  1.00  0.00     0.315 C 
HETATM    7  O1  UNL     1      20.338   5.330  49.886  1.00  0.00    -0.370 OA
HETATM    8  C5  UNL     1      19.490   6.250  49.333  1.00  0.00     0.171 C 
HETATM    9  C6  UNL     1      18.069   5.674  49.217  1.00  0.00     0.056 C 
HETATM   10  C7  UNL     1      18.185   4.428  48.389  1.00  0.00     0.275 C 
HETATM   11  N2  UNL     1      19.063   3.497  49.045  1.00  0.00     0.112 N 
HETATM   12  C8  UNL     1      18.551   2.939  50.267  1.00  0.00     0.369 C 
HETATM   13  C9  UNL     1      19.689   2.379  51.070  1.00  0.00     0.067 C 
HETATM   14  S1  UNL     1      20.072   0.889  51.561  1.00  0.00    -0.172 SA
HETATM   15  C10 UNL     1      18.633  -0.142  51.141  1.00  0.00     0.115 C 
HETATM   16  C11 UNL     1      17.643   0.718  50.394  1.00  0.00     0.096 C 
HETATM   17  N3  UNL     1      17.610   1.918  49.941  1.00  0.00    -0.266 NA
HETATM   18  C12 UNL     1      20.299   0.861  53.331  1.00  0.00     0.216 C 
HETATM   19  N4  UNL     1      21.465   0.184  53.758  1.00  0.00    -0.285 NA
HETATM   20  C13 UNL     1      21.580  -0.435  54.896  1.00  0.00     0.155 C 
HETATM   21  S2  UNL     1      23.130  -1.267  55.329  1.00  0.00    -0.122 SA
HETATM   22  C14 UNL     1      24.439  -0.635  54.229  1.00  0.00     0.045 C 
HETATM   23  C15 UNL     1      25.186   0.047  53.330  1.00  0.00     0.068 C 
HETATM   24  C16 UNL     1      24.646   1.206  52.573  1.00  0.00    -0.023 C 
HETATM   25  C17 UNL     1      25.576   1.685  51.765  1.00  0.00    -0.009 C 
HETATM   26  H11 UNL     1      19.301   2.703  48.403  1.00  0.00     0.319 HD
ENDROOT
TORSDOF 0
ENDMDL
MODEL 8
REMARK VINA RESULT:      -6.8      3.457      6.580
REMARK  0 active torsions:
REMARK  status: ('A' for Active; 'I' for Inactive)
ROOT
HETATM    1 CL1  UNL     1      24.045  -0.514  53.655  1.00  0.00    -0.200 Cl
HETATM    2  C1  UNL     1      22.547   0.269  53.245  1.00  0.00     0.048 A 
HETATM    3  C2  UNL     1      23.458   1.237  53.086  1.00  0.00     0.189 A 
HETATM    4  C3  UNL     1      23.362   2.662  52.671  1.00  0.00     0.107 C 
HETATM    5  N1  UNL     1      22.722   3.720  52.301  1.00  0.00    -0.279 NA
HETATM    6  C4  UNL     1      23.425   4.952  52.022  1.00  0.00     0.315 C 
HETATM    7  O1  UNL     1      22.844   5.546  50.899  1.00  0.00    -0.370 OA
HETATM    8  C5  UNL     1      23.470   6.708  50.536  1.00  0.00     0.171 C 
HETATM    9  C6  UNL     1      22.781   7.334  49.312  1.00  0.00     0.056 C 
HETATM   10  C7  UNL     1      22.822   6.296  48.229  1.00  0.00     0.275 C 
HETATM   11  N2  UNL     1      22.120   5.119  48.665  1.00  0.00     0.112 N 
HETATM   12  C8  UNL     1      20.698   5.280  48.806  1.00  0.00     0.369 C 
HETATM   13  C9  UNL     1      20.162   4.185  49.682  1.00  0.00     0.067 C 
HETATM   14  S1  UNL     1      19.131   2.968  49.430  1.00  0.00    -0.172 SA
HETATM   15  C10 UNL     1      18.438   3.257  47.773  1.00  0.00     0.115 C 
HETATM   16  C11 UNL     1      19.137   4.455  47.177  1.00  0.00     0.096 C 
HETATM   17  N3  UNL     1      20.105   5.229  47.510  1.00  0.00    -0.266 NA
HETATM   18  C12 UNL     1      17.804   3.024  50.623  1.00  0.00     0.216 C 
HETATM   19  N4  UNL     1      17.511   1.779  51.227  1.00  0.00    -0.285 NA
HETATM   20  C13 UNL     1      16.336   1.431  51.661  1.00  0.00     0.155 C 
HETATM   21  S2  UNL     1      16.087  -0.196  52.417  1.00  0.00    -0.122 SA
HETATM   22  C14 UNL     1      17.721  -0.868  52.868  1.00  0.00     0.045 C 
HETATM   23  C15 UNL     1      19.033  -1.070  53.129  1.00  0.00     0.068 C 
HETATM   24  C16 UNL     1      20.047   0.001  52.953  1.00  0.00    -0.023 C 
HETATM   25  C17 UNL     1      21.244  -0.459  53.272  1.00  0.00    -0.009 C 
HETATM   26  H11 UNL     1      22.290   4.324  48.004  1.00  0.00     0.319 HD
ENDROOT
TORSDOF 0
ENDMDL
MODEL 9
REMARK VINA RESULT:      -6.7      3.601      7.101
REMARK  0 active torsions:
REMARK  status: ('A' for Active; 'I' for Inactive)
ROOT
HETATM    1 CL1  UNL     1      15.814   0.726  50.552  1.00  0.00    -0.200 Cl
HETATM    2  C1  UNL     1      17.534   0.701  50.812  1.00  0.00     0.048 A 
HETATM    3  C2  UNL     1      17.396   1.445  49.707  1.00  0.00     0.189 A 
HETATM    4  C3  UNL     1      18.371   2.137  48.822  1.00  0.00     0.107 C 
HETATM    5  N1  UNL     1      19.559   2.483  48.454  1.00  0.00    -0.279 NA
HETATM    6  C4  UNL     1      19.762   3.317  47.292  1.00  0.00     0.315 C 
HETATM    7  O1  UNL     1      20.776   4.234  47.580  1.00  0.00    -0.370 OA
HETATM    8  C5  UNL     1      21.016   5.095  46.543  1.00  0.00     0.171 C 
HETATM    9  C6  UNL     1      22.153   6.066  46.899  1.00  0.00     0.056 C 
HETATM   10  C7  UNL     1      21.725   6.777  48.150  1.00  0.00     0.275 C 
HETATM   11  N2  UNL     1      21.524   5.817  49.202  1.00  0.00     0.112 N 
HETATM   12  C8  UNL     1      22.721   5.176  49.674  1.00  0.00     0.369 C 
HETATM   13  C9  UNL     1      22.354   3.913  50.397  1.00  0.00     0.067 C 
HETATM   14  S1  UNL     1      22.520   3.423  51.927  1.00  0.00    -0.172 SA
HETATM   15  C10 UNL     1      23.547   4.690  52.731  1.00  0.00     0.115 C 
HETATM   16  C11 UNL     1      23.793   5.796  51.733  1.00  0.00     0.096 C 
HETATM   17  N3  UNL     1      23.406   6.077  50.542  1.00  0.00    -0.266 NA
HETATM   18  C12 UNL     1      23.384   1.863  51.986  1.00  0.00     0.216 C 
HETATM   19  N4  UNL     1      22.787   0.897  52.830  1.00  0.00    -0.285 NA
HETATM   20  C13 UNL     1      23.441  -0.035  53.458  1.00  0.00     0.155 C 
HETATM   21  S2  UNL     1      22.560  -1.215  54.513  1.00  0.00    -0.122 SA
HETATM   22  C14 UNL     1      20.789  -1.144  54.086  1.00  0.00     0.045 C 
HETATM   23  C15 UNL     1      19.579  -0.912  53.526  1.00  0.00     0.068 C 
HETATM   24  C16 UNL     1      19.423  -0.088  52.300  1.00  0.00    -0.023 C 
HETATM   25  C17 UNL     1      18.146  -0.018  51.968  1.00  0.00    -0.009 C 
HETATM   26  H11 UNL     1      21.054   6.266  50.023  1.00  0.00     0.319 HD
ENDROOT
TORSDOF 0
ENDMDL
