MODEL 1
REMARK VINA RESULT:      -8.6      0.000      0.000
REMARK  8 active torsions:
REMARK  status: ('A' for Active; 'I' for Inactive)
REMARK    1  A    between atoms: C2_2  and  C3_3 
REMARK       I    between atoms: C3_3  and  N1_5 
REMARK    2  A    between atoms: N1_5  and  C4_6 
REMARK    3  A    between atoms: C10_12  and  O2_13 
REMARK    4  A    between atoms: C13_18  and  N4_19 
REMARK    5  A    between atoms: N4_19  and  C14_20 
REMARK    6  A    between atoms: C17_23  and  O3_24 
REMARK    7  A    between atoms: O3_24  and  C18_25 
REMARK    8  A    between atoms: C18_25  and  C19_26 
ROOT
HETATM    1  C4  UNL     1      27.357   7.120  48.110  1.00  0.00     0.101 C 
HETATM    2  C5  UNL     1      26.389   6.704  48.903  1.00  0.00    -0.007 C 
HETATM    3  C6  UNL     1      25.459   5.520  48.884  1.00  0.00     0.066 C 
HETATM    4  C7  UNL     1      24.041   6.060  48.781  1.00  0.00     0.056 A 
HETATM    5  C8  UNL     1      23.915   7.073  49.908  1.00  0.00     0.007 C 
HETATM    6  C9  UNL     1      24.908   7.404  50.711  1.00  0.00     0.008 C 
HETATM    7  C10 UNL     1      26.073   7.517  50.096  1.00  0.00     0.084 C 
HETATM    8  C11 UNL     1      23.829   6.801  47.533  1.00  0.00     0.109 A 
HETATM    9  N2  UNL     1      22.896   6.691  46.635  1.00  0.00    -0.257 NA
HETATM   10  C12 UNL     1      21.911   5.673  46.915  1.00  0.00     0.228 A 
HETATM   11  N3  UNL     1      22.031   4.994  47.968  1.00  0.00    -0.256 NA
HETATM   12  C13 UNL     1      23.006   5.033  49.003  1.00  0.00     0.225 A 
ENDROOT
BRANCH  12  13
HETATM   13  N4  UNL     1      23.585   3.672  49.050  1.00  0.00    -0.366 N 
HETATM   14  H15 UNL     1      24.061   3.149  48.260  1.00  0.00     0.162 HD
BRANCH  13  15
HETATM   15  C14 UNL     1      23.526   2.923  50.265  1.00  0.00     0.029 A 
HETATM   16  C15 UNL     1      24.157   3.282  51.432  1.00  0.00     0.032 A 
HETATM   17  C16 UNL     1      24.118   2.595  52.618  1.00  0.00     0.039 A 
HETATM   18  C17 UNL     1      23.377   1.430  52.650  1.00  0.00     0.069 A 
HETATM   19  C25 UNL     1      22.696   0.979  51.514  1.00  0.00     0.039 A 
HETATM   20  C26 UNL     1      22.805   1.746  50.382  1.00  0.00     0.032 A 
BRANCH  18  21
HETATM   21  O3  UNL     1      23.262   0.641  53.804  1.00  0.00    -0.347 OA
BRANCH  21  22
HETATM   22  C18 UNL     1      23.913  -0.617  53.771  1.00  0.00     0.214 C 
BRANCH  22  23
HETATM   23  C19 UNL     1      25.396  -0.455  53.851  1.00  0.00    -0.034 A 
HETATM   24  C20 UNL     1      26.074   0.124  54.902  1.00  0.00     0.009 A 
HETATM   25  C21 UNL     1      27.447   0.196  54.819  1.00  0.00     0.001 A 
HETATM   26  C22 UNL     1      28.179  -0.277  53.750  1.00  0.00     0.000 A 
HETATM   27  C23 UNL     1      27.474  -0.851  52.713  1.00  0.00     0.001 A 
HETATM   28  C24 UNL     1      26.090  -0.942  52.759  1.00  0.00     0.009 A 
ENDBRANCH  22  23
ENDBRANCH  21  22
ENDBRANCH  18  21
ENDBRANCH  13  15
ENDBRANCH  12  13
BRANCH   1  29
HETATM   29  N1  UNL     1      28.252   8.223  48.091  1.00  0.00    -0.337 N 
HETATM   30  C3  UNL     1      29.625   7.939  48.273  1.00  0.00     0.221 C 
HETATM   31  O1  UNL     1      30.023   6.751  48.444  1.00  0.00    -0.273 OA
HETATM   32  H6  UNL     1      27.935   9.204  47.949  1.00  0.00     0.168 HD
BRANCH  30  33
HETATM   33  C2  UNL     1      30.554   9.070  48.255  1.00  0.00     0.098 C 
HETATM   34  C1  UNL     1      30.479   9.894  49.519  1.00  0.00     0.014 C 
ENDBRANCH  30  33
ENDBRANCH   1  29
BRANCH   7  35
HETATM   35  O2  UNL     1      26.947   8.445  50.663  1.00  0.00    -0.359 OA
HETATM   36  H11 UNL     1      27.319   8.256  51.596  1.00  0.00     0.217 HD
ENDBRANCH   7  35
TORSDOF 8
ENDMDL
MODEL 2
REMARK VINA RESULT:      -8.4      2.651      9.544
REMARK  8 active torsions:
REMARK  status: ('A' for Active; 'I' for Inactive)
REMARK    1  A    between atoms: C2_2  and  C3_3 
REMARK       I    between atoms: C3_3  and  N1_5 
REMARK    2  A    between atoms: N1_5  and  C4_6 
REMARK    3  A    between atoms: C10_12  and  O2_13 
REMARK    4  A    between atoms: C13_18  and  N4_19 
REMARK    5  A    between atoms: N4_19  and  C14_20 
REMARK    6  A    between atoms: C17_23  and  O3_24 
REMARK    7  A    between atoms: O3_24  and  C18_25 
REMARK    8  A    between atoms: C18_25  and  C19_26 
ROOT
HETATM    1  C4  UNL     1      21.532   1.332  50.438  1.00  0.00     0.101 C 
HETATM    2  C5  UNL     1      22.427   2.258  50.719  1.00  0.00    -0.007 C 
HETATM    3  C6  UNL     1      23.836   2.525  50.258  1.00  0.00     0.066 C 
HETATM    4  C7  UNL     1      24.736   2.434  51.480  1.00  0.00     0.056 A 
HETATM    5  C8  UNL     1      24.114   3.366  52.506  1.00  0.00     0.007 C 
HETATM    6  C9  UNL     1      22.983   4.019  52.314  1.00  0.00     0.008 C 
HETATM    7  C10 UNL     1      22.058   3.306  51.693  1.00  0.00     0.084 C 
HETATM    8  C11 UNL     1      24.717   1.093  52.074  1.00  0.00     0.109 A 
HETATM    9  N2  UNL     1      25.696   0.304  52.404  1.00  0.00    -0.257 NA
HETATM   10  C12 UNL     1      27.012   0.836  52.143  1.00  0.00     0.228 A 
HETATM   11  N3  UNL     1      27.105   1.982  51.630  1.00  0.00    -0.256 NA
HETATM   12  C13 UNL     1      26.108   2.916  51.232  1.00  0.00     0.225 A 
ENDROOT
BRANCH  12  13
HETATM   13  N4  UNL     1      26.352   3.163  49.794  1.00  0.00    -0.366 N 
HETATM   14  H15 UNL     1      26.375   2.445  49.014  1.00  0.00     0.162 HD
BRANCH  13  15
HETATM   15  C14 UNL     1      26.596   4.495  49.339  1.00  0.00     0.029 A 
HETATM   16  C15 UNL     1      25.717   5.541  49.490  1.00  0.00     0.032 A 
HETATM   17  C16 UNL     1      25.917   6.833  49.074  1.00  0.00     0.039 A 
HETATM   18  C17 UNL     1      27.112   7.116  48.443  1.00  0.00     0.069 A 
HETATM   19  C25 UNL     1      28.073   6.119  48.241  1.00  0.00     0.039 A 
HETATM   20  C26 UNL     1      27.767   4.863  48.698  1.00  0.00     0.032 A 
BRANCH  18  21
HETATM   21  O3  UNL     1      27.431   8.399  47.974  1.00  0.00    -0.347 OA
BRANCH  21  22
HETATM   22  C18 UNL     1      27.248   9.464  48.888  1.00  0.00     0.214 C 
BRANCH  22  23
HETATM   23  C19 UNL     1      28.477  10.310  48.981  1.00  0.00    -0.034 A 
HETATM   24  C20 UNL     1      29.744   9.837  49.249  1.00  0.00     0.009 A 
HETATM   25  C21 UNL     1      30.773  10.752  49.300  1.00  0.00     0.001 A 
HETATM   26  C22 UNL     1      30.609  12.106  49.101  1.00  0.00     0.000 A 
HETATM   27  C23 UNL     1      29.330  12.550  48.835  1.00  0.00     0.001 A 
HETATM   28  C24 UNL     1      28.267  11.660  48.774  1.00  0.00     0.009 A 
ENDBRANCH  22  23
ENDBRANCH  21  22
ENDBRANCH  18  21
ENDBRANCH  13  15
ENDBRANCH  12  13
BRANCH   1  29
HETATM   29  N1  UNL     1      20.202   1.047  50.848  1.00  0.00    -0.337 N 
HETATM   30  C3  UNL     1      20.043   0.173  51.949  1.00  0.00     0.221 C 
HETATM   31  O1  UNL     1      21.050  -0.323  52.532  1.00  0.00    -0.273 OA
HETATM   32  H6  UNL     1      19.368   1.451  50.377  1.00  0.00     0.168 HD
BRANCH  30  33
HETATM   33  C2  UNL     1      18.677  -0.127  52.378  1.00  0.00     0.098 C 
HETATM   34  C1  UNL     1      18.623  -1.282  53.351  1.00  0.00     0.014 C 
ENDBRANCH  30  33
ENDBRANCH   1  29
BRANCH   7  35
HETATM   35  O2  UNL     1      20.744   3.629  52.034  1.00  0.00    -0.359 OA
HETATM   36  H11 UNL     1      20.315   3.145  52.826  1.00  0.00     0.217 HD
ENDBRANCH   7  35
TORSDOF 8
ENDMDL
MODEL 3
REMARK VINA RESULT:      -8.4      5.659      8.786
REMARK  8 active torsions:
REMARK  status: ('A' for Active; 'I' for Inactive)
REMARK    1  A    between atoms: C2_2  and  C3_3 
REMARK       I    between atoms: C3_3  and  N1_5 
REMARK    2  A    between atoms: N1_5  and  C4_6 
REMARK    3  A    between atoms: C10_12  and  O2_13 
REMARK    4  A    between atoms: C13_18  and  N4_19 
REMARK    5  A    between atoms: N4_19  and  C14_20 
REMARK    6  A    between atoms: C17_23  and  O3_24 
REMARK    7  A    between atoms: O3_24  and  C18_25 
REMARK    8  A    between atoms: C18_25  and  C19_26 
ROOT
HETATM    1  C4  UNL     1      25.853   0.669  52.058  1.00  0.00     0.101 C 
HETATM    2  C5  UNL     1      24.776   1.379  52.331  1.00  0.00    -0.007 C 
HETATM    3  C6  UNL     1      23.329   1.281  51.926  1.00  0.00     0.066 C 
HETATM    4  C7  UNL     1      22.985   2.552  51.167  1.00  0.00     0.056 A 
HETATM    5  C8  UNL     1      23.415   3.691  52.077  1.00  0.00     0.007 C 
HETATM    6  C9  UNL     1      24.022   3.515  53.236  1.00  0.00     0.008 C 
HETATM    7  C10 UNL     1      24.925   2.549  53.220  1.00  0.00     0.084 C 
HETATM    8  C11 UNL     1      23.774   2.685  49.938  1.00  0.00     0.109 A 
HETATM    9  N2  UNL     1      23.398   2.920  48.716  1.00  0.00    -0.257 NA
HETATM   10  C12 UNL     1      21.973   3.075  48.545  1.00  0.00     0.228 A 
HETATM   11  N3  UNL     1      21.232   2.971  49.557  1.00  0.00    -0.256 NA
HETATM   12  C13 UNL     1      21.540   2.715  50.922  1.00  0.00     0.225 A 
ENDROOT
BRANCH  12  13
HETATM   13  N4  UNL     1      20.783   1.492  51.273  1.00  0.00    -0.366 N 
HETATM   14  H15 UNL     1      21.180   0.543  51.529  1.00  0.00     0.162 HD
BRANCH  13  15
HETATM   15  C14 UNL     1      19.355   1.526  51.283  1.00  0.00     0.029 A 
HETATM   16  C15 UNL     1      18.549   0.450  50.995  1.00  0.00     0.032 A 
HETATM   17  C16 UNL     1      17.178   0.441  51.001  1.00  0.00     0.039 A 
HETATM   18  C17 UNL     1      16.539   1.621  51.325  1.00  0.00     0.069 A 
HETATM   19  C25 UNL     1      17.270   2.774  51.634  1.00  0.00     0.039 A 
HETATM   20  C26 UNL     1      18.637   2.668  51.597  1.00  0.00     0.032 A 
BRANCH  18  21
HETATM   21  O3  UNL     1      15.142   1.736  51.365  1.00  0.00    -0.347 OA
BRANCH  21  22
HETATM   22  C18 UNL     1      14.504   1.229  52.524  1.00  0.00     0.214 C 
BRANCH  22  23
HETATM   23  C19 UNL     1      13.690   2.287  53.196  1.00  0.00    -0.034 A 
HETATM   24  C20 UNL     1      13.936   3.642  53.120  1.00  0.00     0.009 A 
HETATM   25  C21 UNL     1      13.088   4.487  53.801  1.00  0.00     0.001 A 
HETATM   26  C22 UNL     1      12.013   4.058  54.550  1.00  0.00     0.000 A 
HETATM   27  C23 UNL     1      11.792   2.698  54.607  1.00  0.00     0.001 A 
HETATM   28  C24 UNL     1      12.623   1.813  53.935  1.00  0.00     0.009 A 
ENDBRANCH  22  23
ENDBRANCH  21  22
ENDBRANCH  18  21
ENDBRANCH  13  15
ENDBRANCH  12  13
BRANCH   1  29
HETATM   29  N1  UNL     1      27.227   0.727  52.416  1.00  0.00    -0.337 N 
HETATM   30  C3  UNL     1      27.702  -0.268  53.303  1.00  0.00     0.221 C 
HETATM   31  O1  UNL     1      26.926  -1.162  53.748  1.00  0.00    -0.273 OA
HETATM   32  H6  UNL     1      27.873   1.457  52.054  1.00  0.00     0.168 HD
BRANCH  30  33
HETATM   33  C2  UNL     1      29.115  -0.215  53.677  1.00  0.00     0.098 C 
HETATM   34  C1  UNL     1      29.799  -1.553  53.519  1.00  0.00     0.014 C 
ENDBRANCH  30  33
ENDBRANCH   1  29
BRANCH   7  35
HETATM   35  O2  UNL     1      25.997   2.736  54.095  1.00  0.00    -0.359 OA
HETATM   36  H11 UNL     1      26.155   3.670  54.477  1.00  0.00     0.217 HD
ENDBRANCH   7  35
TORSDOF 8
ENDMDL
MODEL 4
REMARK VINA RESULT:      -8.3      1.525      2.047
REMARK  8 active torsions:
REMARK  status: ('A' for Active; 'I' for Inactive)
REMARK    1  A    between atoms: C2_2  and  C3_3 
REMARK       I    between atoms: C3_3  and  N1_5 
REMARK    2  A    between atoms: N1_5  and  C4_6 
REMARK    3  A    between atoms: C10_12  and  O2_13 
REMARK    4  A    between atoms: C13_18  and  N4_19 
REMARK    5  A    between atoms: N4_19  and  C14_20 
REMARK    6  A    between atoms: C17_23  and  O3_24 
REMARK    7  A    between atoms: O3_24  and  C18_25 
REMARK    8  A    between atoms: C18_25  and  C19_26 
ROOT
HETATM    1  C4  UNL     1      28.188   8.760  48.007  1.00  0.00     0.101 C 
HETATM    2  C5  UNL     1      27.367   8.134  48.827  1.00  0.00    -0.007 C 
HETATM    3  C6  UNL     1      26.673   6.798  48.794  1.00  0.00     0.066 C 
HETATM    4  C7  UNL     1      25.177   7.065  48.799  1.00  0.00     0.056 A 
HETATM    5  C8  UNL     1      24.938   7.984  49.987  1.00  0.00     0.007 C 
HETATM    6  C9  UNL     1      25.903   8.459  50.752  1.00  0.00     0.008 C 
HETATM    7  C10 UNL     1      26.984   8.817  50.080  1.00  0.00     0.084 C 
HETATM    8  C11 UNL     1      24.750   7.809  47.609  1.00  0.00     0.109 A 
HETATM    9  N2  UNL     1      23.797   7.565  46.760  1.00  0.00    -0.257 NA
HETATM   10  C12 UNL     1      23.038   6.368  47.035  1.00  0.00     0.228 A 
HETATM   11  N3  UNL     1      23.350   5.677  48.040  1.00  0.00    -0.256 NA
HETATM   12  C13 UNL     1      24.367   5.853  49.020  1.00  0.00     0.225 A 
ENDROOT
BRANCH  12  13
HETATM   13  N4  UNL     1      25.189   4.624  48.958  1.00  0.00    -0.366 N 
HETATM   14  H15 UNL     1      25.758   4.273  48.134  1.00  0.00     0.162 HD
BRANCH  13  15
HETATM   15  C14 UNL     1      25.266   3.769  50.099  1.00  0.00     0.029 A 
HETATM   16  C15 UNL     1      26.357   2.997  50.422  1.00  0.00     0.032 A 
HETATM   17  C16 UNL     1      26.471   2.171  51.510  1.00  0.00     0.039 A 
HETATM   18  C17 UNL     1      25.391   2.101  52.367  1.00  0.00     0.069 A 
HETATM   19  C25 UNL     1      24.232   2.848  52.126  1.00  0.00     0.039 A 
HETATM   20  C26 UNL     1      24.228   3.641  51.008  1.00  0.00     0.032 A 
BRANCH  18  21
HETATM   21  O3  UNL     1      25.388   1.292  53.513  1.00  0.00    -0.347 OA
BRANCH  21  22
HETATM   22  C18 UNL     1      25.550  -0.099  53.298  1.00  0.00     0.214 C 
BRANCH  22  23
HETATM   23  C19 UNL     1      26.979  -0.504  53.462  1.00  0.00    -0.034 A 
HETATM   24  C20 UNL     1      27.582  -1.560  52.810  1.00  0.00     0.009 A 
HETATM   25  C21 UNL     1      28.911  -1.802  53.074  1.00  0.00     0.001 A 
HETATM   26  C22 UNL     1      29.672  -1.052  53.946  1.00  0.00     0.000 A 
HETATM   27  C23 UNL     1      29.043  -0.003  54.582  1.00  0.00     0.001 A 
HETATM   28  C24 UNL     1      27.703   0.274  54.345  1.00  0.00     0.009 A 
ENDBRANCH  22  23
ENDBRANCH  21  22
ENDBRANCH  18  21
ENDBRANCH  13  15
ENDBRANCH  12  13
BRANCH   1  29
HETATM   29  N1  UNL     1      28.859  10.012  48.001  1.00  0.00    -0.337 N 
HETATM   30  C3  UNL     1      30.253   9.994  48.243  1.00  0.00     0.221 C 
HETATM   31  O1  UNL     1      30.859   8.904  48.454  1.00  0.00    -0.273 OA
HETATM   32  H6  UNL     1      28.370  10.913  47.828  1.00  0.00     0.168 HD
BRANCH  30  33
HETATM   33  C2  UNL     1      30.953  11.279  48.239  1.00  0.00     0.098 C 
HETATM   34  C1  UNL     1      30.224  12.331  49.043  1.00  0.00     0.014 C 
ENDBRANCH  30  33
ENDBRANCH   1  29
BRANCH   7  35
HETATM   35  O2  UNL     1      27.706   9.867  50.650  1.00  0.00    -0.359 OA
HETATM   36  H11 UNL     1      27.273  10.399  51.408  1.00  0.00     0.217 HD
ENDBRANCH   7  35
TORSDOF 8
ENDMDL
MODEL 5
REMARK VINA RESULT:      -8.2      3.102      5.500
REMARK  8 active torsions:
REMARK  status: ('A' for Active; 'I' for Inactive)
REMARK    1  A    between atoms: C2_2  and  C3_3 
REMARK       I    between atoms: C3_3  and  N1_5 
REMARK    2  A    between atoms: N1_5  and  C4_6 
REMARK    3  A    between atoms: C10_12  and  O2_13 
REMARK    4  A    between atoms: C13_18  and  N4_19 
REMARK    5  A    between atoms: N4_19  and  C14_20 
REMARK    6  A    between atoms: C17_23  and  O3_24 
REMARK    7  A    between atoms: O3_24  and  C18_25 
REMARK    8  A    between atoms: C18_25  and  C19_26 
ROOT
HETATM    1  C4  UNL     1      26.527   2.230  51.379  1.00  0.00     0.101 C 
HETATM    2  C5  UNL     1      25.356   2.827  51.272  1.00  0.00    -0.007 C 
HETATM    3  C6  UNL     1      24.451   3.155  50.114  1.00  0.00     0.066 C 
HETATM    4  C7  UNL     1      24.319   4.668  50.058  1.00  0.00     0.056 A 
HETATM    5  C8  UNL     1      23.897   5.086  51.458  1.00  0.00     0.007 C 
HETATM    6  C9  UNL     1      23.771   4.245  52.467  1.00  0.00     0.008 C 
HETATM    7  C10 UNL     1      24.716   3.321  52.509  1.00  0.00     0.084 C 
HETATM    8  C11 UNL     1      25.607   5.320  49.802  1.00  0.00     0.109 A 
HETATM    9  N2  UNL     1      25.939   6.212  48.917  1.00  0.00    -0.257 NA
HETATM   10  C12 UNL     1      24.864   6.625  48.047  1.00  0.00     0.228 A 
HETATM   11  N3  UNL     1      23.729   6.105  48.207  1.00  0.00    -0.256 NA
HETATM   12  C13 UNL     1      23.267   5.129  49.133  1.00  0.00     0.225 A 
ENDROOT
BRANCH  12  13
HETATM   13  N4  UNL     1      22.739   4.021  48.305  1.00  0.00    -0.366 N 
HETATM   14  H15 UNL     1      22.945   3.829  47.283  1.00  0.00     0.162 HD
BRANCH  13  15
HETATM   15  C14 UNL     1      21.845   3.071  48.887  1.00  0.00     0.029 A 
HETATM   16  C15 UNL     1      21.955   1.708  48.740  1.00  0.00     0.032 A 
HETATM   17  C16 UNL     1      21.123   0.765  49.288  1.00  0.00     0.039 A 
HETATM   18  C17 UNL     1      20.073   1.220  50.061  1.00  0.00     0.069 A 
HETATM   19  C25 UNL     1      19.876   2.590  50.271  1.00  0.00     0.039 A 
HETATM   20  C26 UNL     1      20.769   3.443  49.675  1.00  0.00     0.032 A 
BRANCH  18  21
HETATM   21  O3  UNL     1      19.156   0.353  50.673  1.00  0.00    -0.347 OA
BRANCH  21  22
HETATM   22  C18 UNL     1      18.952   0.537  52.062  1.00  0.00     0.214 C 
BRANCH  22  23
HETATM   23  C19 UNL     1      20.152   0.108  52.843  1.00  0.00    -0.034 A 
HETATM   24  C20 UNL     1      21.343   0.800  52.906  1.00  0.00     0.009 A 
HETATM   25  C21 UNL     1      22.355   0.267  53.673  1.00  0.00     0.001 A 
HETATM   26  C22 UNL     1      22.247  -0.914  54.378  1.00  0.00     0.000 A 
HETATM   27  C23 UNL     1      21.044  -1.584  54.295  1.00  0.00     0.001 A 
HETATM   28  C24 UNL     1      19.999  -1.079  53.533  1.00  0.00     0.009 A 
ENDBRANCH  22  23
ENDBRANCH  21  22
ENDBRANCH  18  21
ENDBRANCH  13  15
ENDBRANCH  12  13
BRANCH   1  29
HETATM   29  N1  UNL     1      27.409   1.904  52.444  1.00  0.00    -0.337 N 
HETATM   30  C3  UNL     1      27.414   0.560  52.885  1.00  0.00     0.221 C 
HETATM   31  O1  UNL     1      26.661  -0.301  52.346  1.00  0.00    -0.273 OA
HETATM   32  H6  UNL     1      28.033   2.604  52.893  1.00  0.00     0.168 HD
BRANCH  30  33
HETATM   33  C2  UNL     1      28.319   0.216  53.982  1.00  0.00     0.098 C 
HETATM   34  C1  UNL     1      29.477  -0.638  53.522  1.00  0.00     0.014 C 
ENDBRANCH  30  33
ENDBRANCH   1  29
BRANCH   7  35
HETATM   35  O2  UNL     1      25.039   2.872  53.790  1.00  0.00    -0.359 OA
HETATM   36  H11 UNL     1      25.879   3.243  54.238  1.00  0.00     0.217 HD
ENDBRANCH   7  35
TORSDOF 8
ENDMDL
MODEL 6
REMARK VINA RESULT:      -8.1      3.881      6.959
REMARK  8 active torsions:
REMARK  status: ('A' for Active; 'I' for Inactive)
REMARK    1  A    between atoms: C2_2  and  C3_3 
REMARK       I    between atoms: C3_3  and  N1_5 
REMARK    2  A    between atoms: N1_5  and  C4_6 
REMARK    3  A    between atoms: C10_12  and  O2_13 
REMARK    4  A    between atoms: C13_18  and  N4_19 
REMARK    5  A    between atoms: N4_19  and  C14_20 
REMARK    6  A    between atoms: C17_23  and  O3_24 
REMARK    7  A    between atoms: O3_24  and  C18_25 
REMARK    8  A    between atoms: C18_25  and  C19_26 
ROOT
HETATM    1  C4  UNL     1      33.355   7.625  44.851  1.00  0.00     0.101 C 
HETATM    2  C5  UNL     1      32.712   7.108  45.879  1.00  0.00    -0.007 C 
HETATM    3  C6  UNL     1      31.299   7.212  46.388  1.00  0.00     0.066 C 
HETATM    4  C7  UNL     1      31.362   7.832  47.775  1.00  0.00     0.056 A 
HETATM    5  C8  UNL     1      32.358   6.983  48.548  1.00  0.00     0.007 C 
HETATM    6  C9  UNL     1      33.035   5.981  48.019  1.00  0.00     0.008 C 
HETATM    7  C10 UNL     1      33.464   6.221  46.791  1.00  0.00     0.084 C 
HETATM    8  C11 UNL     1      31.915   9.190  47.741  1.00  0.00     0.109 A 
HETATM    9  N2  UNL     1      31.459  10.298  48.245  1.00  0.00    -0.257 NA
HETATM   10  C12 UNL     1      30.206  10.167  48.950  1.00  0.00     0.228 A 
HETATM   11  N3  UNL     1      29.670   9.030  49.017  1.00  0.00    -0.256 NA
HETATM   12  C13 UNL     1      30.081   7.769  48.503  1.00  0.00     0.225 A 
ENDROOT
BRANCH  12  13
HETATM   13  N4  UNL     1      28.974   7.321  47.628  1.00  0.00    -0.366 N 
HETATM   14  H15 UNL     1      28.801   7.598  46.619  1.00  0.00     0.162 HD
BRANCH  13  15
HETATM   15  C14 UNL     1      27.993   6.418  48.140  1.00  0.00     0.029 A 
HETATM   16  C15 UNL     1      28.239   5.105  48.468  1.00  0.00     0.032 A 
HETATM   17  C16 UNL     1      27.328   4.211  48.968  1.00  0.00     0.039 A 
HETATM   18  C17 UNL     1      26.038   4.664  49.162  1.00  0.00     0.069 A 
HETATM   19  C25 UNL     1      25.686   5.984  48.858  1.00  0.00     0.039 A 
HETATM   20  C26 UNL     1      26.678   6.791  48.364  1.00  0.00     0.032 A 
BRANCH  18  21
HETATM   21  O3  UNL     1      25.018   3.844  49.667  1.00  0.00    -0.347 OA
BRANCH  21  22
HETATM   22  C18 UNL     1      24.885   3.806  51.076  1.00  0.00     0.214 C 
BRANCH  22  23
HETATM   23  C19 UNL     1      25.217   2.450  51.611  1.00  0.00    -0.034 A 
HETATM   24  C20 UNL     1      26.452   1.845  51.522  1.00  0.00     0.009 A 
HETATM   25  C21 UNL     1      26.592   0.588  52.067  1.00  0.00     0.001 A 
HETATM   26  C22 UNL     1      25.572  -0.097  52.694  1.00  0.00     0.000 A 
HETATM   27  C23 UNL     1      24.348   0.533  52.768  1.00  0.00     0.001 A 
HETATM   28  C24 UNL     1      24.166   1.800  52.230  1.00  0.00     0.009 A 
ENDBRANCH  22  23
ENDBRANCH  21  22
ENDBRANCH  18  21
ENDBRANCH  13  15
ENDBRANCH  12  13
BRANCH   1  29
HETATM   29  N1  UNL     1      34.679   7.554  44.339  1.00  0.00    -0.337 N 
HETATM   30  C3  UNL     1      34.887   8.043  43.028  1.00  0.00     0.221 C 
HETATM   31  O1  UNL     1      33.929   8.519  42.355  1.00  0.00    -0.273 OA
HETATM   32  H6  UNL     1      35.474   7.165  44.885  1.00  0.00     0.168 HD
BRANCH  30  33
HETATM   33  C2  UNL     1      36.247   7.973  42.493  1.00  0.00     0.098 C 
HETATM   34  C1  UNL     1      36.688   6.551  42.232  1.00  0.00     0.014 C 
ENDBRANCH  30  33
ENDBRANCH   1  29
BRANCH   7  35
HETATM   35  O2  UNL     1      34.654   5.578  46.451  1.00  0.00    -0.359 OA
HETATM   36  H11 UNL     1      34.633   4.568  46.296  1.00  0.00     0.217 HD
ENDBRANCH   7  35
TORSDOF 8
ENDMDL
MODEL 7
REMARK VINA RESULT:      -8.1      1.685      2.789
REMARK  8 active torsions:
REMARK  status: ('A' for Active; 'I' for Inactive)
REMARK    1  A    between atoms: C2_2  and  C3_3 
REMARK       I    between atoms: C3_3  and  N1_5 
REMARK    2  A    between atoms: N1_5  and  C4_6 
REMARK    3  A    between atoms: C10_12  and  O2_13 
REMARK    4  A    between atoms: C13_18  and  N4_19 
REMARK    5  A    between atoms: N4_19  and  C14_20 
REMARK    6  A    between atoms: C17_23  and  O3_24 
REMARK    7  A    between atoms: O3_24  and  C18_25 
REMARK    8  A    between atoms: C18_25  and  C19_26 
ROOT
HETATM    1  C4  UNL     1      28.253   8.696  47.826  1.00  0.00     0.101 C 
HETATM    2  C5  UNL     1      27.455   8.110  48.696  1.00  0.00    -0.007 C 
HETATM    3  C6  UNL     1      26.751   6.779  48.739  1.00  0.00     0.066 C 
HETATM    4  C7  UNL     1      25.257   7.058  48.779  1.00  0.00     0.056 A 
HETATM    5  C8  UNL     1      25.062   8.027  49.935  1.00  0.00     0.007 C 
HETATM    6  C9  UNL     1      26.054   8.525  50.650  1.00  0.00     0.008 C 
HETATM    7  C10 UNL     1      27.116   8.847  49.931  1.00  0.00     0.084 C 
HETATM    8  C11 UNL     1      24.799   7.756  47.574  1.00  0.00     0.109 A 
HETATM    9  N2  UNL     1      23.818   7.485  46.765  1.00  0.00    -0.257 NA
HETATM   10  C12 UNL     1      23.061   6.306  47.112  1.00  0.00     0.228 A 
HETATM   11  N3  UNL     1      23.399   5.655  48.135  1.00  0.00    -0.256 NA
HETATM   12  C13 UNL     1      24.447   5.862  49.075  1.00  0.00     0.225 A 
ENDROOT
BRANCH  12  13
HETATM   13  N4  UNL     1      25.259   4.626  49.038  1.00  0.00    -0.366 N 
HETATM   14  H15 UNL     1      25.821   4.251  48.220  1.00  0.00     0.162 HD
BRANCH  13  15
HETATM   15  C14 UNL     1      25.335   3.797  50.199  1.00  0.00     0.029 A 
HETATM   16  C15 UNL     1      26.329   2.878  50.435  1.00  0.00     0.032 A 
HETATM   17  C16 UNL     1      26.441   2.071  51.538  1.00  0.00     0.039 A 
HETATM   18  C17 UNL     1      25.464   2.187  52.508  1.00  0.00     0.069 A 
HETATM   19  C25 UNL     1      24.409   3.095  52.361  1.00  0.00     0.039 A 
HETATM   20  C26 UNL     1      24.398   3.851  51.217  1.00  0.00     0.032 A 
BRANCH  18  21
HETATM   21  O3  UNL     1      25.469   1.416  53.680  1.00  0.00    -0.347 OA
BRANCH  21  22
HETATM   22  C18 UNL     1      25.329   0.017  53.510  1.00  0.00     0.214 C 
BRANCH  22  23
HETATM   23  C19 UNL     1      23.917  -0.413  53.742  1.00  0.00    -0.034 A 
HETATM   24  C20 UNL     1      22.870  -0.193  52.872  1.00  0.00     0.009 A 
HETATM   25  C21 UNL     1      21.625  -0.655  53.237  1.00  0.00     0.001 A 
HETATM   26  C22 UNL     1      21.366  -1.321  54.416  1.00  0.00     0.000 A 
HETATM   27  C23 UNL     1      22.432  -1.526  55.266  1.00  0.00     0.001 A 
HETATM   28  C24 UNL     1      23.703  -1.076  54.935  1.00  0.00     0.009 A 
ENDBRANCH  22  23
ENDBRANCH  21  22
ENDBRANCH  18  21
ENDBRANCH  13  15
ENDBRANCH  12  13
BRANCH   1  29
HETATM   29  N1  UNL     1      28.933   9.941  47.747  1.00  0.00    -0.337 N 
HETATM   30  C3  UNL     1      30.179  10.036  48.410  1.00  0.00     0.221 C 
HETATM   31  O1  UNL     1      30.654   9.047  49.040  1.00  0.00    -0.273 OA
HETATM   32  H6  UNL     1      28.552  10.760  47.231  1.00  0.00     0.168 HD
BRANCH  30  33
HETATM   33  C2  UNL     1      30.885  11.315  48.335  1.00  0.00     0.098 C 
HETATM   34  C1  UNL     1      31.514  11.543  46.980  1.00  0.00     0.014 C 
ENDBRANCH  30  33
ENDBRANCH   1  29
BRANCH   7  35
HETATM   35  O2  UNL     1      27.862   9.914  50.434  1.00  0.00    -0.359 OA
HETATM   36  H11 UNL     1      28.330  10.535  49.771  1.00  0.00     0.217 HD
ENDBRANCH   7  35
TORSDOF 8
ENDMDL
MODEL 8
REMARK VINA RESULT:      -8.0      4.437      7.979
REMARK  8 active torsions:
REMARK  status: ('A' for Active; 'I' for Inactive)
REMARK    1  A    between atoms: C2_2  and  C3_3 
REMARK       I    between atoms: C3_3  and  N1_5 
REMARK    2  A    between atoms: N1_5  and  C4_6 
REMARK    3  A    between atoms: C10_12  and  O2_13 
REMARK    4  A    between atoms: C13_18  and  N4_19 
REMARK    5  A    between atoms: N4_19  and  C14_20 
REMARK    6  A    between atoms: C17_23  and  O3_24 
REMARK    7  A    between atoms: O3_24  and  C18_25 
REMARK    8  A    between atoms: C18_25  and  C19_26 
ROOT
HETATM    1  C4  UNL     1      17.762   2.898  51.385  1.00  0.00     0.101 C 
HETATM    2  C5  UNL     1      18.968   2.380  51.257  1.00  0.00    -0.007 C 
HETATM    3  C6  UNL     1      20.323   2.953  50.936  1.00  0.00     0.066 C 
HETATM    4  C7  UNL     1      20.791   2.307  49.642  1.00  0.00     0.056 A 
HETATM    5  C8  UNL     1      20.665   0.810  49.873  1.00  0.00     0.007 C 
HETATM    6  C9  UNL     1      20.170   0.276  50.973  1.00  0.00     0.008 C 
HETATM    7  C10 UNL     1      19.120   0.923  51.450  1.00  0.00     0.084 C 
HETATM    8  C11 UNL     1      19.905   2.628  48.519  1.00  0.00     0.109 A 
HETATM    9  N2  UNL     1      20.177   3.095  47.337  1.00  0.00    -0.257 NA
HETATM   10  C12 UNL     1      21.580   3.335  47.094  1.00  0.00     0.228 A 
HETATM   11  N3  UNL     1      22.400   3.084  48.015  1.00  0.00    -0.256 NA
HETATM   12  C13 UNL     1      22.207   2.580  49.331  1.00  0.00     0.225 A 
ENDROOT
BRANCH  12  13
HETATM   13  N4  UNL     1      22.779   3.605  50.233  1.00  0.00    -0.366 N 
HETATM   14  H15 UNL     1      22.565   4.644  50.242  1.00  0.00     0.162 HD
BRANCH  13  15
HETATM   15  C14 UNL     1      23.735   3.219  51.221  1.00  0.00     0.029 A 
HETATM   16  C15 UNL     1      23.644   3.535  52.557  1.00  0.00     0.032 A 
HETATM   17  C16 UNL     1      24.535   3.178  53.535  1.00  0.00     0.039 A 
HETATM   18  C17 UNL     1      25.631   2.430  53.151  1.00  0.00     0.069 A 
HETATM   19  C25 UNL     1      25.814   2.057  51.815  1.00  0.00     0.039 A 
HETATM   20  C26 UNL     1      24.860   2.469  50.920  1.00  0.00     0.032 A 
BRANCH  18  21
HETATM   21  O3  UNL     1      26.611   2.005  54.060  1.00  0.00    -0.347 OA
BRANCH  21  22
HETATM   22  C18 UNL     1      26.412   0.730  54.645  1.00  0.00     0.214 C 
BRANCH  22  23
HETATM   23  C19 UNL     1      27.326  -0.286  54.039  1.00  0.00    -0.034 A 
HETATM   24  C20 UNL     1      26.929  -1.311  53.205  1.00  0.00     0.009 A 
HETATM   25  C21 UNL     1      27.899  -2.165  52.731  1.00  0.00     0.001 A 
HETATM   26  C22 UNL     1      29.239  -2.055  53.039  1.00  0.00     0.000 A 
HETATM   27  C23 UNL     1      29.606  -1.021  53.874  1.00  0.00     0.001 A 
HETATM   28  C24 UNL     1      28.658  -0.138  54.374  1.00  0.00     0.009 A 
ENDBRANCH  22  23
ENDBRANCH  21  22
ENDBRANCH  18  21
ENDBRANCH  13  15
ENDBRANCH  12  13
BRANCH   1  29
HETATM   29  N1  UNL     1      16.467   2.397  51.685  1.00  0.00    -0.337 N 
HETATM   30  C3  UNL     1      15.593   3.257  52.390  1.00  0.00     0.221 C 
HETATM   31  O1  UNL     1      15.963   4.417  52.732  1.00  0.00    -0.273 OA
HETATM   32  H6  UNL     1      16.153   1.445  51.407  1.00  0.00     0.168 HD
BRANCH  30  33
HETATM   33  C2  UNL     1      14.257   2.748  52.703  1.00  0.00     0.098 C 
HETATM   34  C1  UNL     1      13.455   3.720  53.536  1.00  0.00     0.014 C 
ENDBRANCH  30  33
ENDBRANCH   1  29
BRANCH   7  35
HETATM   35  O2  UNL     1      18.200   0.124  52.130  1.00  0.00    -0.359 OA
HETATM   36  H11 UNL     1      18.535  -0.450  52.907  1.00  0.00     0.217 HD
ENDBRANCH   7  35
TORSDOF 8
ENDMDL
MODEL 9
REMARK VINA RESULT:      -7.9      2.914      7.779
REMARK  8 active torsions:
REMARK  status: ('A' for Active; 'I' for Inactive)
REMARK    1  A    between atoms: C2_2  and  C3_3 
REMARK       I    between atoms: C3_3  and  N1_5 
REMARK    2  A    between atoms: N1_5  and  C4_6 
REMARK    3  A    between atoms: C10_12  and  O2_13 
REMARK    4  A    between atoms: C13_18  and  N4_19 
REMARK    5  A    between atoms: N4_19  and  C14_20 
REMARK    6  A    between atoms: C17_23  and  O3_24 
REMARK    7  A    between atoms: O3_24  and  C18_25 
REMARK    8  A    between atoms: C18_25  and  C19_26 
ROOT
HETATM    1  C4  UNL     1      25.588   1.951  53.930  1.00  0.00     0.101 C 
HETATM    2  C5  UNL     1      25.089   2.566  52.876  1.00  0.00    -0.007 C 
HETATM    3  C6  UNL     1      24.064   3.653  52.688  1.00  0.00     0.066 C 
HETATM    4  C7  UNL     1      22.923   3.063  51.874  1.00  0.00     0.056 A 
HETATM    5  C8  UNL     1      23.581   2.456  50.645  1.00  0.00     0.007 C 
HETATM    6  C9  UNL     1      24.885   2.429  50.449  1.00  0.00     0.008 C 
HETATM    7  C10 UNL     1      25.581   2.164  51.542  1.00  0.00     0.084 C 
HETATM    8  C11 UNL     1      22.264   1.958  52.578  1.00  0.00     0.109 A 
HETATM    9  N2  UNL     1      21.006   1.749  52.827  1.00  0.00    -0.257 NA
HETATM   10  C12 UNL     1      20.116   2.771  52.329  1.00  0.00     0.228 A 
HETATM   11  N3  UNL     1      20.613   3.752  51.716  1.00  0.00    -0.256 NA
HETATM   12  C13 UNL     1      21.962   4.074  51.397  1.00  0.00     0.225 A 
ENDROOT
BRANCH  12  13
HETATM   13  N4  UNL     1      22.206   5.397  52.012  1.00  0.00    -0.366 N 
HETATM   14  H15 UNL     1      21.927   5.715  52.984  1.00  0.00     0.162 HD
BRANCH  13  15
HETATM   15  C14 UNL     1      22.886   6.407  51.264  1.00  0.00     0.029 A 
HETATM   16  C15 UNL     1      24.245   6.614  51.293  1.00  0.00     0.032 A 
HETATM   17  C16 UNL     1      24.934   7.565  50.586  1.00  0.00     0.039 A 
HETATM   18  C17 UNL     1      24.200   8.399  49.765  1.00  0.00     0.069 A 
HETATM   19  C25 UNL     1      22.810   8.269  49.666  1.00  0.00     0.039 A 
HETATM   20  C26 UNL     1      22.225   7.283  50.419  1.00  0.00     0.032 A 
BRANCH  18  21
HETATM   21  O3  UNL     1      24.791   9.410  48.993  1.00  0.00    -0.347 OA
BRANCH  21  22
HETATM   22  C18 UNL     1      25.428   8.994  47.798  1.00  0.00     0.214 C 
BRANCH  22  23
HETATM   23  C19 UNL     1      26.835   8.563  48.061  1.00  0.00    -0.034 A 
HETATM   24  C20 UNL     1      27.802   9.342  48.659  1.00  0.00     0.009 A 
HETATM   25  C21 UNL     1      29.054   8.793  48.829  1.00  0.00     0.001 A 
HETATM   26  C22 UNL     1      29.394   7.515  48.437  1.00  0.00     0.000 A 
HETATM   27  C23 UNL     1      28.405   6.759  47.842  1.00  0.00     0.001 A 
HETATM   28  C24 UNL     1      27.131   7.276  47.653  1.00  0.00     0.009 A 
ENDBRANCH  22  23
ENDBRANCH  21  22
ENDBRANCH  18  21
ENDBRANCH  13  15
ENDBRANCH  12  13
BRANCH   1  29
HETATM   29  N1  UNL     1      26.549   0.927  54.149  1.00  0.00    -0.337 N 
HETATM   30  C3  UNL     1      27.903   1.327  54.246  1.00  0.00     0.221 C 
HETATM   31  O1  UNL     1      28.227   2.545  54.141  1.00  0.00    -0.273 OA
HETATM   32  H6  UNL     1      26.293  -0.076  54.239  1.00  0.00     0.168 HD
BRANCH  30  33
HETATM   33  C2  UNL     1      28.899   0.280  54.472  1.00  0.00     0.098 C 
HETATM   34  C1  UNL     1      28.865  -0.784  53.400  1.00  0.00     0.014 C 
ENDBRANCH  30  33
ENDBRANCH   1  29
BRANCH   7  35
HETATM   35  O2  UNL     1      26.783   1.491  51.322  1.00  0.00    -0.359 OA
HETATM   36  H11 UNL     1      27.653   2.026  51.361  1.00  0.00     0.217 HD
ENDBRANCH   7  35
TORSDOF 8
ENDMDL
