MODEL 1
REMARK VINA RESULT:      -7.0      0.000      0.000
REMARK  7 active torsions:
REMARK  status: ('A' for Active; 'I' for Inactive)
REMARK    1  A    between atoms: N1_1  and  C1_2 
REMARK    2  A    between atoms: C2_3  and  C3_5 
REMARK    3  A    between atoms: C4_6  and  C5_7 
REMARK    4  A    between atoms: C5_7  and  C6_8 
REMARK    5  A    between atoms: C6_8  and  N2_9 
REMARK    6  A    between atoms: N2_9  and  C7_10 
REMARK    7  A    between atoms: C7_10  and  S1_11 
ROOT
HETATM    1  N2  UNL     1      24.221  -0.281  53.132  1.00  0.00    -0.360 N 
HETATM    2  H8  UNL     1      23.950  -0.445  52.136  1.00  0.00     0.166 HD
ENDROOT
BRANCH   1   3
HETATM    3  C6  UNL     1      23.603  -0.844  54.279  1.00  0.00     0.089 C 
BRANCH   3   4
HETATM    4  C5  UNL     1      22.411  -0.651  54.813  1.00  0.00     0.017 C 
BRANCH   4   5
HETATM    5  C4  UNL     1      21.129  -0.820  54.139  1.00  0.00     0.003 C 
HETATM    6  C3  UNL     1      20.758   0.091  53.266  1.00  0.00     0.025 C 
BRANCH   6   7
HETATM    7  C2  UNL     1      19.466  -0.179  52.656  1.00  0.00     0.044 C 
HETATM    8  C1  UNL     1      18.621  -0.829  53.427  1.00  0.00     0.078 C 
HETATM    9 CL1  UNL     1      18.979   0.292  51.048  1.00  0.00    -0.083 Cl
BRANCH   8  10
HETATM   10  N1  UNL     1      17.413  -1.462  53.812  1.00  0.00    -0.311 NA
HETATM   11  H1  UNL     1      17.111  -2.389  53.451  1.00  0.00     0.123 HD
HETATM   12  H2  UNL     1      17.089  -2.406  53.455  1.00  0.00     0.123 HD
ENDBRANCH   8  10
ENDBRANCH   6   7
ENDBRANCH   4   5
ENDBRANCH   3   4
ENDBRANCH   1   3
BRANCH   1  13
HETATM   13  C7  UNL     1      25.276   0.563  53.297  1.00  0.00     0.077 C 
HETATM   14  C8  UNL     1      26.422   1.127  53.515  1.00  0.00     0.029 C 
HETATM   15  C9  UNL     1      27.371   2.340  53.614  1.00  0.00     0.214 C 
HETATM   16  C13 UNL     1      27.371   0.005  53.828  1.00  0.00     0.082 C 
HETATM   17  O1  UNL     1      28.588   1.832  53.019  1.00  0.00    -0.359 OA
HETATM   18  C10 UNL     1      29.261   1.046  53.955  1.00  0.00     0.264 C 
HETATM   19  C11 UNL     1      29.796  -0.283  53.497  1.00  0.00     0.204 C 
HETATM   20  N4  UNL     1      28.127   0.536  54.852  1.00  0.00    -0.254 NA
HETATM   21  N3  UNL     1      28.768  -1.367  53.848  1.00  0.00    -0.295 NA
HETATM   22  C12 UNL     1      27.656  -1.263  53.079  1.00  0.00     0.142 C 
BRANCH  13  23
HETATM   23  S1  UNL     1      24.402   2.116  52.917  1.00  0.00    -0.125 SA
HETATM   24  H9  UNL     1      24.576   2.944  54.045  1.00  0.00     0.108 HD
ENDBRANCH  13  23
ENDBRANCH   1  13
TORSDOF 7
ENDMDL
MODEL 2
REMARK VINA RESULT:      -6.9      5.123      7.461
REMARK  7 active torsions:
REMARK  status: ('A' for Active; 'I' for Inactive)
REMARK    1  A    between atoms: N1_1  and  C1_2 
REMARK    2  A    between atoms: C2_3  and  C3_5 
REMARK    3  A    between atoms: C4_6  and  C5_7 
REMARK    4  A    between atoms: C5_7  and  C6_8 
REMARK    5  A    between atoms: C6_8  and  N2_9 
REMARK    6  A    between atoms: N2_9  and  C7_10 
REMARK    7  A    between atoms: C7_10  and  S1_11 
ROOT
HETATM    1  N2  UNL     1      25.916   3.532  51.067  1.00  0.00    -0.360 N 
HETATM    2  H8  UNL     1      25.545   4.378  51.554  1.00  0.00     0.166 HD
ENDROOT
BRANCH   1   3
HETATM    3  C6  UNL     1      26.519   3.493  49.784  1.00  0.00     0.089 C 
BRANCH   3   4
HETATM    4  C5  UNL     1      26.938   4.458  48.986  1.00  0.00     0.017 C 
BRANCH   4   5
HETATM    5  C4  UNL     1      26.561   5.865  49.066  1.00  0.00     0.003 C 
HETATM    6  C3  UNL     1      27.415   6.765  48.629  1.00  0.00     0.025 C 
BRANCH   6   7
HETATM    7  C2  UNL     1      26.935   8.132  48.756  1.00  0.00     0.044 C 
HETATM    8  C1  UNL     1      27.212   8.706  49.906  1.00  0.00     0.078 C 
HETATM    9 CL1  UNL     1      26.067   9.025  47.533  1.00  0.00    -0.083 Cl
BRANCH   8  10
HETATM   10  N1  UNL     1      27.249   9.723  50.891  1.00  0.00    -0.311 NA
HETATM   11  H1  UNL     1      27.985   9.787  51.624  1.00  0.00     0.123 HD
HETATM   12  H2  UNL     1      27.992   9.804  51.645  1.00  0.00     0.123 HD
ENDBRANCH   8  10
ENDBRANCH   6   7
ENDBRANCH   4   5
ENDBRANCH   3   4
ENDBRANCH   1   3
BRANCH   1  13
HETATM   13  C7  UNL     1      25.786   2.374  51.772  1.00  0.00     0.077 C 
HETATM   14  C8  UNL     1      25.943   1.303  52.482  1.00  0.00     0.029 C 
HETATM   15  C9  UNL     1      25.444   0.024  53.187  1.00  0.00     0.214 C 
HETATM   16  C13 UNL     1      27.400   1.274  52.853  1.00  0.00     0.082 C 
HETATM   17  O1  UNL     1      26.185   0.043  54.429  1.00  0.00    -0.359 OA
HETATM   18  C10 UNL     1      27.481  -0.418  54.196  1.00  0.00     0.264 C 
HETATM   19  C11 UNL     1      28.619   0.364  54.792  1.00  0.00     0.204 C 
HETATM   20  N4  UNL     1      27.710  -0.064  52.722  1.00  0.00    -0.254 NA
HETATM   21  N3  UNL     1      29.150   1.334  53.728  1.00  0.00    -0.295 NA
HETATM   22  C12 UNL     1      28.263   2.329  53.479  1.00  0.00     0.142 C 
BRANCH  13  23
HETATM   23  S1  UNL     1      23.994   2.150  51.535  1.00  0.00    -0.125 SA
HETATM   24  H9  UNL     1      23.617   1.103  52.402  1.00  0.00     0.108 HD
ENDBRANCH  13  23
ENDBRANCH   1  13
TORSDOF 7
ENDMDL
MODEL 3
REMARK VINA RESULT:      -6.8      4.534      6.997
REMARK  7 active torsions:
REMARK  status: ('A' for Active; 'I' for Inactive)
REMARK    1  A    between atoms: N1_1  and  C1_2 
REMARK    2  A    between atoms: C2_3  and  C3_5 
REMARK    3  A    between atoms: C4_6  and  C5_7 
REMARK    4  A    between atoms: C5_7  and  C6_8 
REMARK    5  A    between atoms: C6_8  and  N2_9 
REMARK    6  A    between atoms: N2_9  and  C7_10 
REMARK    7  A    between atoms: C7_10  and  S1_11 
ROOT
HETATM    1  N2  UNL     1      24.617   3.267  52.264  1.00  0.00    -0.360 N 
HETATM    2  H8  UNL     1      24.129   3.830  52.996  1.00  0.00     0.166 HD
ENDROOT
BRANCH   1   3
HETATM    3  C6  UNL     1      24.946   3.694  50.951  1.00  0.00     0.089 C 
BRANCH   3   4
HETATM    4  C5  UNL     1      25.818   3.230  50.075  1.00  0.00     0.017 C 
BRANCH   4   5
HETATM    5  C4  UNL     1      26.791   4.019  49.329  1.00  0.00     0.003 C 
HETATM    6  C3  UNL     1      26.521   5.286  49.098  1.00  0.00     0.025 C 
BRANCH   6   7
HETATM    7  C2  UNL     1      27.560   5.974  48.348  1.00  0.00     0.044 C 
HETATM    8  C1  UNL     1      28.730   5.374  48.354  1.00  0.00     0.078 C 
HETATM    9 CL1  UNL     1      27.362   7.469  47.469  1.00  0.00    -0.083 Cl
BRANCH   8  10
HETATM   10  N1  UNL     1      30.098   5.160  48.054  1.00  0.00    -0.311 NA
HETATM   11  H1  UNL     1      30.866   5.764  48.410  1.00  0.00     0.123 HD
HETATM   12  H2  UNL     1      30.893   5.765  48.408  1.00  0.00     0.123 HD
ENDBRANCH   8  10
ENDBRANCH   6   7
ENDBRANCH   4   5
ENDBRANCH   3   4
ENDBRANCH   1   3
BRANCH   1  13
HETATM   13  C7  UNL     1      24.952   2.006  52.652  1.00  0.00     0.077 C 
HETATM   14  C8  UNL     1      25.537   0.900  52.985  1.00  0.00     0.029 C 
HETATM   15  C9  UNL     1      25.553  -0.572  53.450  1.00  0.00     0.214 C 
HETATM   16  C13 UNL     1      27.011   1.179  52.895  1.00  0.00     0.082 C 
HETATM   17  O1  UNL     1      26.658  -0.591  54.383  1.00  0.00    -0.359 OA
HETATM   18  C10 UNL     1      27.857  -0.651  53.672  1.00  0.00     0.264 C 
HETATM   19  C11 UNL     1      28.966   0.274  54.090  1.00  0.00     0.204 C 
HETATM   20  N4  UNL     1      27.498   0.014  52.339  1.00  0.00    -0.254 NA
HETATM   21  N3  UNL     1      28.913   1.527  53.206  1.00  0.00    -0.295 NA
HETATM   22  C12 UNL     1      27.827   2.288  53.491  1.00  0.00     0.142 C 
BRANCH  13  23
HETATM   23  S1  UNL     1      23.261   1.375  52.899  1.00  0.00    -0.125 SA
HETATM   24  H9  UNL     1      22.469   2.500  53.211  1.00  0.00     0.108 HD
ENDBRANCH  13  23
ENDBRANCH   1  13
TORSDOF 7
ENDMDL
MODEL 4
REMARK VINA RESULT:      -6.8      3.563      6.897
REMARK  7 active torsions:
REMARK  status: ('A' for Active; 'I' for Inactive)
REMARK    1  A    between atoms: N1_1  and  C1_2 
REMARK    2  A    between atoms: C2_3  and  C3_5 
REMARK    3  A    between atoms: C4_6  and  C5_7 
REMARK    4  A    between atoms: C5_7  and  C6_8 
REMARK    5  A    between atoms: C6_8  and  N2_9 
REMARK    6  A    between atoms: N2_9  and  C7_10 
REMARK    7  A    between atoms: C7_10  and  S1_11 
ROOT
HETATM    1  N2  UNL     1      24.623   3.452  52.332  1.00  0.00    -0.360 N 
HETATM    2  H8  UNL     1      24.911   4.034  53.150  1.00  0.00     0.166 HD
ENDROOT
BRANCH   1   3
HETATM    3  C6  UNL     1      25.436   3.092  51.226  1.00  0.00     0.089 C 
BRANCH   3   4
HETATM    4  C5  UNL     1      26.223   2.052  51.022  1.00  0.00     0.017 C 
BRANCH   4   5
HETATM    5  C4  UNL     1      26.885   1.259  52.052  1.00  0.00     0.003 C 
HETATM    6  C3  UNL     1      26.777  -0.051  51.996  1.00  0.00     0.025 C 
BRANCH   6   7
HETATM    7  C2  UNL     1      27.476  -0.738  53.070  1.00  0.00     0.044 C 
HETATM    8  C1  UNL     1      27.819  -1.978  52.796  1.00  0.00     0.078 C 
HETATM    9 CL1  UNL     1      27.883  -0.054  54.623  1.00  0.00    -0.083 Cl
BRANCH   8  10
HETATM   10  N1  UNL     1      28.384  -3.261  53.003  1.00  0.00    -0.311 NA
HETATM   11  H1  UNL     1      27.964  -3.980  53.627  1.00  0.00     0.123 HD
HETATM   12  H2  UNL     1      27.970  -4.005  53.634  1.00  0.00     0.123 HD
ENDBRANCH   8  10
ENDBRANCH   6   7
ENDBRANCH   4   5
ENDBRANCH   3   4
ENDBRANCH   1   3
BRANCH   1  13
HETATM   13  C7  UNL     1      23.334   3.019  52.375  1.00  0.00     0.077 C 
HETATM   14  C8  UNL     1      22.227   2.349  52.436  1.00  0.00     0.029 C 
HETATM   15  C9  UNL     1      20.690   2.214  52.456  1.00  0.00     0.214 C 
HETATM   16  C13 UNL     1      22.634   0.910  52.593  1.00  0.00     0.082 C 
HETATM   17  O1  UNL     1      20.479   1.194  53.459  1.00  0.00    -0.359 OA
HETATM   18  C10 UNL     1      20.726  -0.059  52.896  1.00  0.00     0.264 C 
HETATM   19  C11 UNL     1      21.568  -1.025  53.683  1.00  0.00     0.204 C 
HETATM   20  N4  UNL     1      21.728   0.258  51.781  1.00  0.00    -0.254 NA
HETATM   21  N3  UNL     1      23.019  -0.912  53.198  1.00  0.00    -0.295 NA
HETATM   22  C12 UNL     1      23.574   0.268  53.569  1.00  0.00     0.142 C 
BRANCH  13  23
HETATM   23  S1  UNL     1      22.529   4.648  52.242  1.00  0.00    -0.125 SA
HETATM   24  H9  UNL     1      22.830   5.327  53.441  1.00  0.00     0.108 HD
ENDBRANCH  13  23
ENDBRANCH   1  13
TORSDOF 7
ENDMDL
MODEL 5
REMARK VINA RESULT:      -6.8      1.408      1.503
REMARK  7 active torsions:
REMARK  status: ('A' for Active; 'I' for Inactive)
REMARK    1  A    between atoms: N1_1  and  C1_2 
REMARK    2  A    between atoms: C2_3  and  C3_5 
REMARK    3  A    between atoms: C4_6  and  C5_7 
REMARK    4  A    between atoms: C5_7  and  C6_8 
REMARK    5  A    between atoms: C6_8  and  N2_9 
REMARK    6  A    between atoms: N2_9  and  C7_10 
REMARK    7  A    between atoms: C7_10  and  S1_11 
ROOT
HETATM    1  N2  UNL     1      24.336  -0.463  53.207  1.00  0.00    -0.360 N 
HETATM    2  H8  UNL     1      24.278  -0.917  52.268  1.00  0.00     0.166 HD
ENDROOT
BRANCH   1   3
HETATM    3  C6  UNL     1      23.480  -0.699  54.314  1.00  0.00     0.089 C 
BRANCH   3   4
HETATM    4  C5  UNL     1      22.174  -0.878  54.385  1.00  0.00     0.017 C 
BRANCH   4   5
HETATM    5  C4  UNL     1      21.153  -0.007  53.814  1.00  0.00     0.003 C 
HETATM    6  C3  UNL     1      20.756  -0.237  52.581  1.00  0.00     0.025 C 
BRANCH   6   7
HETATM    7  C2  UNL     1      19.737   0.690  52.116  1.00  0.00     0.044 C 
HETATM    8  C1  UNL     1      19.988   1.956  52.372  1.00  0.00     0.078 C 
HETATM    9 CL1  UNL     1      18.275   0.257  51.267  1.00  0.00    -0.083 Cl
BRANCH   8  10
HETATM   10  N1  UNL     1      19.787   3.358  52.390  1.00  0.00    -0.311 NA
HETATM   11  H1  UNL     1      20.331   4.009  52.992  1.00  0.00     0.123 HD
HETATM   12  H2  UNL     1      20.332   4.036  52.997  1.00  0.00     0.123 HD
ENDBRANCH   8  10
ENDBRANCH   6   7
ENDBRANCH   4   5
ENDBRANCH   3   4
ENDBRANCH   1   3
BRANCH   1  13
HETATM   13  C7  UNL     1      25.349   0.437  53.335  1.00  0.00     0.077 C 
HETATM   14  C8  UNL     1      26.468   1.063  53.523  1.00  0.00     0.029 C 
HETATM   15  C9  UNL     1      27.357   2.324  53.576  1.00  0.00     0.214 C 
HETATM   16  C13 UNL     1      27.476  -0.002  53.853  1.00  0.00     0.082 C 
HETATM   17  O1  UNL     1      28.590   1.860  52.979  1.00  0.00    -0.359 OA
HETATM   18  C10 UNL     1      29.313   1.135  53.927  1.00  0.00     0.264 C 
HETATM   19  C11 UNL     1      29.908  -0.178  53.497  1.00  0.00     0.204 C 
HETATM   20  N4  UNL     1      28.217   0.594  54.852  1.00  0.00    -0.254 NA
HETATM   21  N3  UNL     1      28.941  -1.302  53.891  1.00  0.00    -0.295 NA
HETATM   22  C12 UNL     1      27.815  -1.274  53.134  1.00  0.00     0.142 C 
BRANCH  13  23
HETATM   23  S1  UNL     1      24.394   1.933  52.925  1.00  0.00    -0.125 SA
HETATM   24  H9  UNL     1      24.409   2.028  51.518  1.00  0.00     0.108 HD
ENDBRANCH  13  23
ENDBRANCH   1  13
TORSDOF 7
ENDMDL
MODEL 6
REMARK VINA RESULT:      -6.6      4.105      5.672
REMARK  7 active torsions:
REMARK  status: ('A' for Active; 'I' for Inactive)
REMARK    1  A    between atoms: N1_1  and  C1_2 
REMARK    2  A    between atoms: C2_3  and  C3_5 
REMARK    3  A    between atoms: C4_6  and  C5_7 
REMARK    4  A    between atoms: C5_7  and  C6_8 
REMARK    5  A    between atoms: C6_8  and  N2_9 
REMARK    6  A    between atoms: N2_9  and  C7_10 
REMARK    7  A    between atoms: C7_10  and  S1_11 
ROOT
HETATM    1  N2  UNL     1      22.866   1.493  52.184  1.00  0.00    -0.360 N 
HETATM    2  H8  UNL     1      22.345   2.042  52.904  1.00  0.00     0.166 HD
ENDROOT
BRANCH   1   3
HETATM    3  C6  UNL     1      22.662   1.535  50.780  1.00  0.00     0.089 C 
BRANCH   3   4
HETATM    4  C5  UNL     1      22.778   2.522  49.910  1.00  0.00     0.017 C 
BRANCH   4   5
HETATM    5  C4  UNL     1      23.737   3.618  49.974  1.00  0.00     0.003 C 
HETATM    6  C3  UNL     1      24.909   3.455  49.397  1.00  0.00     0.025 C 
BRANCH   6   7
HETATM    7  C2  UNL     1      25.784   4.609  49.522  1.00  0.00     0.044 C 
HETATM    8  C1  UNL     1      25.299   5.589  50.254  1.00  0.00     0.078 C 
HETATM    9 CL1  UNL     1      27.369   4.769  48.809  1.00  0.00    -0.083 Cl
BRANCH   8  10
HETATM   10  N1  UNL     1      25.257   6.847  50.904  1.00  0.00    -0.311 NA
HETATM   11  H1  UNL     1      24.962   7.727  50.434  1.00  0.00     0.123 HD
HETATM   12  H2  UNL     1      24.959   7.753  50.441  1.00  0.00     0.123 HD
ENDBRANCH   8  10
ENDBRANCH   6   7
ENDBRANCH   4   5
ENDBRANCH   3   4
ENDBRANCH   1   3
BRANCH   1  13
HETATM   13  C7  UNL     1      23.826   0.671  52.688  1.00  0.00     0.077 C 
HETATM   14  C8  UNL     1      24.919   0.072  53.044  1.00  0.00     0.029 C 
HETATM   15  C9  UNL     1      25.719  -1.045  53.745  1.00  0.00     0.214 C 
HETATM   16  C13 UNL     1      26.037   0.921  52.507  1.00  0.00     0.082 C 
HETATM   17  O1  UNL     1      26.824  -0.317  54.330  1.00  0.00    -0.359 OA
HETATM   18  C10 UNL     1      27.774  -0.057  53.342  1.00  0.00     0.264 C 
HETATM   19  C11 UNL     1      28.344   1.333  53.269  1.00  0.00     0.204 C 
HETATM   20  N4  UNL     1      26.936  -0.026  52.060  1.00  0.00    -0.254 NA
HETATM   21  N3  UNL     1      27.553   2.127  52.221  1.00  0.00    -0.295 NA
HETATM   22  C12 UNL     1      26.293   2.392  52.648  1.00  0.00     0.142 C 
BRANCH  13  23
HETATM   23  S1  UNL     1      22.716  -0.527  53.496  1.00  0.00    -0.125 SA
HETATM   24  H9  UNL     1      21.692  -0.794  52.564  1.00  0.00     0.108 HD
ENDBRANCH  13  23
ENDBRANCH   1  13
TORSDOF 7
ENDMDL
MODEL 7
REMARK VINA RESULT:      -6.1      4.894      8.170
REMARK  7 active torsions:
REMARK  status: ('A' for Active; 'I' for Inactive)
REMARK    1  A    between atoms: N1_1  and  C1_2 
REMARK    2  A    between atoms: C2_3  and  C3_5 
REMARK    3  A    between atoms: C4_6  and  C5_7 
REMARK    4  A    between atoms: C5_7  and  C6_8 
REMARK    5  A    between atoms: C6_8  and  N2_9 
REMARK    6  A    between atoms: N2_9  and  C7_10 
REMARK    7  A    between atoms: C7_10  and  S1_11 
ROOT
HETATM    1  N2  UNL     1      25.858   2.540  52.458  1.00  0.00    -0.360 N 
HETATM    2  H8  UNL     1      26.078   3.283  53.159  1.00  0.00     0.166 HD
ENDROOT
BRANCH   1   3
HETATM    3  C6  UNL     1      26.357   2.458  51.131  1.00  0.00     0.089 C 
BRANCH   3   4
HETATM    4  C5  UNL     1      26.096   3.175  50.054  1.00  0.00     0.017 C 
BRANCH   4   5
HETATM    5  C4  UNL     1      27.041   4.016  49.330  1.00  0.00     0.003 C 
HETATM    6  C3  UNL     1      26.668   5.236  49.007  1.00  0.00     0.025 C 
BRANCH   6   7
HETATM    7  C2  UNL     1      27.688   5.985  48.290  1.00  0.00     0.044 C 
HETATM    8  C1  UNL     1      28.878   5.424  48.284  1.00  0.00     0.078 C 
HETATM    9 CL1  UNL     1      27.447   7.502  47.462  1.00  0.00    -0.083 Cl
BRANCH   8  10
HETATM   10  N1  UNL     1      30.254   5.265  47.987  1.00  0.00    -0.311 NA
HETATM   11  H1  UNL     1      30.988   5.937  48.290  1.00  0.00     0.123 HD
HETATM   12  H2  UNL     1      31.016   5.940  48.288  1.00  0.00     0.123 HD
ENDBRANCH   8  10
ENDBRANCH   6   7
ENDBRANCH   4   5
ENDBRANCH   3   4
ENDBRANCH   1   3
BRANCH   1  13
HETATM   13  C7  UNL     1      25.007   1.577  52.904  1.00  0.00     0.077 C 
HETATM   14  C8  UNL     1      24.007   0.795  53.165  1.00  0.00     0.029 C 
HETATM   15  C9  UNL     1      23.338  -0.413  53.854  1.00  0.00     0.214 C 
HETATM   16  C13 UNL     1      22.862   1.318  52.344  1.00  0.00     0.082 C 
HETATM   17  O1  UNL     1      22.504  -0.949  52.801  1.00  0.00    -0.359 OA
HETATM   18  C10 UNL     1      21.344  -0.180  52.699  1.00  0.00     0.264 C 
HETATM   19  C11 UNL     1      20.898   0.233  51.324  1.00  0.00     0.204 C 
HETATM   20  N4  UNL     1      21.796   1.191  53.212  1.00  0.00    -0.254 NA
HETATM   21  N3  UNL     1      21.435   1.643  51.043  1.00  0.00    -0.295 NA
HETATM   22  C12 UNL     1      22.782   1.636  50.881  1.00  0.00     0.142 C 
BRANCH  13  23
HETATM   23  S1  UNL     1      26.190   0.686  53.966  1.00  0.00    -0.125 SA
HETATM   24  H9  UNL     1      25.679  -0.621  54.102  1.00  0.00     0.108 HD
ENDBRANCH  13  23
ENDBRANCH   1  13
TORSDOF 7
ENDMDL
MODEL 8
REMARK VINA RESULT:      -6.0      4.382      7.568
REMARK  7 active torsions:
REMARK  status: ('A' for Active; 'I' for Inactive)
REMARK    1  A    between atoms: N1_1  and  C1_2 
REMARK    2  A    between atoms: C2_3  and  C3_5 
REMARK    3  A    between atoms: C4_6  and  C5_7 
REMARK    4  A    between atoms: C5_7  and  C6_8 
REMARK    5  A    between atoms: C6_8  and  N2_9 
REMARK    6  A    between atoms: N2_9  and  C7_10 
REMARK    7  A    between atoms: C7_10  and  S1_11 
ROOT
HETATM    1  N2  UNL     1      24.553   3.614  52.083  1.00  0.00    -0.360 N 
HETATM    2  H8  UNL     1      24.868   4.610  52.099  1.00  0.00     0.166 HD
ENDROOT
BRANCH   1   3
HETATM    3  C6  UNL     1      24.707   2.664  53.127  1.00  0.00     0.089 C 
BRANCH   3   4
HETATM    4  C5  UNL     1      24.864   1.354  53.099  1.00  0.00     0.017 C 
BRANCH   4   5
HETATM    5  C4  UNL     1      26.060   0.622  53.501  1.00  0.00     0.003 C 
HETATM    6  C3  UNL     1      26.762   0.015  52.568  1.00  0.00     0.025 C 
BRANCH   6   7
HETATM    7  C2  UNL     1      27.931  -0.682  53.082  1.00  0.00     0.044 C 
HETATM    8  C1  UNL     1      27.921  -1.983  52.892  1.00  0.00     0.078 C 
HETATM    9 CL1  UNL     1      29.290   0.063  53.885  1.00  0.00    -0.083 Cl
BRANCH   8  10
HETATM   10  N1  UNL     1      28.385  -3.321  52.939  1.00  0.00    -0.311 NA
HETATM   11  H1  UNL     1      28.695  -3.851  52.099  1.00  0.00     0.123 HD
HETATM   12  H2  UNL     1      28.705  -3.876  52.094  1.00  0.00     0.123 HD
ENDBRANCH   8  10
ENDBRANCH   6   7
ENDBRANCH   4   5
ENDBRANCH   3   4
ENDBRANCH   1   3
BRANCH   1  13
HETATM   13  C7  UNL     1      23.940   3.234  50.930  1.00  0.00     0.077 C 
HETATM   14  C8  UNL     1      23.166   2.755  50.008  1.00  0.00     0.029 C 
HETATM   15  C9  UNL     1      22.751   2.501  48.543  1.00  0.00     0.214 C 
HETATM   16  C13 UNL     1      22.031   2.092  50.738  1.00  0.00     0.082 C 
HETATM   17  O1  UNL     1      21.317   2.685  48.590  1.00  0.00    -0.359 OA
HETATM   18  C10 UNL     1      20.725   1.533  49.109  1.00  0.00     0.264 C 
HETATM   19  C11 UNL     1      19.666   1.705  50.164  1.00  0.00     0.204 C 
HETATM   20  N4  UNL     1      21.831   0.948  49.993  1.00  0.00    -0.254 NA
HETATM   21  N3  UNL     1      20.326   1.562  51.542  1.00  0.00    -0.295 NA
HETATM   22  C12 UNL     1      21.132   2.618  51.816  1.00  0.00     0.142 C 
BRANCH  13  23
HETATM   23  S1  UNL     1      25.131   3.978  49.769  1.00  0.00    -0.125 SA
HETATM   24  H9  UNL     1      24.358   4.592  48.762  1.00  0.00     0.108 HD
ENDBRANCH  13  23
ENDBRANCH   1  13
TORSDOF 7
ENDMDL
MODEL 9
REMARK VINA RESULT:      -6.0      4.478      5.966
REMARK  7 active torsions:
REMARK  status: ('A' for Active; 'I' for Inactive)
REMARK    1  A    between atoms: N1_1  and  C1_2 
REMARK    2  A    between atoms: C2_3  and  C3_5 
REMARK    3  A    between atoms: C4_6  and  C5_7 
REMARK    4  A    between atoms: C5_7  and  C6_8 
REMARK    5  A    between atoms: C6_8  and  N2_9 
REMARK    6  A    between atoms: N2_9  and  C7_10 
REMARK    7  A    between atoms: C7_10  and  S1_11 
ROOT
HETATM    1  N2  UNL     1      24.609   2.901  52.015  1.00  0.00    -0.360 N 
HETATM    2  H8  UNL     1      25.300   3.345  51.369  1.00  0.00     0.166 HD
ENDROOT
BRANCH   1   3
HETATM    3  C6  UNL     1      23.321   3.400  52.345  1.00  0.00     0.089 C 
BRANCH   3   4
HETATM    4  C5  UNL     1      22.816   4.618  52.289  1.00  0.00     0.017 C 
BRANCH   4   5
HETATM    5  C4  UNL     1      23.473   5.798  51.739  1.00  0.00     0.003 C 
HETATM    6  C3  UNL     1      23.321   6.057  50.458  1.00  0.00     0.025 C 
BRANCH   6   7
HETATM    7  C2  UNL     1      24.018   7.255  50.020  1.00  0.00     0.044 C 
HETATM    8  C1  UNL     1      25.275   7.329  50.401  1.00  0.00     0.078 C 
HETATM    9 CL1  UNL     1      23.333   8.538  49.055  1.00  0.00    -0.083 Cl
BRANCH   8  10
HETATM   10  N1  UNL     1      26.579   7.867  50.530  1.00  0.00    -0.311 NA
HETATM   11  H1  UNL     1      27.420   7.290  50.736  1.00  0.00     0.123 HD
HETATM   12  H2  UNL     1      27.447   7.295  50.740  1.00  0.00     0.123 HD
ENDBRANCH   8  10
ENDBRANCH   6   7
ENDBRANCH   4   5
ENDBRANCH   3   4
ENDBRANCH   1   3
BRANCH   1  13
HETATM   13  C7  UNL     1      25.027   1.731  52.571  1.00  0.00     0.077 C 
HETATM   14  C8  UNL     1      25.684   0.726  53.055  1.00  0.00     0.029 C 
HETATM   15  C9  UNL     1      25.799  -0.667  53.710  1.00  0.00     0.214 C 
HETATM   16  C13 UNL     1      27.135   1.105  52.951  1.00  0.00     0.082 C 
HETATM   17  O1  UNL     1      26.878  -0.479  54.654  1.00  0.00    -0.359 OA
HETATM   18  C10 UNL     1      28.096  -0.539  53.975  1.00  0.00     0.264 C 
HETATM   19  C11 UNL     1      29.122   0.516  54.286  1.00  0.00     0.204 C 
HETATM   20  N4  UNL     1      27.722  -0.082  52.561  1.00  0.00    -0.254 NA
HETATM   21  N3  UNL     1      28.998   1.635  53.243  1.00  0.00    -0.295 NA
HETATM   22  C12 UNL     1      27.851   2.341  53.409  1.00  0.00     0.142 C 
BRANCH  13  23
HETATM   23  S1  UNL     1      23.382   1.009  52.873  1.00  0.00    -0.125 SA
HETATM   24  H9  UNL     1      22.479   1.765  52.096  1.00  0.00     0.108 HD
ENDBRANCH  13  23
ENDBRANCH   1  13
TORSDOF 7
ENDMDL
