MODEL 1
REMARK VINA RESULT:      -6.7      0.000      0.000
REMARK  1 active torsions:
REMARK  status: ('A' for Active; 'I' for Inactive)
REMARK    1  A    between atoms: C11_14  and  C15_19 
ROOT
HETATM    1  C1  UNL     1      31.210   9.451  46.850  1.00  0.00     0.032 C 
HETATM    2  C2  UNL     1      31.941   8.580  45.870  1.00  0.00     0.080 C 
HETATM    3  C3  UNL     1      31.464   7.131  46.145  1.00  0.00     0.059 C 
HETATM    4  C4  UNL     1      32.673   6.288  45.817  1.00  0.00    -0.072 C 
HETATM    5  C5  UNL     1      32.963   6.649  44.573  1.00  0.00    -0.004 C 
HETATM    6  C6  UNL     1      33.929   7.718  45.003  1.00  0.00     0.145 C 
HETATM    7  N1  UNL     1      33.348   8.613  45.919  1.00  0.00    -0.396 N 
HETATM    8  C7  UNL     1      34.021   8.947  47.103  1.00  0.00     0.204 C 
HETATM    9  S1  UNL     1      34.821   7.646  48.028  1.00  0.00    -0.075 SA
HETATM   10  S2  UNL     1      33.475   6.287  48.967  1.00  0.00    -0.059 SA
HETATM   11  C8  UNL     1      33.047   4.987  47.968  1.00  0.00     0.114 C 
HETATM   12  C9  UNL     1      31.525   4.741  47.722  1.00  0.00     0.013 C 
HETATM   13  C10 UNL     1      31.470   3.655  46.865  1.00  0.00    -0.020 C 
HETATM   14  C11 UNL     1      32.700   2.906  46.296  1.00  0.00     0.038 C 
HETATM   15  C12 UNL     1      33.235   2.395  47.782  1.00  0.00     0.129 C 
HETATM   16  N2  UNL     1      33.682   3.758  47.785  1.00  0.00    -0.377 N 
HETATM   17  C13 UNL     1      34.817   3.589  47.044  1.00  0.00     0.070 A 
HETATM   18  C14 UNL     1      35.090   3.681  45.659  1.00  0.00     0.037 A 
HETATM   19  C15 UNL     1      33.747   3.954  46.006  1.00  0.00     0.013 A 
HETATM   20  C16 UNL     1      33.459   5.373  46.477  1.00  0.00     0.070 C 
ENDROOT
TORSDOF 1
ENDMDL
MODEL 2
REMARK VINA RESULT:      -6.6     11.209     13.030
REMARK  1 active torsions:
REMARK  status: ('A' for Active; 'I' for Inactive)
REMARK    1  A    between atoms: C11_14  and  C15_19 
ROOT
HETATM    1  C1  UNL     1      17.886   0.978  50.476  1.00  0.00     0.032 C 
HETATM    2  C2  UNL     1      19.164   0.992  49.688  1.00  0.00     0.080 C 
HETATM    3  C3  UNL     1      20.290   0.623  50.689  1.00  0.00     0.059 C 
HETATM    4  C4  UNL     1      21.486   1.393  50.182  1.00  0.00    -0.072 C 
HETATM    5  C5  UNL     1      21.586   0.995  48.920  1.00  0.00    -0.004 C 
HETATM    6  C6  UNL     1      20.743   2.123  48.393  1.00  0.00     0.145 C 
HETATM    7  N1  UNL     1      19.502   2.201  49.049  1.00  0.00    -0.396 N 
HETATM    8  C7  UNL     1      19.040   3.430  49.541  1.00  0.00     0.204 C 
HETATM    9  S1  UNL     1      20.190   4.495  50.397  1.00  0.00    -0.075 SA
HETATM   10  S2  UNL     1      20.808   3.763  52.301  1.00  0.00    -0.059 SA
HETATM   11  C8  UNL     1      22.171   2.761  52.211  1.00  0.00     0.114 C 
HETATM   12  C9  UNL     1      22.054   1.333  52.830  1.00  0.00     0.013 C 
HETATM   13  C10 UNL     1      23.282   0.737  52.594  1.00  0.00    -0.020 C 
HETATM   14  C11 UNL     1      24.466   1.402  51.850  1.00  0.00     0.038 C 
HETATM   15  C12 UNL     1      24.658   2.610  52.972  1.00  0.00     0.129 C 
HETATM   16  N2  UNL     1      23.526   3.096  52.238  1.00  0.00    -0.377 N 
HETATM   17  C13 UNL     1      24.200   3.634  51.179  1.00  0.00     0.070 A 
HETATM   18  C14 UNL     1      24.583   3.124  49.917  1.00  0.00     0.037 A 
HETATM   19  C15 UNL     1      23.869   2.208  50.722  1.00  0.00     0.013 A 
HETATM   20  C16 UNL     1      22.352   2.334  50.686  1.00  0.00     0.070 C 
ENDROOT
TORSDOF 1
ENDMDL
MODEL 3
REMARK VINA RESULT:      -6.5     10.797     12.846
REMARK  1 active torsions:
REMARK  status: ('A' for Active; 'I' for Inactive)
REMARK    1  A    between atoms: C11_14  and  C15_19 
ROOT
HETATM    1  C1  UNL     1      19.837  -0.022  52.748  1.00  0.00     0.032 C 
HETATM    2  C2  UNL     1      20.274   0.233  51.335  1.00  0.00     0.080 C 
HETATM    3  C3  UNL     1      21.765   0.652  51.415  1.00  0.00     0.059 C 
HETATM    4  C4  UNL     1      21.926   1.620  50.267  1.00  0.00    -0.072 C 
HETATM    5  C5  UNL     1      21.506   0.919  49.221  1.00  0.00    -0.004 C 
HETATM    6  C6  UNL     1      20.092   1.416  49.330  1.00  0.00     0.145 C 
HETATM    7  N1  UNL     1      19.563   1.215  50.618  1.00  0.00    -0.396 N 
HETATM    8  C7  UNL     1      18.911   2.262  51.284  1.00  0.00     0.204 C 
HETATM    9  S1  UNL     1      19.635   3.894  51.228  1.00  0.00    -0.075 SA
HETATM   10  S2  UNL     1      21.447   4.084  52.333  1.00  0.00    -0.059 SA
HETATM   11  C8  UNL     1      22.821   3.703  51.416  1.00  0.00     0.114 C 
HETATM   12  C9  UNL     1      23.779   2.607  51.980  1.00  0.00     0.013 C 
HETATM   13  C10 UNL     1      24.781   2.483  51.032  1.00  0.00    -0.020 C 
HETATM   14  C11 UNL     1      24.857   3.282  49.707  1.00  0.00     0.038 C 
HETATM   15  C12 UNL     1      25.002   4.756  50.457  1.00  0.00     0.129 C 
HETATM   16  N2  UNL     1      23.594   4.519  50.589  1.00  0.00    -0.377 N 
HETATM   17  C13 UNL     1      23.214   4.916  49.339  1.00  0.00     0.070 A 
HETATM   18  C14 UNL     1      23.043   4.226  48.116  1.00  0.00     0.037 A 
HETATM   19  C15 UNL     1      23.443   3.405  49.195  1.00  0.00     0.013 A 
HETATM   20  C16 UNL     1      22.328   2.926  50.115  1.00  0.00     0.070 C 
ENDROOT
TORSDOF 1
ENDMDL
MODEL 4
REMARK VINA RESULT:      -6.5      2.129      3.211
REMARK  1 active torsions:
REMARK  status: ('A' for Active; 'I' for Inactive)
REMARK    1  A    between atoms: C11_14  and  C15_19 
ROOT
HETATM    1  C1  UNL     1      31.257   9.741  48.865  1.00  0.00     0.032 C 
HETATM    2  C2  UNL     1      30.820   8.305  48.853  1.00  0.00     0.080 C 
HETATM    3  C3  UNL     1      32.112   7.461  49.000  1.00  0.00     0.059 C 
HETATM    4  C4  UNL     1      31.813   6.208  48.210  1.00  0.00    -0.072 C 
HETATM    5  C5  UNL     1      30.687   5.769  48.759  1.00  0.00    -0.004 C 
HETATM    6  C6  UNL     1      29.810   6.495  47.778  1.00  0.00     0.145 C 
HETATM    7  N1  UNL     1      30.117   7.866  47.714  1.00  0.00    -0.396 N 
HETATM    8  C7  UNL     1      30.295   8.491  46.471  1.00  0.00     0.204 C 
HETATM    9  S1  UNL     1      31.247   7.648  45.218  1.00  0.00    -0.075 SA
HETATM   10  S2  UNL     1      33.330   7.511  45.647  1.00  0.00    -0.059 SA
HETATM   11  C8  UNL     1      33.729   6.129  46.543  1.00  0.00     0.114 C 
HETATM   12  C9  UNL     1      34.500   6.340  47.883  1.00  0.00     0.013 C 
HETATM   13  C10 UNL     1      34.666   5.069  48.406  1.00  0.00    -0.020 C 
HETATM   14  C11 UNL     1      34.153   3.763  47.752  1.00  0.00     0.038 C 
HETATM   15  C12 UNL     1      35.100   3.918  46.398  1.00  0.00     0.129 C 
HETATM   16  N2  UNL     1      34.045   4.843  46.102  1.00  0.00    -0.377 N 
HETATM   17  C13 UNL     1      33.121   3.943  45.653  1.00  0.00     0.070 A 
HETATM   18  C14 UNL     1      32.082   3.225  46.290  1.00  0.00     0.037 A 
HETATM   19  C15 UNL     1      32.807   4.082  47.148  1.00  0.00     0.013 A 
HETATM   20  C16 UNL     1      32.376   5.543  47.147  1.00  0.00     0.070 C 
ENDROOT
TORSDOF 1
ENDMDL
MODEL 5
REMARK VINA RESULT:      -6.5      2.598      5.549
REMARK  1 active torsions:
REMARK  status: ('A' for Active; 'I' for Inactive)
REMARK    1  A    between atoms: C11_14  and  C15_19 
ROOT
HETATM    1  C1  UNL     1      32.133   3.762  46.437  1.00  0.00     0.032 C 
HETATM    2  C2  UNL     1      32.179   4.589  47.689  1.00  0.00     0.080 C 
HETATM    3  C3  UNL     1      30.769   5.215  47.843  1.00  0.00     0.059 C 
HETATM    4  C4  UNL     1      31.038   6.546  48.503  1.00  0.00    -0.072 C 
HETATM    5  C5  UNL     1      31.718   6.209  49.592  1.00  0.00    -0.004 C 
HETATM    6  C6  UNL     1      33.056   6.365  48.924  1.00  0.00     0.145 C 
HETATM    7  N1  UNL     1      33.140   5.616  47.736  1.00  0.00    -0.396 N 
HETATM    8  C7  UNL     1      33.618   6.212  46.560  1.00  0.00     0.204 C 
HETATM    9  S1  UNL     1      33.056   7.855  46.145  1.00  0.00    -0.075 SA
HETATM   10  S2  UNL     1      31.004   7.959  45.576  1.00  0.00    -0.059 SA
HETATM   11  C8  UNL     1      29.966   8.195  46.894  1.00  0.00     0.114 C 
HETATM   12  C9  UNL     1      28.810   7.164  47.090  1.00  0.00     0.013 C 
HETATM   13  C10 UNL     1      28.150   7.579  48.235  1.00  0.00    -0.020 C 
HETATM   14  C11 UNL     1      28.545   8.804  49.097  1.00  0.00     0.038 C 
HETATM   15  C12 UNL     1      28.268   9.904  47.885  1.00  0.00     0.129 C 
HETATM   16  N2  UNL     1      29.545   9.383  47.494  1.00  0.00    -0.377 N 
HETATM   17  C13 UNL     1      30.323  10.130  48.332  1.00  0.00     0.070 A 
HETATM   18  C14 UNL     1      30.824   9.912  49.637  1.00  0.00     0.037 A 
HETATM   19  C15 UNL     1      30.053   8.844  49.125  1.00  0.00     0.013 A 
HETATM   20  C16 UNL     1      30.790   7.868  48.218  1.00  0.00     0.070 C 
ENDROOT
TORSDOF 1
ENDMDL
MODEL 6
REMARK VINA RESULT:      -6.3     10.598     12.285
REMARK  1 active torsions:
REMARK  status: ('A' for Active; 'I' for Inactive)
REMARK    1  A    between atoms: C11_14  and  C15_19 
ROOT
HETATM    1  C1  UNL     1      24.122   5.435  48.580  1.00  0.00     0.032 C 
HETATM    2  C2  UNL     1      24.535   4.318  49.494  1.00  0.00     0.080 C 
HETATM    3  C3  UNL     1      23.535   3.161  49.239  1.00  0.00     0.059 C 
HETATM    4  C4  UNL     1      23.422   2.483  50.584  1.00  0.00    -0.072 C 
HETATM    5  C5  UNL     1      24.682   2.194  50.882  1.00  0.00    -0.004 C 
HETATM    6  C6  UNL     1      24.900   3.474  51.640  1.00  0.00     0.145 C 
HETATM    7  N1  UNL     1      24.560   4.603  50.873  1.00  0.00    -0.396 N 
HETATM    8  C7  UNL     1      23.743   5.604  51.417  1.00  0.00     0.204 C 
HETATM    9  S1  UNL     1      22.307   5.119  52.361  1.00  0.00    -0.075 SA
HETATM   10  S2  UNL     1      20.754   4.237  51.197  1.00  0.00    -0.059 SA
HETATM   11  C8  UNL     1      20.922   2.558  51.038  1.00  0.00     0.114 C 
HETATM   12  C9  UNL     1      20.953   1.974  49.591  1.00  0.00     0.013 C 
HETATM   13  C10 UNL     1      21.122   0.610  49.758  1.00  0.00    -0.020 C 
HETATM   14  C11 UNL     1      21.264  -0.110  51.121  1.00  0.00     0.038 C 
HETATM   15  C12 UNL     1      19.748   0.314  51.646  1.00  0.00     0.129 C 
HETATM   16  N2  UNL     1      20.465   1.535  51.870  1.00  0.00    -0.377 N 
HETATM   17  C13 UNL     1      21.052   1.199  53.057  1.00  0.00     0.070 A 
HETATM   18  C14 UNL     1      22.293   0.608  53.389  1.00  0.00     0.037 A 
HETATM   19  C15 UNL     1      22.091   0.795  52.003  1.00  0.00     0.013 A 
HETATM   20  C16 UNL     1      22.411   2.183  51.466  1.00  0.00     0.070 C 
ENDROOT
TORSDOF 1
ENDMDL
MODEL 7
REMARK VINA RESULT:      -6.2      9.614     11.199
REMARK  1 active torsions:
REMARK  status: ('A' for Active; 'I' for Inactive)
REMARK    1  A    between atoms: C11_14  and  C15_19 
ROOT
HETATM    1  C1  UNL     1      19.665   3.886  50.579  1.00  0.00     0.032 C 
HETATM    2  C2  UNL     1      20.867   3.377  49.839  1.00  0.00     0.080 C 
HETATM    3  C3  UNL     1      21.531   2.326  50.767  1.00  0.00     0.059 C 
HETATM    4  C4  UNL     1      23.003   2.450  50.452  1.00  0.00    -0.072 C 
HETATM    5  C5  UNL     1      23.045   2.272  49.138  1.00  0.00    -0.004 C 
HETATM    6  C6  UNL     1      22.943   3.740  48.834  1.00  0.00     0.145 C 
HETATM    7  N1  UNL     1      21.834   4.331  49.467  1.00  0.00    -0.396 N 
HETATM    8  C7  UNL     1      21.986   5.523  50.189  1.00  0.00     0.204 C 
HETATM    9  S1  UNL     1      23.398   5.695  51.268  1.00  0.00    -0.075 SA
HETATM   10  S2  UNL     1      23.336   4.448  52.995  1.00  0.00    -0.059 SA
HETATM   11  C8  UNL     1      24.023   2.921  52.731  1.00  0.00     0.114 C 
HETATM   12  C9  UNL     1      23.140   1.673  53.044  1.00  0.00     0.013 C 
HETATM   13  C10 UNL     1      23.930   0.583  52.717  1.00  0.00    -0.020 C 
HETATM   14  C11 UNL     1      25.368   0.664  52.149  1.00  0.00     0.038 C 
HETATM   15  C12 UNL     1      25.995   1.401  53.498  1.00  0.00     0.129 C 
HETATM   16  N2  UNL     1      25.351   2.509  52.855  1.00  0.00    -0.377 N 
HETATM   17  C13 UNL     1      26.326   2.796  51.943  1.00  0.00     0.070 A 
HETATM   18  C14 UNL     1      26.557   2.378  50.611  1.00  0.00     0.037 A 
HETATM   19  C15 UNL     1      25.391   1.835  51.197  1.00  0.00     0.013 A 
HETATM   20  C16 UNL     1      24.153   2.720  51.156  1.00  0.00     0.070 C 
ENDROOT
TORSDOF 1
ENDMDL
MODEL 8
REMARK VINA RESULT:      -6.2     10.952     12.782
REMARK  1 active torsions:
REMARK  status: ('A' for Active; 'I' for Inactive)
REMARK    1  A    between atoms: C11_14  and  C15_19 
ROOT
HETATM    1  C1  UNL     1      19.266   5.035  49.332  1.00  0.00     0.032 C 
HETATM    2  C2  UNL     1      19.420   4.120  50.512  1.00  0.00     0.080 C 
HETATM    3  C3  UNL     1      20.774   4.492  51.170  1.00  0.00     0.059 C 
HETATM    4  C4  UNL     1      21.271   3.181  51.732  1.00  0.00    -0.072 C 
HETATM    5  C5  UNL     1      20.265   2.784  52.501  1.00  0.00    -0.004 C 
HETATM    6  C6  UNL     1      19.620   1.975  51.410  1.00  0.00     0.145 C 
HETATM    7  N1  UNL     1      19.408   2.737  50.247  1.00  0.00    -0.396 N 
HETATM    8  C7  UNL     1      19.799   2.238  48.996  1.00  0.00     0.204 C 
HETATM    9  S1  UNL     1      21.387   1.436  48.854  1.00  0.00    -0.075 SA
HETATM   10  S2  UNL     1      23.052   2.753  49.047  1.00  0.00    -0.059 SA
HETATM   11  C8  UNL     1      23.559   2.943  50.653  1.00  0.00     0.114 C 
HETATM   12  C9  UNL     1      23.636   4.398  51.213  1.00  0.00     0.013 C 
HETATM   13  C10 UNL     1      24.044   4.254  52.529  1.00  0.00    -0.020 C 
HETATM   14  C11 UNL     1      24.327   2.904  53.232  1.00  0.00     0.038 C 
HETATM   15  C12 UNL     1      25.586   2.501  52.228  1.00  0.00     0.129 C 
HETATM   16  N2  UNL     1      24.461   2.182  51.397  1.00  0.00    -0.377 N 
HETATM   17  C13 UNL     1      24.170   0.959  51.930  1.00  0.00     0.070 A 
HETATM   18  C14 UNL     1      23.306   0.537  52.967  1.00  0.00     0.037 A 
HETATM   19  C15 UNL     1      23.290   1.930  52.728  1.00  0.00     0.013 A 
HETATM   20  C16 UNL     1      22.392   2.398  51.591  1.00  0.00     0.070 C 
ENDROOT
TORSDOF 1
ENDMDL
MODEL 9
REMARK VINA RESULT:      -6.0      2.201      4.945
REMARK  1 active torsions:
REMARK  status: ('A' for Active; 'I' for Inactive)
REMARK    1  A    between atoms: C11_14  and  C15_19 
ROOT
HETATM    1  C1  UNL     1      35.377   5.635  49.236  1.00  0.00     0.032 C 
HETATM    2  C2  UNL     1      34.944   6.359  47.995  1.00  0.00     0.080 C 
HETATM    3  C3  UNL     1      34.000   7.495  48.467  1.00  0.00     0.059 C 
HETATM    4  C4  UNL     1      33.014   7.636  47.331  1.00  0.00    -0.072 C 
HETATM    5  C5  UNL     1      33.796   7.840  46.278  1.00  0.00    -0.004 C 
HETATM    6  C6  UNL     1      33.868   6.381  45.923  1.00  0.00     0.145 C 
HETATM    7  N1  UNL     1      34.282   5.596  47.014  1.00  0.00    -0.396 N 
HETATM    8  C7  UNL     1      33.571   4.438  47.359  1.00  0.00     0.204 C 
HETATM    9  S1  UNL     1      31.787   4.500  47.364  1.00  0.00    -0.075 SA
HETATM   10  S2  UNL     1      30.958   5.689  48.927  1.00  0.00    -0.059 SA
HETATM   11  C8  UNL     1      30.776   7.316  48.491  1.00  0.00     0.114 C 
HETATM   12  C9  UNL     1      31.447   8.385  49.410  1.00  0.00     0.013 C 
HETATM   13  C10 UNL     1      31.164   9.601  48.811  1.00  0.00    -0.020 C 
HETATM   14  C11 UNL     1      30.364   9.783  47.498  1.00  0.00     0.038 C 
HETATM   15  C12 UNL     1      28.961   9.147  48.116  1.00  0.00     0.129 C 
HETATM   16  N2  UNL     1      29.710   7.953  47.853  1.00  0.00    -0.377 N 
HETATM   17  C13 UNL     1      29.455   7.857  46.515  1.00  0.00     0.070 A 
HETATM   18  C14 UNL     1      30.130   8.330  45.366  1.00  0.00     0.037 A 
HETATM   19  C15 UNL     1      30.767   8.650  46.586  1.00  0.00     0.013 A 
HETATM   20  C16 UNL     1      31.650   7.562  47.181  1.00  0.00     0.070 C 
ENDROOT
TORSDOF 1
ENDMDL
