MODEL 1
REMARK VINA RESULT:      -9.5      0.000      0.000
REMARK  6 active torsions:
REMARK  status: ('A' for Active; 'I' for Inactive)
REMARK    1  A    between atoms: C4_4  and  C5_5 
REMARK    2  A    between atoms: C5_5  and  O1_6 
REMARK    3  A    between atoms: O1_6  and  C6_7 
REMARK    4  A    between atoms: C10_13  and  N3_14 
REMARK    5  A    between atoms: N3_14  and  C11_15 
REMARK    6  A    between atoms: C19_24  and  O2_25 
ROOT
HETATM    1  C6  UNL     1      20.569  -0.254  53.034  1.00  0.00     0.104 A 
HETATM    2  C7  UNL     1      21.024  -0.918  54.167  1.00  0.00     0.072 A 
HETATM    3  C8  UNL     1      22.376  -0.929  54.472  1.00  0.00     0.075 A 
HETATM    4  N1  UNL     1      22.827  -1.567  55.566  1.00  0.00    -0.241 NA
HETATM    5  C9  UNL     1      24.146  -1.550  55.819  1.00  0.00     0.236 A 
HETATM    6  N2  UNL     1      25.022  -0.903  54.995  1.00  0.00    -0.224 NA
HETATM    7  C10 UNL     1      24.575  -0.264  53.901  1.00  0.00     0.142 A 
HETATM    8  C17 UNL     1      23.232  -0.260  53.609  1.00  0.00     0.042 A 
HETATM    9  C18 UNL     1      22.772   0.394  52.491  1.00  0.00     0.057 A 
HETATM   10  C19 UNL     1      21.423   0.406  52.187  1.00  0.00     0.102 A 
ENDROOT
BRANCH   1  11
HETATM   11  O1  UNL     1      19.191  -0.259  52.750  1.00  0.00    -0.346 OA
BRANCH  11  12
HETATM   12  C5  UNL     1      18.335  -1.242  53.255  1.00  0.00     0.217 C 
BRANCH  12  13
HETATM   13  C4  UNL     1      16.866  -0.938  53.060  1.00  0.00     0.293 C 
HETATM   14  C3  UNL     1      16.074  -2.065  52.549  1.00  0.00     0.038 C 
HETATM   15  C2  UNL     1      16.156  -3.363  52.793  1.00  0.00    -0.004 C 
HETATM   16  N6  UNL     1      15.018  -1.678  51.632  1.00  0.00    -0.385 N 
HETATM   17  C1  UNL     1      17.130  -4.014  53.696  1.00  0.00     0.038 C 
HETATM   18  C22 UNL     1      14.409  -0.343  51.675  1.00  0.00     0.152 C 
HETATM   19  C23 UNL     1      14.500  -2.594  50.619  1.00  0.00     0.149 C 
HETATM   20  C21 UNL     1      15.412   0.671  52.194  1.00  0.00     0.290 C 
HETATM   21  N5  UNL     1      16.777   0.137  52.053  1.00  0.00     0.097 N 
HETATM   22  H19 UNL     1      17.407   0.915  52.341  1.00  0.00     0.317 HD
ENDBRANCH  12  13
ENDBRANCH  11  12
ENDBRANCH   1  11
BRANCH  10  23
HETATM   23  O2  UNL     1      20.932   1.048  51.078  1.00  0.00    -0.353 OA
HETATM   24  C20 UNL     1      21.517   0.838  49.793  1.00  0.00     0.210 C 
ENDBRANCH  10  23
BRANCH   7  25
HETATM   25  N3  UNL     1      25.545   0.373  53.113  1.00  0.00    -0.338 N 
HETATM   26  H10 UNL     1      25.456   1.057  52.332  1.00  0.00     0.167 HD
BRANCH  25  27
HETATM   27  C11 UNL     1      26.923   0.109  53.336  1.00  0.00     0.064 A 
HETATM   28  C12 UNL     1      27.748   0.987  53.885  1.00  0.00     0.108 A 
HETATM   29  N4  UNL     1      28.720   1.867  54.470  1.00  0.00    -0.246 NA
HETATM   30  C13 UNL     1      29.160   0.707  54.110  1.00  0.00     0.069 A 
HETATM   31  C14 UNL     1      29.750  -0.581  53.736  1.00  0.00     0.089 A 
HETATM   32  C15 UNL     1      28.739  -1.489  53.131  1.00  0.00    -0.018 A 
HETATM   33  C16 UNL     1      27.479  -1.196  52.947  1.00  0.00     0.028 A 
ENDBRANCH  25  27
ENDBRANCH   7  25
TORSDOF 6
ENDMDL
MODEL 2
REMARK VINA RESULT:      -9.1      0.968      1.842
REMARK  6 active torsions:
REMARK  status: ('A' for Active; 'I' for Inactive)
REMARK    1  A    between atoms: C4_4  and  C5_5 
REMARK    2  A    between atoms: C5_5  and  O1_6 
REMARK    3  A    between atoms: O1_6  and  C6_7 
REMARK    4  A    between atoms: C10_13  and  N3_14 
REMARK    5  A    between atoms: N3_14  and  C11_15 
REMARK    6  A    between atoms: C19_24  and  O2_25 
ROOT
HETATM    1  C6  UNL     1      20.640  -0.252  52.728  1.00  0.00     0.104 A 
HETATM    2  C7  UNL     1      20.982  -0.970  53.869  1.00  0.00     0.072 A 
HETATM    3  C8  UNL     1      22.293  -0.979  54.320  1.00  0.00     0.075 A 
HETATM    4  N1  UNL     1      22.634  -1.669  55.422  1.00  0.00    -0.241 NA
HETATM    5  C9  UNL     1      23.916  -1.648  55.819  1.00  0.00     0.236 A 
HETATM    6  N2  UNL     1      24.864  -0.946  55.131  1.00  0.00    -0.224 NA
HETATM    7  C10 UNL     1      24.527  -0.256  54.030  1.00  0.00     0.142 A 
HETATM    8  C17 UNL     1      23.224  -0.254  53.592  1.00  0.00     0.042 A 
HETATM    9  C18 UNL     1      22.877   0.452  52.465  1.00  0.00     0.057 A 
HETATM   10  C19 UNL     1      21.569   0.463  52.015  1.00  0.00     0.102 A 
ENDROOT
BRANCH   1  11
HETATM   11  O1  UNL     1      19.302  -0.261  52.295  1.00  0.00    -0.346 OA
BRANCH  11  12
HETATM   12  C5  UNL     1      18.252  -0.628  53.142  1.00  0.00     0.217 C 
BRANCH  12  13
HETATM   13  C4  UNL     1      17.526  -1.884  52.713  1.00  0.00     0.293 C 
HETATM   14  C3  UNL     1      16.166  -1.656  52.205  1.00  0.00     0.038 C 
HETATM   15  C2  UNL     1      15.665  -0.670  51.479  1.00  0.00    -0.004 C 
HETATM   16  N6  UNL     1      15.221  -2.701  52.556  1.00  0.00    -0.385 N 
HETATM   17  C1  UNL     1      16.414   0.505  50.982  1.00  0.00     0.038 C 
HETATM   18  C22 UNL     1      15.659  -4.076  52.827  1.00  0.00     0.152 C 
HETATM   19  C23 UNL     1      13.787  -2.447  52.653  1.00  0.00     0.149 C 
HETATM   20  C21 UNL     1      17.072  -4.074  53.381  1.00  0.00     0.290 C 
HETATM   21  N5  UNL     1      17.398  -2.738  53.908  1.00  0.00     0.097 N 
HETATM   22  H19 UNL     1      18.337  -2.839  54.348  1.00  0.00     0.317 HD
ENDBRANCH  12  13
ENDBRANCH  11  12
ENDBRANCH   1  11
BRANCH  10  23
HETATM   23  O2  UNL     1      21.190   1.157  50.894  1.00  0.00    -0.353 OA
HETATM   24  C20 UNL     1      22.129   1.434  49.855  1.00  0.00     0.210 C 
ENDBRANCH  10  23
BRANCH   7  25
HETATM   25  N3  UNL     1      25.565   0.435  53.387  1.00  0.00    -0.338 N 
HETATM   26  H10 UNL     1      25.557   1.289  52.789  1.00  0.00     0.167 HD
BRANCH  25  27
HETATM   27  C11 UNL     1      26.903  -0.026  53.507  1.00  0.00     0.064 A 
HETATM   28  C12 UNL     1      27.837   0.631  54.177  1.00  0.00     0.108 A 
HETATM   29  N4  UNL     1      28.918   1.265  54.878  1.00  0.00    -0.246 NA
HETATM   30  C13 UNL     1      29.207   0.149  54.296  1.00  0.00     0.069 A 
HETATM   31  C14 UNL     1      29.630  -1.107  53.670  1.00  0.00     0.089 A 
HETATM   32  C15 UNL     1      28.507  -1.760  52.946  1.00  0.00    -0.018 A 
HETATM   33  C16 UNL     1      27.290  -1.292  52.865  1.00  0.00     0.028 A 
ENDBRANCH  25  27
ENDBRANCH   7  25
TORSDOF 6
ENDMDL
MODEL 3
REMARK VINA RESULT:      -8.9      1.903      3.557
REMARK  6 active torsions:
REMARK  status: ('A' for Active; 'I' for Inactive)
REMARK    1  A    between atoms: C4_4  and  C5_5 
REMARK    2  A    between atoms: C5_5  and  O1_6 
REMARK    3  A    between atoms: O1_6  and  C6_7 
REMARK    4  A    between atoms: C10_13  and  N3_14 
REMARK    5  A    between atoms: N3_14  and  C11_15 
REMARK    6  A    between atoms: C19_24  and  O2_25 
ROOT
HETATM    1  C6  UNL     1      21.849   0.591  51.560  1.00  0.00     0.104 A 
HETATM    2  C7  UNL     1      22.531   1.524  50.786  1.00  0.00     0.072 A 
HETATM    3  C8  UNL     1      23.809   1.925  51.144  1.00  0.00     0.075 A 
HETATM    4  N1  UNL     1      24.478   2.826  50.403  1.00  0.00    -0.241 NA
HETATM    5  C9  UNL     1      25.713   3.183  50.790  1.00  0.00     0.236 A 
HETATM    6  N2  UNL     1      26.292   2.651  51.907  1.00  0.00    -0.224 NA
HETATM    7  C10 UNL     1      25.627   1.751  52.650  1.00  0.00     0.142 A 
HETATM    8  C17 UNL     1      24.360   1.361  52.286  1.00  0.00     0.042 A 
HETATM    9  C18 UNL     1      23.678   0.440  53.043  1.00  0.00     0.057 A 
HETATM   10  C19 UNL     1      22.403   0.039  52.687  1.00  0.00     0.102 A 
ENDROOT
BRANCH   1  11
HETATM   11  O1  UNL     1      20.554   0.203  51.172  1.00  0.00    -0.346 OA
BRANCH  11  12
HETATM   12  C5  UNL     1      19.434   0.462  51.968  1.00  0.00     0.217 C 
BRANCH  12  13
HETATM   13  C4  UNL     1      18.474  -0.703  52.076  1.00  0.00     0.293 C 
HETATM   14  C3  UNL     1      17.098  -0.397  51.660  1.00  0.00     0.038 C 
HETATM   15  C2  UNL     1      16.637   0.377  50.691  1.00  0.00    -0.004 C 
HETATM   16  N6  UNL     1      16.080  -1.072  52.443  1.00  0.00    -0.385 N 
HETATM   17  C1  UNL     1      17.461   1.162  49.745  1.00  0.00     0.038 C 
HETATM   18  C22 UNL     1      16.351  -2.341  53.129  1.00  0.00     0.152 C 
HETATM   19  C23 UNL     1      14.732  -0.531  52.589  1.00  0.00     0.149 C 
HETATM   20  C21 UNL     1      17.819  -2.430  53.503  1.00  0.00     0.290 C 
HETATM   21  N5  UNL     1      18.415  -1.084  53.500  1.00  0.00     0.097 N 
HETATM   22  H19 UNL     1      19.387  -1.214  53.850  1.00  0.00     0.317 HD
ENDBRANCH  12  13
ENDBRANCH  11  12
ENDBRANCH   1  11
BRANCH  10  23
HETATM   23  O2  UNL     1      21.695  -0.878  53.422  1.00  0.00    -0.353 OA
HETATM   24  C20 UNL     1      21.801  -0.910  54.846  1.00  0.00     0.210 C 
ENDBRANCH  10  23
BRANCH   7  25
HETATM   25  N3  UNL     1      26.298   1.259  53.780  1.00  0.00    -0.338 N 
HETATM   26  H10 UNL     1      26.140   1.419  54.797  1.00  0.00     0.167 HD
BRANCH  25  27
HETATM   27  C11 UNL     1      27.401   0.380  53.620  1.00  0.00     0.064 A 
HETATM   28  C12 UNL     1      27.271  -0.887  53.258  1.00  0.00     0.108 A 
HETATM   29  N4  UNL     1      27.234  -2.269  52.870  1.00  0.00    -0.246 NA
HETATM   30  C13 UNL     1      28.409  -1.781  53.095  1.00  0.00     0.069 A 
HETATM   31  C14 UNL     1      29.780  -1.318  53.329  1.00  0.00     0.089 A 
HETATM   32  C15 UNL     1      29.812   0.113  53.729  1.00  0.00    -0.018 A 
HETATM   33  C16 UNL     1      28.763   0.880  53.862  1.00  0.00     0.028 A 
ENDBRANCH  25  27
ENDBRANCH   7  25
TORSDOF 6
ENDMDL
MODEL 4
REMARK VINA RESULT:      -8.8      3.264      4.371
REMARK  6 active torsions:
REMARK  status: ('A' for Active; 'I' for Inactive)
REMARK    1  A    between atoms: C4_4  and  C5_5 
REMARK    2  A    between atoms: C5_5  and  O1_6 
REMARK    3  A    between atoms: O1_6  and  C6_7 
REMARK    4  A    between atoms: C10_13  and  N3_14 
REMARK    5  A    between atoms: N3_14  and  C11_15 
REMARK    6  A    between atoms: C19_24  and  O2_25 
ROOT
HETATM    1  C6  UNL     1      20.845   2.912  52.429  1.00  0.00     0.104 A 
HETATM    2  C7  UNL     1      20.841   1.745  53.185  1.00  0.00     0.072 A 
HETATM    3  C8  UNL     1      21.990   0.975  53.283  1.00  0.00     0.075 A 
HETATM    4  N1  UNL     1      21.997  -0.155  54.012  1.00  0.00    -0.241 NA
HETATM    5  C9  UNL     1      23.134  -0.868  54.076  1.00  0.00     0.236 A 
HETATM    6  N2  UNL     1      24.265  -0.467  53.424  1.00  0.00    -0.224 NA
HETATM    7  C10 UNL     1      24.261   0.661  52.695  1.00  0.00     0.142 A 
HETATM    8  C17 UNL     1      23.116   1.417  52.605  1.00  0.00     0.042 A 
HETATM    9  C18 UNL     1      23.110   2.572  51.860  1.00  0.00     0.057 A 
HETATM   10  C19 UNL     1      21.964   3.341  51.762  1.00  0.00     0.102 A 
ENDROOT
BRANCH   1  11
HETATM   11  O1  UNL     1      19.665   3.673  52.348  1.00  0.00    -0.346 OA
BRANCH  11  12
HETATM   12  C5  UNL     1      18.544   3.230  51.640  1.00  0.00     0.217 C 
BRANCH  12  13
HETATM   13  C4  UNL     1      18.543   3.625  50.180  1.00  0.00     0.293 C 
HETATM   14  C3  UNL     1      19.341   2.748  49.312  1.00  0.00     0.038 C 
HETATM   15  C2  UNL     1      19.533   1.440  49.343  1.00  0.00    -0.004 C 
HETATM   16  N6  UNL     1      20.021   3.443  48.234  1.00  0.00    -0.385 N 
HETATM   17  C1  UNL     1      18.948   0.502  50.327  1.00  0.00     0.038 C 
HETATM   18  C22 UNL     1      19.514   4.709  47.692  1.00  0.00     0.152 C 
HETATM   19  C23 UNL     1      21.241   2.921  47.626  1.00  0.00     0.149 C 
HETATM   20  C21 UNL     1      18.757   5.470  48.765  1.00  0.00     0.290 C 
HETATM   21  N5  UNL     1      19.144   4.970  50.096  1.00  0.00     0.097 N 
HETATM   22  H19 UNL     1      18.659   5.594  50.775  1.00  0.00     0.317 HD
ENDBRANCH  12  13
ENDBRANCH  11  12
ENDBRANCH   1  11
BRANCH  10  23
HETATM   23  O2  UNL     1      21.926   4.499  51.027  1.00  0.00    -0.353 OA
HETATM   24  C20 UNL     1      22.880   5.537  51.249  1.00  0.00     0.210 C 
ENDBRANCH  10  23
BRANCH   7  25
HETATM   25  N3  UNL     1      25.466   0.995  52.059  1.00  0.00    -0.338 N 
HETATM   26  H10 UNL     1      25.657   1.443  51.138  1.00  0.00     0.167 HD
BRANCH  25  27
HETATM   27  C11 UNL     1      26.703   0.718  52.699  1.00  0.00     0.064 A 
HETATM   28  C12 UNL     1      27.405   1.635  53.346  1.00  0.00     0.108 A 
HETATM   29  N4  UNL     1      28.238   2.554  54.070  1.00  0.00    -0.246 NA
HETATM   30  C13 UNL     1      28.674   1.340  53.999  1.00  0.00     0.069 A 
HETATM   31  C14 UNL     1      29.248  -0.008  53.974  1.00  0.00     0.089 A 
HETATM   32  C15 UNL     1      28.382  -0.956  53.224  1.00  0.00    -0.018 A 
HETATM   33  C16 UNL     1      27.249  -0.648  52.652  1.00  0.00     0.028 A 
ENDBRANCH  25  27
ENDBRANCH   7  25
TORSDOF 6
ENDMDL
MODEL 5
REMARK VINA RESULT:      -8.7      1.476      1.906
REMARK  6 active torsions:
REMARK  status: ('A' for Active; 'I' for Inactive)
REMARK    1  A    between atoms: C4_4  and  C5_5 
REMARK    2  A    between atoms: C5_5  and  O1_6 
REMARK    3  A    between atoms: O1_6  and  C6_7 
REMARK    4  A    between atoms: C10_13  and  N3_14 
REMARK    5  A    between atoms: N3_14  and  C11_15 
REMARK    6  A    between atoms: C19_24  and  O2_25 
ROOT
HETATM    1  C6  UNL     1      21.119   0.705  52.493  1.00  0.00     0.104 A 
HETATM    2  C7  UNL     1      21.345  -0.135  53.578  1.00  0.00     0.072 A 
HETATM    3  C8  UNL     1      22.638  -0.387  54.007  1.00  0.00     0.075 A 
HETATM    4  N1  UNL     1      22.868  -1.197  55.056  1.00  0.00    -0.241 NA
HETATM    5  C9  UNL     1      24.138  -1.411  55.433  1.00  0.00     0.236 A 
HETATM    6  N2  UNL     1      25.185  -0.826  54.779  1.00  0.00    -0.224 NA
HETATM    7  C10 UNL     1      24.960  -0.016  53.731  1.00  0.00     0.142 A 
HETATM    8  C17 UNL     1      23.672   0.227  53.315  1.00  0.00     0.042 A 
HETATM    9  C18 UNL     1      23.439   1.055  52.244  1.00  0.00     0.057 A 
HETATM   10  C19 UNL     1      22.149   1.308  51.815  1.00  0.00     0.102 A 
ENDROOT
BRANCH   1  11
HETATM   11  O1  UNL     1      19.796   0.943  52.081  1.00  0.00    -0.346 OA
BRANCH  11  12
HETATM   12  C5  UNL     1      19.101   0.043  51.266  1.00  0.00     0.217 C 
BRANCH  12  13
HETATM   13  C4  UNL     1      17.645   0.399  51.060  1.00  0.00     0.293 C 
HETATM   14  C3  UNL     1      16.699  -0.649  51.466  1.00  0.00     0.038 C 
HETATM   15  C2  UNL     1      16.734  -1.504  52.475  1.00  0.00    -0.004 C 
HETATM   16  N6  UNL     1      15.526  -0.748  50.617  1.00  0.00    -0.385 N 
HETATM   17  C1  UNL     1      17.806  -1.603  53.489  1.00  0.00     0.038 C 
HETATM   18  C22 UNL     1      15.028   0.402  49.853  1.00  0.00     0.152 C 
HETATM   19  C23 UNL     1      14.774  -1.992  50.480  1.00  0.00     0.149 C 
HETATM   20  C21 UNL     1      16.175   1.333  49.505  1.00  0.00     0.290 C 
HETATM   21  N5  UNL     1      17.453   0.610  49.613  1.00  0.00     0.097 N 
HETATM   22  H19 UNL     1      18.176   1.279  49.275  1.00  0.00     0.317 HD
ENDBRANCH  12  13
ENDBRANCH  11  12
ENDBRANCH   1  11
BRANCH  10  23
HETATM   23  O2  UNL     1      21.883   2.129  50.749  1.00  0.00    -0.353 OA
HETATM   24  C20 UNL     1      22.548   1.943  49.500  1.00  0.00     0.210 C 
ENDBRANCH  10  23
BRANCH   7  25
HETATM   25  N3  UNL     1      26.093   0.540  53.120  1.00  0.00    -0.338 N 
HETATM   26  H10 UNL     1      26.212   1.399  52.543  1.00  0.00     0.167 HD
BRANCH  25  27
HETATM   27  C11 UNL     1      27.354  -0.101  53.250  1.00  0.00     0.064 A 
HETATM   28  C12 UNL     1      27.543  -1.385  52.985  1.00  0.00     0.108 A 
HETATM   29  N4  UNL     1      27.850  -2.763  52.724  1.00  0.00    -0.246 NA
HETATM   30  C13 UNL     1      28.840  -2.034  53.121  1.00  0.00     0.069 A 
HETATM   31  C14 UNL     1      30.022  -1.289  53.564  1.00  0.00     0.089 A 
HETATM   32  C15 UNL     1      29.699   0.137  53.833  1.00  0.00    -0.018 A 
HETATM   33  C16 UNL     1      28.518   0.679  53.698  1.00  0.00     0.028 A 
ENDBRANCH  25  27
ENDBRANCH   7  25
TORSDOF 6
ENDMDL
MODEL 6
REMARK VINA RESULT:      -8.6      2.203      3.957
REMARK  6 active torsions:
REMARK  status: ('A' for Active; 'I' for Inactive)
REMARK    1  A    between atoms: C4_4  and  C5_5 
REMARK    2  A    between atoms: C5_5  and  O1_6 
REMARK    3  A    between atoms: O1_6  and  C6_7 
REMARK    4  A    between atoms: C10_13  and  N3_14 
REMARK    5  A    between atoms: N3_14  and  C11_15 
REMARK    6  A    between atoms: C19_24  and  O2_25 
ROOT
HETATM    1  C6  UNL     1      21.443   0.969  50.608  1.00  0.00     0.104 A 
HETATM    2  C7  UNL     1      22.152   1.759  49.710  1.00  0.00     0.072 A 
HETATM    3  C8  UNL     1      23.353   2.338  50.088  1.00  0.00     0.075 A 
HETATM    4  N1  UNL     1      24.047   3.103  49.227  1.00  0.00    -0.241 NA
HETATM    5  C9  UNL     1      25.205   3.643  49.640  1.00  0.00     0.236 A 
HETATM    6  N2  UNL     1      25.681   3.429  50.902  1.00  0.00    -0.224 NA
HETATM    7  C10 UNL     1      24.990   2.666  51.765  1.00  0.00     0.142 A 
HETATM    8  C17 UNL     1      23.800   2.096  51.379  1.00  0.00     0.042 A 
HETATM    9  C18 UNL     1      23.093   1.315  52.260  1.00  0.00     0.057 A 
HETATM   10  C19 UNL     1      21.894   0.736  51.882  1.00  0.00     0.102 A 
ENDROOT
BRANCH   1  11
HETATM   11  O1  UNL     1      20.228   0.394  50.196  1.00  0.00    -0.346 OA
BRANCH  11  12
HETATM   12  C5  UNL     1      19.025   1.108  50.217  1.00  0.00     0.217 C 
BRANCH  12  13
HETATM   13  C4  UNL     1      17.859   0.331  50.787  1.00  0.00     0.293 C 
HETATM   14  C3  UNL     1      16.600   1.087  50.853  1.00  0.00     0.038 C 
HETATM   15  C2  UNL     1      16.083   1.984  50.030  1.00  0.00    -0.004 C 
HETATM   16  N6  UNL     1      15.788   0.782  52.017  1.00  0.00    -0.385 N 
HETATM   17  C1  UNL     1      16.700   2.460  48.772  1.00  0.00     0.038 C 
HETATM   18  C22 UNL     1      15.877  -0.514  52.701  1.00  0.00     0.152 C 
HETATM   19  C23 UNL     1      14.836   1.742  52.569  1.00  0.00     0.149 C 
HETATM   20  C21 UNL     1      17.269  -1.096  52.539  1.00  0.00     0.290 C 
HETATM   21  N5  UNL     1      18.215  -0.027  52.173  1.00  0.00     0.097 N 
HETATM   22  H19 UNL     1      19.152  -0.480  52.169  1.00  0.00     0.317 HD
ENDBRANCH  12  13
ENDBRANCH  11  12
ENDBRANCH   1  11
BRANCH  10  23
HETATM   23  O2  UNL     1      21.164  -0.049  52.738  1.00  0.00    -0.353 OA
HETATM   24  C20 UNL     1      21.300   0.089  54.153  1.00  0.00     0.210 C 
ENDBRANCH  10  23
BRANCH   7  25
HETATM   25  N3  UNL     1      25.555   2.502  53.039  1.00  0.00    -0.338 N 
HETATM   26  H10 UNL     1      25.291   2.900  53.965  1.00  0.00     0.167 HD
BRANCH  25  27
HETATM   27  C11 UNL     1      26.689   1.663  53.207  1.00  0.00     0.064 A 
HETATM   28  C12 UNL     1      27.829   2.085  53.731  1.00  0.00     0.108 A 
HETATM   29  N4  UNL     1      29.104   2.445  54.286  1.00  0.00    -0.246 NA
HETATM   30  C13 UNL     1      28.987   1.217  53.900  1.00  0.00     0.069 A 
HETATM   31  C14 UNL     1      28.950  -0.190  53.493  1.00  0.00     0.089 A 
HETATM   32  C15 UNL     1      27.628  -0.558  52.920  1.00  0.00    -0.018 A 
HETATM   33  C16 UNL     1      26.614   0.255  52.787  1.00  0.00     0.028 A 
ENDBRANCH  25  27
ENDBRANCH   7  25
TORSDOF 6
ENDMDL
MODEL 7
REMARK VINA RESULT:      -8.6      3.374      5.178
REMARK  6 active torsions:
REMARK  status: ('A' for Active; 'I' for Inactive)
REMARK    1  A    between atoms: C4_4  and  C5_5 
REMARK    2  A    between atoms: C5_5  and  O1_6 
REMARK    3  A    between atoms: O1_6  and  C6_7 
REMARK    4  A    between atoms: C10_13  and  N3_14 
REMARK    5  A    between atoms: N3_14  and  C11_15 
REMARK    6  A    between atoms: C19_24  and  O2_25 
ROOT
HETATM    1  C6  UNL     1      22.332   1.213  51.590  1.00  0.00     0.104 A 
HETATM    2  C7  UNL     1      23.125   2.001  50.763  1.00  0.00     0.072 A 
HETATM    3  C8  UNL     1      24.460   2.209  51.072  1.00  0.00     0.075 A 
HETATM    4  N1  UNL     1      25.237   2.968  50.278  1.00  0.00    -0.241 NA
HETATM    5  C9  UNL     1      26.524   3.141  50.619  1.00  0.00     0.236 A 
HETATM    6  N2  UNL     1      27.049   2.565  51.741  1.00  0.00    -0.224 NA
HETATM    7  C10 UNL     1      26.276   1.807  52.536  1.00  0.00     0.142 A 
HETATM    8  C17 UNL     1      24.953   1.607  52.220  1.00  0.00     0.042 A 
HETATM    9  C18 UNL     1      24.160   0.831  53.031  1.00  0.00     0.057 A 
HETATM   10  C19 UNL     1      22.828   0.622  52.724  1.00  0.00     0.102 A 
ENDROOT
BRANCH   1  11
HETATM   11  O1  UNL     1      20.981   1.019  51.251  1.00  0.00    -0.346 OA
BRANCH  11  12
HETATM   12  C5  UNL     1      20.525   1.119  49.933  1.00  0.00     0.217 C 
BRANCH  12  13
HETATM   13  C4  UNL     1      19.420   2.134  49.740  1.00  0.00     0.293 C 
HETATM   14  C3  UNL     1      19.862   3.413  49.167  1.00  0.00     0.038 C 
HETATM   15  C2  UNL     1      20.779   3.683  48.253  1.00  0.00    -0.004 C 
HETATM   16  N6  UNL     1      19.160   4.570  49.692  1.00  0.00    -0.385 N 
HETATM   17  C1  UNL     1      21.623   2.688  47.554  1.00  0.00     0.038 C 
HETATM   18  C22 UNL     1      17.800   4.465  50.235  1.00  0.00     0.152 C 
HETATM   19  C23 UNL     1      19.763   5.899  49.706  1.00  0.00     0.149 C 
HETATM   20  C21 UNL     1      17.572   3.079  50.809  1.00  0.00     0.290 C 
HETATM   21  N5  UNL     1      18.868   2.432  51.075  1.00  0.00     0.097 N 
HETATM   22  H19 UNL     1      18.634   1.533  51.546  1.00  0.00     0.317 HD
ENDBRANCH  12  13
ENDBRANCH  11  12
ENDBRANCH   1  11
BRANCH  10  23
HETATM   23  O2  UNL     1      22.011  -0.147  53.513  1.00  0.00    -0.353 OA
HETATM   24  C20 UNL     1      22.543  -0.890  54.609  1.00  0.00     0.210 C 
ENDBRANCH  10  23
BRANCH   7  25
HETATM   25  N3  UNL     1      26.897   1.256  53.667  1.00  0.00    -0.338 N 
HETATM   26  H10 UNL     1      26.840   1.510  54.676  1.00  0.00     0.167 HD
BRANCH  25  27
HETATM   27  C11 UNL     1      27.781   0.154  53.522  1.00  0.00     0.064 A 
HETATM   28  C12 UNL     1      27.382  -1.048  53.135  1.00  0.00     0.108 A 
HETATM   29  N4  UNL     1      27.050  -2.383  52.723  1.00  0.00    -0.246 NA
HETATM   30  C13 UNL     1      28.297  -2.172  52.988  1.00  0.00     0.069 A 
HETATM   31  C14 UNL     1      29.729  -2.030  53.266  1.00  0.00     0.089 A 
HETATM   32  C15 UNL     1      30.068  -0.646  53.691  1.00  0.00    -0.018 A 
HETATM   33  C16 UNL     1      29.213   0.335  53.809  1.00  0.00     0.028 A 
ENDBRANCH  25  27
ENDBRANCH   7  25
TORSDOF 6
ENDMDL
MODEL 8
REMARK VINA RESULT:      -8.6      2.217      3.467
REMARK  6 active torsions:
REMARK  status: ('A' for Active; 'I' for Inactive)
REMARK    1  A    between atoms: C4_4  and  C5_5 
REMARK    2  A    between atoms: C5_5  and  O1_6 
REMARK    3  A    between atoms: O1_6  and  C6_7 
REMARK    4  A    between atoms: C10_13  and  N3_14 
REMARK    5  A    between atoms: N3_14  and  C11_15 
REMARK    6  A    between atoms: C19_24  and  O2_25 
ROOT
HETATM    1  C6  UNL     1      21.884   0.501  51.632  1.00  0.00     0.104 A 
HETATM    2  C7  UNL     1      22.532   1.441  50.838  1.00  0.00     0.072 A 
HETATM    3  C8  UNL     1      23.807   1.872  51.169  1.00  0.00     0.075 A 
HETATM    4  N1  UNL     1      24.443   2.780  50.408  1.00  0.00    -0.241 NA
HETATM    5  C9  UNL     1      25.677   3.166  50.770  1.00  0.00     0.236 A 
HETATM    6  N2  UNL     1      26.287   2.658  51.881  1.00  0.00    -0.224 NA
HETATM    7  C10 UNL     1      25.655   1.751  52.643  1.00  0.00     0.142 A 
HETATM    8  C17 UNL     1      24.390   1.331  52.306  1.00  0.00     0.042 A 
HETATM    9  C18 UNL     1      23.741   0.402  53.084  1.00  0.00     0.057 A 
HETATM   10  C19 UNL     1      22.469  -0.029  52.754  1.00  0.00     0.102 A 
ENDROOT
BRANCH   1  11
HETATM   11  O1  UNL     1      20.591   0.082  51.272  1.00  0.00    -0.346 OA
BRANCH  11  12
HETATM   12  C5  UNL     1      19.465   0.414  52.033  1.00  0.00     0.217 C 
BRANCH  12  13
HETATM   13  C4  UNL     1      18.324   0.989  51.224  1.00  0.00     0.293 C 
HETATM   14  C3  UNL     1      17.237   0.040  50.946  1.00  0.00     0.038 C 
HETATM   15  C2  UNL     1      16.719  -0.926  51.687  1.00  0.00    -0.004 C 
HETATM   16  N6  UNL     1      16.627   0.205  49.639  1.00  0.00    -0.385 N 
HETATM   17  C1  UNL     1      17.148  -1.292  53.055  1.00  0.00     0.038 C 
HETATM   18  C22 UNL     1      16.641   1.495  48.940  1.00  0.00     0.152 C 
HETATM   19  C23 UNL     1      15.964  -0.899  48.950  1.00  0.00     0.149 C 
HETATM   20  C21 UNL     1      17.866   2.295  49.343  1.00  0.00     0.290 C 
HETATM   21  N5  UNL     1      18.880   1.395  49.919  1.00  0.00     0.097 N 
HETATM   22  H19 UNL     1      19.715   1.994  50.086  1.00  0.00     0.317 HD
ENDBRANCH  12  13
ENDBRANCH  11  12
ENDBRANCH   1  11
BRANCH  10  23
HETATM   23  O2  UNL     1      21.795  -0.954  53.510  1.00  0.00    -0.353 OA
HETATM   24  C20 UNL     1      21.625  -0.765  54.915  1.00  0.00     0.210 C 
ENDBRANCH  10  23
BRANCH   7  25
HETATM   25  N3  UNL     1      26.356   1.284  53.765  1.00  0.00    -0.338 N 
HETATM   26  H10 UNL     1      26.237   1.479  54.781  1.00  0.00     0.167 HD
BRANCH  25  27
HETATM   27  C11 UNL     1      27.438   0.380  53.596  1.00  0.00     0.064 A 
HETATM   28  C12 UNL     1      27.276  -0.885  53.242  1.00  0.00     0.108 A 
HETATM   29  N4  UNL     1      27.206  -2.268  52.861  1.00  0.00    -0.246 NA
HETATM   30  C13 UNL     1      28.393  -1.805  53.070  1.00  0.00     0.069 A 
HETATM   31  C14 UNL     1      29.777  -1.371  53.286  1.00  0.00     0.089 A 
HETATM   32  C15 UNL     1      29.844   0.061  53.679  1.00  0.00    -0.018 A 
HETATM   33  C16 UNL     1      28.814   0.852  53.821  1.00  0.00     0.028 A 
ENDBRANCH  25  27
ENDBRANCH   7  25
TORSDOF 6
ENDMDL
MODEL 9
REMARK VINA RESULT:      -8.4      7.821     11.900
REMARK  6 active torsions:
REMARK  status: ('A' for Active; 'I' for Inactive)
REMARK    1  A    between atoms: C4_4  and  C5_5 
REMARK    2  A    between atoms: C5_5  and  O1_6 
REMARK    3  A    between atoms: O1_6  and  C6_7 
REMARK    4  A    between atoms: C10_13  and  N3_14 
REMARK    5  A    between atoms: N3_14  and  C11_15 
REMARK    6  A    between atoms: C19_24  and  O2_25 
ROOT
HETATM    1  C6  UNL     1      26.822   6.656  48.606  1.00  0.00     0.104 A 
HETATM    2  C7  UNL     1      25.649   6.635  49.354  1.00  0.00     0.072 A 
HETATM    3  C8  UNL     1      25.284   5.490  50.043  1.00  0.00     0.075 A 
HETATM    4  N1  UNL     1      24.152   5.458  50.770  1.00  0.00    -0.241 NA
HETATM    5  C9  UNL     1      23.840   4.326  51.420  1.00  0.00     0.236 A 
HETATM    6  N2  UNL     1      24.643   3.223  51.357  1.00  0.00    -0.224 NA
HETATM    7  C10 UNL     1      25.774   3.250  50.632  1.00  0.00     0.142 A 
HETATM    8  C17 UNL     1      26.127   4.392  49.952  1.00  0.00     0.042 A 
HETATM    9  C18 UNL     1      27.283   4.422  49.211  1.00  0.00     0.057 A 
HETATM   10  C19 UNL     1      27.649   5.565  48.523  1.00  0.00     0.102 A 
ENDROOT
BRANCH   1  11
HETATM   11  O1  UNL     1      27.167   7.832  47.917  1.00  0.00    -0.346 OA
BRANCH  11  12
HETATM   12  C5  UNL     1      26.814   9.100  48.391  1.00  0.00     0.217 C 
BRANCH  12  13
HETATM   13  C4  UNL     1      27.976   9.895  48.946  1.00  0.00     0.293 C 
HETATM   14  C3  UNL     1      28.102  11.251  48.395  1.00  0.00     0.038 C 
HETATM   15  C2  UNL     1      27.181  12.133  48.044  1.00  0.00    -0.004 C 
HETATM   16  N6  UNL     1      29.474  11.693  48.221  1.00  0.00    -0.385 N 
HETATM   17  C1  UNL     1      25.717  11.938  48.133  1.00  0.00     0.038 C 
HETATM   18  C22 UNL     1      30.567  11.152  49.036  1.00  0.00     0.152 C 
HETATM   19  C23 UNL     1      29.841  12.702  47.231  1.00  0.00     0.149 C 
HETATM   20  C21 UNL     1      30.247   9.731  49.463  1.00  0.00     0.290 C 
HETATM   21  N5  UNL     1      29.208   9.170  48.582  1.00  0.00     0.097 N 
HETATM   22  H19 UNL     1      29.108   8.176  48.875  1.00  0.00     0.317 HD
ENDBRANCH  12  13
ENDBRANCH  11  12
ENDBRANCH   1  11
BRANCH  10  23
HETATM   23  O2  UNL     1      28.797   5.628  47.774  1.00  0.00    -0.353 OA
HETATM   24  C20 UNL     1      30.071   5.776  48.401  1.00  0.00     0.210 C 
ENDBRANCH  10  23
BRANCH   7  25
HETATM   25  N3  UNL     1      26.536   2.072  50.624  1.00  0.00    -0.338 N 
HETATM   26  H10 UNL     1      26.928   1.512  49.838  1.00  0.00     0.167 HD
BRANCH  25  27
HETATM   27  C11 UNL     1      26.892   1.452  51.851  1.00  0.00     0.064 A 
HETATM   28  C12 UNL     1      27.604   2.057  52.789  1.00  0.00     0.108 A 
HETATM   29  N4  UNL     1      28.368   2.625  53.863  1.00  0.00    -0.246 NA
HETATM   30  C13 UNL     1      27.964   1.412  54.045  1.00  0.00     0.069 A 
HETATM   31  C14 UNL     1      27.550   0.037  54.340  1.00  0.00     0.089 A 
HETATM   32  C15 UNL     1      26.759  -0.546  53.225  1.00  0.00    -0.018 A 
HETATM   33  C16 UNL     1      26.458   0.070  52.113  1.00  0.00     0.028 A 
ENDBRANCH  25  27
ENDBRANCH   7  25
TORSDOF 6
ENDMDL
