MODEL 1
REMARK VINA RESULT:      -8.5      0.000      0.000
REMARK  0 active torsions:
REMARK  status: ('A' for Active; 'I' for Inactive)
ROOT
HETATM    1  F1  UNL     1      21.886  -0.962  55.281  1.00  0.00    -0.205 F 
HETATM    2  C1  UNL     1      21.469  -0.284  54.193  1.00  0.00     0.135 A 
HETATM    3  C2  UNL     1      20.266   0.296  53.871  1.00  0.00     0.053 A 
HETATM    4  C3  UNL     1      20.261   0.868  52.631  1.00  0.00    -0.031 A 
HETATM    5  C4  UNL     1      21.237   0.959  51.659  1.00  0.00     0.011 A 
HETATM    6  C5  UNL     1      22.468   0.396  51.921  1.00  0.00     0.024 A 
HETATM    7  C6  UNL     1      22.351  -0.133  53.180  1.00  0.00     0.056 A 
HETATM    8  C7  UNL     1      23.692  -0.421  53.282  1.00  0.00    -0.063 C 
HETATM    9  C8  UNL     1      24.811  -0.640  53.367  1.00  0.00    -0.090 C 
HETATM   10  C9  UNL     1      26.220  -0.890  53.469  1.00  0.00     0.172 C 
HETATM   11  S1  UNL     1      26.974   0.515  54.402  1.00  0.00    -0.128 SA
HETATM   12  C10 UNL     1      26.645   2.039  53.467  1.00  0.00     0.062 C 
HETATM   13  C11 UNL     1      25.403   2.500  53.733  1.00  0.00     0.094 C 
HETATM   14  N1  UNL     1      24.608   3.605  53.322  1.00  0.00    -0.375 N 
HETATM   15  C12 UNL     1      23.855   4.224  52.299  1.00  0.00     0.087 C 
HETATM   16  C13 UNL     1      22.558   4.035  52.135  1.00  0.00     0.019 C 
HETATM   17  C14 UNL     1      21.265   4.218  51.499  1.00  0.00     0.025 C 
HETATM   18  C15 UNL     1      19.957   3.913  51.469  1.00  0.00     0.135 C 
HETATM   19  O1  UNL     1      19.522   3.043  52.422  1.00  0.00    -0.359 OA
HETATM   20  C16 UNL     1      19.074   1.699  52.171  1.00  0.00     0.213 C 
HETATM   21  H8  UNL     1      24.387   4.434  53.955  1.00  0.00     0.164 HD
ENDROOT
TORSDOF 0
ENDMDL
MODEL 2
REMARK VINA RESULT:      -7.8      3.067      5.218
REMARK  0 active torsions:
REMARK  status: ('A' for Active; 'I' for Inactive)
ROOT
HETATM    1  F1  UNL     1      27.696   2.486  54.078  1.00  0.00    -0.205 F 
HETATM    2  C1  UNL     1      26.864   1.426  54.012  1.00  0.00     0.135 A 
HETATM    3  C2  UNL     1      26.448   0.521  54.958  1.00  0.00     0.053 A 
HETATM    4  C3  UNL     1      25.609  -0.433  54.454  1.00  0.00    -0.031 A 
HETATM    5  C4  UNL     1      25.120  -0.643  53.180  1.00  0.00     0.011 A 
HETATM    6  C5  UNL     1      25.502   0.232  52.186  1.00  0.00     0.024 A 
HETATM    7  C6  UNL     1      26.324   1.133  52.809  1.00  0.00     0.056 A 
HETATM    8  C7  UNL     1      26.387   1.969  51.717  1.00  0.00    -0.063 C 
HETATM    9  C8  UNL     1      26.417   2.667  50.812  1.00  0.00    -0.090 C 
HETATM   10  C9  UNL     1      26.431   3.546  49.678  1.00  0.00     0.172 C 
HETATM   11  S1  UNL     1      25.175   4.868  49.976  1.00  0.00    -0.128 SA
HETATM   12  C10 UNL     1      23.557   4.061  50.161  1.00  0.00     0.062 C 
HETATM   13  C11 UNL     1      23.399   3.597  51.421  1.00  0.00     0.094 C 
HETATM   14  N1  UNL     1      22.387   2.904  52.140  1.00  0.00    -0.375 N 
HETATM   15  C12 UNL     1      21.687   1.696  52.361  1.00  0.00     0.087 C 
HETATM   16  C13 UNL     1      22.059   0.793  53.249  1.00  0.00     0.019 C 
HETATM   17  C14 UNL     1      21.963  -0.456  53.985  1.00  0.00     0.025 C 
HETATM   18  C15 UNL     1      22.479  -1.268  54.923  1.00  0.00     0.135 C 
HETATM   19  O1  UNL     1      23.612  -0.831  55.537  1.00  0.00    -0.359 OA
HETATM   20  C16 UNL     1      24.916  -1.418  55.381  1.00  0.00     0.213 C 
HETATM   21  H8  UNL     1      21.784   3.364  52.889  1.00  0.00     0.164 HD
ENDROOT
TORSDOF 0
ENDMDL
MODEL 3
REMARK VINA RESULT:      -7.7      3.822      5.360
REMARK  0 active torsions:
REMARK  status: ('A' for Active; 'I' for Inactive)
ROOT
HETATM    1  F1  UNL     1      27.163   2.873  51.570  1.00  0.00    -0.205 F 
HETATM    2  C1  UNL     1      25.871   2.587  51.305  1.00  0.00     0.135 A 
HETATM    3  C2  UNL     1      24.979   1.721  51.890  1.00  0.00     0.053 A 
HETATM    4  C3  UNL     1      23.756   1.720  51.282  1.00  0.00    -0.031 A 
HETATM    5  C4  UNL     1      23.271   2.423  50.197  1.00  0.00     0.011 A 
HETATM    6  C5  UNL     1      24.118   3.309  49.566  1.00  0.00     0.024 A 
HETATM    7  C6  UNL     1      25.295   3.225  50.263  1.00  0.00     0.056 A 
HETATM    8  C7  UNL     1      25.862   4.296  49.611  1.00  0.00    -0.063 C 
HETATM    9  C8  UNL     1      26.319   5.199  49.078  1.00  0.00    -0.090 C 
HETATM   10  C9  UNL     1      26.873   6.346  48.418  1.00  0.00     0.172 C 
HETATM   11  S1  UNL     1      26.616   7.807  49.519  1.00  0.00    -0.128 SA
HETATM   12  C10 UNL     1      24.826   7.998  49.774  1.00  0.00     0.062 C 
HETATM   13  C11 UNL     1      24.393   7.163  50.745  1.00  0.00     0.094 C 
HETATM   14  N1  UNL     1      23.148   6.867  51.365  1.00  0.00    -0.375 N 
HETATM   15  C12 UNL     1      21.870   6.273  51.262  1.00  0.00     0.087 C 
HETATM   16  C13 UNL     1      21.621   5.021  51.597  1.00  0.00     0.019 C 
HETATM   17  C14 UNL     1      20.794   3.840  51.781  1.00  0.00     0.025 C 
HETATM   18  C15 UNL     1      20.715   2.553  52.160  1.00  0.00     0.135 C 
HETATM   19  O1  UNL     1      21.873   1.981  52.588  1.00  0.00    -0.359 OA
HETATM   20  C16 UNL     1      22.594   0.951  51.889  1.00  0.00     0.213 C 
HETATM   21  H8  UNL     1      22.906   7.161  52.361  1.00  0.00     0.164 HD
ENDROOT
TORSDOF 0
ENDMDL
MODEL 4
REMARK VINA RESULT:      -7.6      3.407      5.381
REMARK  0 active torsions:
REMARK  status: ('A' for Active; 'I' for Inactive)
ROOT
HETATM    1  F1  UNL     1      23.963  -1.284  53.385  1.00  0.00    -0.205 F 
HETATM    2  C1  UNL     1      24.469  -0.073  53.079  1.00  0.00     0.135 A 
HETATM    3  C2  UNL     1      25.745   0.348  52.789  1.00  0.00     0.053 A 
HETATM    4  C3  UNL     1      25.827   1.692  52.561  1.00  0.00    -0.031 A 
HETATM    5  C4  UNL     1      24.869   2.686  52.576  1.00  0.00     0.011 A 
HETATM    6  C5  UNL     1      23.568   2.327  52.861  1.00  0.00     0.024 A 
HETATM    7  C6  UNL     1      23.613   0.973  53.061  1.00  0.00     0.056 A 
HETATM    8  C7  UNL     1      22.244   0.842  53.108  1.00  0.00    -0.063 C 
HETATM    9  C8  UNL     1      21.105   0.740  53.126  1.00  0.00    -0.090 C 
HETATM   10  C9  UNL     1      19.675   0.622  53.126  1.00  0.00     0.172 C 
HETATM   11  S1  UNL     1      19.154   0.101  51.431  1.00  0.00    -0.128 SA
HETATM   12  C10 UNL     1      19.706   1.382  50.266  1.00  0.00     0.062 C 
HETATM   13  C11 UNL     1      21.007   1.203  49.945  1.00  0.00     0.094 C 
HETATM   14  N1  UNL     1      21.959   1.857  49.115  1.00  0.00    -0.375 N 
HETATM   15  C12 UNL     1      22.789   2.980  48.900  1.00  0.00     0.087 C 
HETATM   16  C13 UNL     1      24.040   3.050  49.318  1.00  0.00     0.019 C 
HETATM   17  C14 UNL     1      25.340   3.671  49.501  1.00  0.00     0.025 C 
HETATM   18  C15 UNL     1      26.586   3.580  49.997  1.00  0.00     0.135 C 
HETATM   19  O1  UNL     1      26.890   2.425  50.649  1.00  0.00    -0.359 OA
HETATM   20  C16 UNL     1      27.124   2.311  52.064  1.00  0.00     0.213 C 
HETATM   21  H8  UNL     1      22.310   1.449  48.195  1.00  0.00     0.164 HD
ENDROOT
TORSDOF 0
ENDMDL
MODEL 5
REMARK VINA RESULT:      -7.4      3.706      6.221
REMARK  0 active torsions:
REMARK  status: ('A' for Active; 'I' for Inactive)
ROOT
HETATM    1  F1  UNL     1      19.459   3.695  51.490  1.00  0.00    -0.205 F 
HETATM    2  C1  UNL     1      20.597   2.974  51.435  1.00  0.00     0.135 A 
HETATM    3  C2  UNL     1      21.905   3.291  51.711  1.00  0.00     0.053 A 
HETATM    4  C3  UNL     1      22.766   2.253  51.493  1.00  0.00    -0.031 A 
HETATM    5  C4  UNL     1      22.554   0.964  51.046  1.00  0.00     0.011 A 
HETATM    6  C5  UNL     1      21.262   0.584  50.752  1.00  0.00     0.024 A 
HETATM    7  C6  UNL     1      20.502   1.693  51.014  1.00  0.00     0.056 A 
HETATM    8  C7  UNL     1      19.309   1.024  50.861  1.00  0.00    -0.063 C 
HETATM    9  C8  UNL     1      18.323   0.456  50.751  1.00  0.00    -0.090 C 
HETATM   10  C9  UNL     1      17.093  -0.272  50.631  1.00  0.00     0.172 C 
HETATM   11  S1  UNL     1      16.547  -0.739  52.334  1.00  0.00    -0.128 SA
HETATM   12  C10 UNL     1      17.851  -1.771  53.067  1.00  0.00     0.062 C 
HETATM   13  C11 UNL     1      18.840  -0.999  53.572  1.00  0.00     0.094 C 
HETATM   14  N1  UNL     1      20.074  -1.220  54.242  1.00  0.00    -0.375 N 
HETATM   15  C12 UNL     1      21.415  -1.660  54.167  1.00  0.00     0.087 C 
HETATM   16  C13 UNL     1      22.429  -0.859  53.891  1.00  0.00     0.019 C 
HETATM   17  C14 UNL     1      23.823  -0.522  53.660  1.00  0.00     0.025 C 
HETATM   18  C15 UNL     1      24.732   0.422  53.362  1.00  0.00     0.135 C 
HETATM   19  O1  UNL     1      24.249   1.679  53.163  1.00  0.00    -0.359 OA
HETATM   20  C16 UNL     1      24.227   2.365  51.899  1.00  0.00     0.213 C 
HETATM   21  H8  UNL     1      20.223  -1.017  55.278  1.00  0.00     0.164 HD
ENDROOT
TORSDOF 0
ENDMDL
MODEL 6
REMARK VINA RESULT:      -7.4      3.438      6.066
REMARK  0 active torsions:
REMARK  status: ('A' for Active; 'I' for Inactive)
ROOT
HETATM    1  F1  UNL     1      22.225   4.368  52.345  1.00  0.00    -0.205 F 
HETATM    2  C1  UNL     1      23.171   3.413  52.459  1.00  0.00     0.135 A 
HETATM    3  C2  UNL     1      24.418   3.415  53.037  1.00  0.00     0.053 A 
HETATM    4  C3  UNL     1      25.073   2.224  52.902  1.00  0.00    -0.031 A 
HETATM    5  C4  UNL     1      24.708   1.041  52.291  1.00  0.00     0.011 A 
HETATM    6  C5  UNL     1      23.468   0.976  51.692  1.00  0.00     0.024 A 
HETATM    7  C6  UNL     1      22.913   2.211  51.899  1.00  0.00     0.056 A 
HETATM    8  C7  UNL     1      21.676   1.835  51.428  1.00  0.00    -0.063 C 
HETATM    9  C8  UNL     1      20.646   1.509  51.054  1.00  0.00    -0.090 C 
HETATM   10  C9  UNL     1      19.353   1.082  50.602  1.00  0.00     0.172 C 
HETATM   11  S1  UNL     1      18.347   0.659  52.093  1.00  0.00    -0.128 SA
HETATM   12  C10 UNL     1      19.207  -0.676  52.977  1.00  0.00     0.062 C 
HETATM   13  C11 UNL     1      20.190  -0.173  53.756  1.00  0.00     0.094 C 
HETATM   14  N1  UNL     1      21.165  -0.701  54.646  1.00  0.00    -0.375 N 
HETATM   15  C12 UNL     1      22.367  -1.425  54.814  1.00  0.00     0.087 C 
HETATM   16  C13 UNL     1      23.560  -0.858  54.843  1.00  0.00     0.019 C 
HETATM   17  C14 UNL     1      25.008  -0.829  54.948  1.00  0.00     0.025 C 
HETATM   18  C15 UNL     1      26.136  -0.098  54.949  1.00  0.00     0.135 C 
HETATM   19  O1  UNL     1      25.981   1.243  54.782  1.00  0.00    -0.359 OA
HETATM   20  C16 UNL     1      26.392   1.984  53.619  1.00  0.00     0.213 C 
HETATM   21  H8  UNL     1      21.110  -0.592  55.706  1.00  0.00     0.164 HD
ENDROOT
TORSDOF 0
ENDMDL
MODEL 7
REMARK VINA RESULT:      -7.3      2.439      4.129
REMARK  0 active torsions:
REMARK  status: ('A' for Active; 'I' for Inactive)
ROOT
HETATM    1  F1  UNL     1      25.744   2.864  49.332  1.00  0.00    -0.205 F 
HETATM    2  C1  UNL     1      24.680   3.192  50.094  1.00  0.00     0.135 A 
HETATM    3  C2  UNL     1      23.410   3.607  49.775  1.00  0.00     0.053 A 
HETATM    4  C3  UNL     1      22.639   3.866  50.872  1.00  0.00    -0.031 A 
HETATM    5  C4  UNL     1      22.912   3.790  52.223  1.00  0.00     0.011 A 
HETATM    6  C5  UNL     1      24.171   3.380  52.609  1.00  0.00     0.024 A 
HETATM    7  C6  UNL     1      24.838   3.146  51.435  1.00  0.00     0.056 A 
HETATM    8  C7  UNL     1      25.924   2.575  52.060  1.00  0.00    -0.063 C 
HETATM    9  C8  UNL     1      26.812   2.085  52.586  1.00  0.00    -0.090 C 
HETATM   10  C9  UNL     1      27.912   1.452  53.255  1.00  0.00     0.172 C 
HETATM   11  S1  UNL     1      27.645  -0.374  53.174  1.00  0.00    -0.128 SA
HETATM   12  C10 UNL     1      26.072  -0.739  54.009  1.00  0.00     0.062 C 
HETATM   13  C11 UNL     1      25.031  -0.527  53.172  1.00  0.00     0.094 C 
HETATM   14  N1  UNL     1      23.615  -0.636  53.248  1.00  0.00    -0.375 N 
HETATM   15  C12 UNL     1      22.400  -0.123  53.756  1.00  0.00     0.087 C 
HETATM   16  C13 UNL     1      21.670   0.777  53.123  1.00  0.00     0.019 C 
HETATM   17  C14 UNL     1      20.538   1.668  52.938  1.00  0.00     0.025 C 
HETATM   18  C15 UNL     1      19.922   2.583  52.169  1.00  0.00     0.135 C 
HETATM   19  O1  UNL     1      20.547   2.905  51.004  1.00  0.00    -0.359 OA
HETATM   20  C16 UNL     1      21.159   4.175  50.718  1.00  0.00     0.213 C 
HETATM   21  H8  UNL     1      23.060  -1.402  52.758  1.00  0.00     0.164 HD
ENDROOT
TORSDOF 0
ENDMDL
MODEL 8
REMARK VINA RESULT:      -7.2      3.364      5.467
REMARK  0 active torsions:
REMARK  status: ('A' for Active; 'I' for Inactive)
ROOT
HETATM    1  F1  UNL     1      20.906   0.417  51.371  1.00  0.00    -0.205 F 
HETATM    2  C1  UNL     1      22.046   0.563  52.077  1.00  0.00     0.135 A 
HETATM    3  C2  UNL     1      22.897  -0.349  52.653  1.00  0.00     0.053 A 
HETATM    4  C3  UNL     1      23.941   0.234  53.314  1.00  0.00    -0.031 A 
HETATM    5  C4  UNL     1      24.279   1.559  53.505  1.00  0.00     0.011 A 
HETATM    6  C5  UNL     1      23.464   2.523  52.952  1.00  0.00     0.024 A 
HETATM    7  C6  UNL     1      22.472   1.822  52.319  1.00  0.00     0.056 A 
HETATM    8  C7  UNL     1      21.950   2.938  51.704  1.00  0.00    -0.063 C 
HETATM    9  C8  UNL     1      21.535   3.867  51.183  1.00  0.00    -0.090 C 
HETATM   10  C9  UNL     1      21.037   5.036  50.517  1.00  0.00     0.172 C 
HETATM   11  S1  UNL     1      21.757   5.065  48.816  1.00  0.00    -0.128 SA
HETATM   12  C10 UNL     1      23.566   5.127  48.983  1.00  0.00     0.062 C 
HETATM   13  C11 UNL     1      24.065   3.889  49.197  1.00  0.00     0.094 C 
HETATM   14  N1  UNL     1      25.354   3.322  49.398  1.00  0.00    -0.375 N 
HETATM   15  C12 UNL     1      26.468   3.152  50.250  1.00  0.00     0.087 C 
HETATM   16  C13 UNL     1      26.585   2.151  51.104  1.00  0.00     0.019 C 
HETATM   17  C14 UNL     1      27.235   1.363  52.136  1.00  0.00     0.025 C 
HETATM   18  C15 UNL     1      27.193   0.293  52.948  1.00  0.00     0.135 C 
HETATM   19  O1  UNL     1      26.082  -0.488  52.854  1.00  0.00    -0.359 OA
HETATM   20  C16 UNL     1      25.072  -0.615  53.870  1.00  0.00     0.213 C 
HETATM   21  H8  UNL     1      25.853   2.730  48.665  1.00  0.00     0.164 HD
ENDROOT
TORSDOF 0
ENDMDL
MODEL 9
REMARK VINA RESULT:      -7.0      8.339      9.955
REMARK  0 active torsions:
REMARK  status: ('A' for Active; 'I' for Inactive)
ROOT
HETATM    1  F1  UNL     1      27.913   4.465  49.154  1.00  0.00    -0.205 F 
HETATM    2  C1  UNL     1      27.540   5.641  48.608  1.00  0.00     0.135 A 
HETATM    3  C2  UNL     1      26.381   6.373  48.696  1.00  0.00     0.053 A 
HETATM    4  C3  UNL     1      26.410   7.515  47.947  1.00  0.00    -0.031 A 
HETATM    5  C4  UNL     1      27.384   8.048  47.126  1.00  0.00     0.011 A 
HETATM    6  C5  UNL     1      28.571   7.360  46.995  1.00  0.00     0.024 A 
HETATM    7  C6  UNL     1      28.424   6.253  47.788  1.00  0.00     0.056 A 
HETATM    8  C7  UNL     1      29.741   5.874  47.662  1.00  0.00    -0.063 C 
HETATM    9  C8  UNL     1      30.841   5.578  47.568  1.00  0.00    -0.090 C 
HETATM   10  C9  UNL     1      32.228   5.228  47.459  1.00  0.00     0.172 C 
HETATM   11  S1  UNL     1      33.091   5.877  48.957  1.00  0.00    -0.128 SA
HETATM   12  C10 UNL     1      32.870   7.681  48.983  1.00  0.00     0.062 C 
HETATM   13  C11 UNL     1      31.667   8.004  49.509  1.00  0.00     0.094 C 
HETATM   14  N1  UNL     1      30.955   9.205  49.780  1.00  0.00    -0.375 N 
HETATM   15  C12 UNL     1      30.243  10.316  49.273  1.00  0.00     0.087 C 
HETATM   16  C13 UNL     1      28.935  10.320  49.093  1.00  0.00     0.019 C 
HETATM   17  C14 UNL     1      27.655  10.889  48.709  1.00  0.00     0.025 C 
HETATM   18  C15 UNL     1      26.327  10.725  48.582  1.00  0.00     0.135 C 
HETATM   19  O1  UNL     1      25.835   9.510  48.951  1.00  0.00    -0.359 OA
HETATM   20  C16 UNL     1      25.286   8.533  48.049  1.00  0.00     0.213 C 
HETATM   21  H8  UNL     1      30.800   9.584  50.764  1.00  0.00     0.164 HD
ENDROOT
TORSDOF 0
ENDMDL
