MODEL 1
REMARK VINA RESULT:      -9.5      0.000      0.000
REMARK  6 active torsions:
REMARK  status: ('A' for Active; 'I' for Inactive)
REMARK    1  A    between atoms: C7_11  and  N3_12 
REMARK    2  A    between atoms: N3_12  and  C8_13 
REMARK    3  A    between atoms: N4_23  and  C17_24 
REMARK    4  A    between atoms: C17_24  and  C18_25 
REMARK    5  A    between atoms: C18_25  and  C19_26 
REMARK    6  A    between atoms: C19_26  and  N5_27 
ROOT
HETATM    1  O1  UNL     1      22.890  -1.780  55.651  1.00  0.00    -0.271 OA
HETATM    2  C1  UNL     1      22.293  -1.220  54.685  1.00  0.00     0.248 C 
HETATM    3  C2  UNL     1      20.959  -1.623  54.118  1.00  0.00     0.279 C 
HETATM    4  O2  UNL     1      20.167  -0.489  53.834  1.00  0.00    -0.340 OA
HETATM    5  C3  UNL     1      20.738   0.623  53.211  1.00  0.00     0.098 A 
HETATM    6  C4  UNL     1      19.977   1.532  52.482  1.00  0.00     0.071 A 
HETATM    7  C5  UNL     1      20.565   2.622  51.876  1.00  0.00     0.075 A 
HETATM    8  N1  UNL     1      19.823   3.497  51.170  1.00  0.00    -0.241 NA
HETATM    9  C6  UNL     1      20.448   4.561  50.585  1.00  0.00     0.236 A 
HETATM   10  N2  UNL     1      21.773   4.814  50.655  1.00  0.00    -0.224 NA
HETATM   11  C7  UNL     1      22.540   3.939  51.365  1.00  0.00     0.142 A 
HETATM   12  C14 UNL     1      21.927   2.840  51.975  1.00  0.00     0.041 A 
HETATM   13  C15 UNL     1      22.645   1.915  52.707  1.00  0.00     0.050 A 
HETATM   14  C16 UNL     1      22.109   0.811  53.332  1.00  0.00     0.071 A 
HETATM   15  N4  UNL     1      22.936  -0.105  54.076  1.00  0.00    -0.314 N 
ENDROOT
BRANCH  11  16
HETATM   16  N3  UNL     1      23.944   4.060  51.533  1.00  0.00    -0.340 N 
HETATM   17  H5  UNL     1      24.060   3.847  52.545  1.00  0.00     0.167 HD
BRANCH  16  18
HETATM   18  C8  UNL     1      24.968   4.375  50.631  1.00  0.00     0.033 A 
HETATM   19  C9  UNL     1      25.132   5.674  50.203  1.00  0.00     0.032 A 
HETATM   20  C10 UNL     1      26.161   5.890  49.322  1.00  0.00     0.044 A 
HETATM   21  C11 UNL     1      26.979   4.850  48.898  1.00  0.00     0.116 A 
HETATM   22  F1  UNL     1      27.991   5.132  48.015  1.00  0.00    -0.206 F 
HETATM   23  C12 UNL     1      26.792   3.538  49.348  1.00  0.00     0.044 A 
HETATM   24  C13 UNL     1      25.760   3.323  50.231  1.00  0.00     0.032 A 
ENDBRANCH  16  18
ENDBRANCH  11  16
BRANCH  15  25
HETATM   25  C17 UNL     1      24.335   0.155  54.151  1.00  0.00     0.134 C 
BRANCH  25  26
HETATM   26  C18 UNL     1      25.020  -0.653  53.069  1.00  0.00     0.050 C 
BRANCH  26  27
HETATM   27  C19 UNL     1      26.187   0.049  52.438  1.00  0.00     0.274 C 
BRANCH  27  28
HETATM   28  N5  UNL     1      27.055   0.621  53.463  1.00  0.00     0.092 N 
HETATM   29  C20 UNL     1      27.452   1.917  53.026  1.00  0.00     0.298 C 
HETATM   30  C21 UNL     1      28.678   2.479  53.658  1.00  0.00     0.198 C 
HETATM   31  O3  UNL     1      29.232   1.643  54.619  1.00  0.00    -0.388 OA
HETATM   32  C22 UNL     1      29.413   0.349  54.136  1.00  0.00     0.198 C 
HETATM   33  C23 UNL     1      28.088  -0.272  53.866  1.00  0.00     0.298 C 
ENDBRANCH  27  28
ENDBRANCH  26  27
ENDBRANCH  25  26
ENDBRANCH  15  25
TORSDOF 6
ENDMDL
MODEL 2
REMARK VINA RESULT:      -9.3      2.580      5.710
REMARK  6 active torsions:
REMARK  status: ('A' for Active; 'I' for Inactive)
REMARK    1  A    between atoms: C7_11  and  N3_12 
REMARK    2  A    between atoms: N3_12  and  C8_13 
REMARK    3  A    between atoms: N4_23  and  C17_24 
REMARK    4  A    between atoms: C17_24  and  C18_25 
REMARK    5  A    between atoms: C18_25  and  C19_26 
REMARK    6  A    between atoms: C19_26  and  N5_27 
ROOT
HETATM    1  O1  UNL     1      28.703   2.366  53.124  1.00  0.00    -0.271 OA
HETATM    2  C1  UNL     1      27.860   1.428  53.236  1.00  0.00     0.248 C 
HETATM    3  C2  UNL     1      28.146   0.039  53.740  1.00  0.00     0.279 C 
HETATM    4  O2  UNL     1      27.118  -0.408  54.598  1.00  0.00    -0.340 OA
HETATM    5  C3  UNL     1      25.781  -0.190  54.259  1.00  0.00     0.098 A 
HETATM    6  C4  UNL     1      24.753  -0.985  54.758  1.00  0.00     0.071 A 
HETATM    7  C5  UNL     1      23.441  -0.748  54.407  1.00  0.00     0.075 A 
HETATM    8  N1  UNL     1      22.451  -1.523  54.892  1.00  0.00    -0.241 NA
HETATM    9  C6  UNL     1      21.167  -1.254  54.516  1.00  0.00     0.236 A 
HETATM   10  N2  UNL     1      20.798  -0.257  53.681  1.00  0.00    -0.224 NA
HETATM   11  C7  UNL     1      21.785   0.537  53.180  1.00  0.00     0.142 A 
HETATM   12  C14 UNL     1      23.111   0.284  53.548  1.00  0.00     0.041 A 
HETATM   13  C15 UNL     1      24.160   1.049  53.076  1.00  0.00     0.050 A 
HETATM   14  C16 UNL     1      25.486   0.857  53.394  1.00  0.00     0.071 A 
HETATM   15  N4  UNL     1      26.518   1.705  52.852  1.00  0.00    -0.314 N 
ENDROOT
BRANCH  11  16
HETATM   16  N3  UNL     1      21.567   1.622  52.291  1.00  0.00    -0.340 N 
HETATM   17  H5  UNL     1      21.209   2.358  52.932  1.00  0.00     0.167 HD
BRANCH  16  18
HETATM   18  C8  UNL     1      21.758   1.748  50.909  1.00  0.00     0.033 A 
HETATM   19  C9  UNL     1      21.353   0.740  50.064  1.00  0.00     0.032 A 
HETATM   20  C10 UNL     1      21.579   0.951  48.727  1.00  0.00     0.044 A 
HETATM   21  C11 UNL     1      22.179   2.118  48.272  1.00  0.00     0.116 A 
HETATM   22  F1  UNL     1      22.376   2.269  46.922  1.00  0.00    -0.206 F 
HETATM   23  C12 UNL     1      22.581   3.129  49.151  1.00  0.00     0.044 A 
HETATM   24  C13 UNL     1      22.355   2.916  50.492  1.00  0.00     0.032 A 
ENDBRANCH  16  18
ENDBRANCH  11  16
BRANCH  15  25
HETATM   25  C17 UNL     1      26.135   2.756  51.969  1.00  0.00     0.134 C 
BRANCH  25  26
HETATM   26  C18 UNL     1      26.572   2.374  50.570  1.00  0.00     0.050 C 
BRANCH  26  27
HETATM   27  C19 UNL     1      26.044   3.286  49.502  1.00  0.00     0.274 C 
BRANCH  27  28
HETATM   28  N5  UNL     1      26.594   4.629  49.656  1.00  0.00     0.092 N 
HETATM   29  C20 UNL     1      25.504   5.542  49.730  1.00  0.00     0.298 C 
HETATM   30  C21 UNL     1      25.813   6.965  49.417  1.00  0.00     0.198 C 
HETATM   31  O3  UNL     1      27.154   7.184  49.129  1.00  0.00    -0.388 OA
HETATM   32  C22 UNL     1      27.626   6.298  48.162  1.00  0.00     0.198 C 
HETATM   33  C23 UNL     1      27.615   4.914  48.706  1.00  0.00     0.298 C 
ENDBRANCH  27  28
ENDBRANCH  26  27
ENDBRANCH  25  26
ENDBRANCH  15  25
TORSDOF 6
ENDMDL
MODEL 3
REMARK VINA RESULT:      -9.2      2.642      5.683
REMARK  6 active torsions:
REMARK  status: ('A' for Active; 'I' for Inactive)
REMARK    1  A    between atoms: C7_11  and  N3_12 
REMARK    2  A    between atoms: N3_12  and  C8_13 
REMARK    3  A    between atoms: N4_23  and  C17_24 
REMARK    4  A    between atoms: C17_24  and  C18_25 
REMARK    5  A    between atoms: C18_25  and  C19_26 
REMARK    6  A    between atoms: C19_26  and  N5_27 
ROOT
HETATM    1  O1  UNL     1      20.049   2.180  48.466  1.00  0.00    -0.271 OA
HETATM    2  C1  UNL     1      20.077   1.888  49.697  1.00  0.00     0.248 C 
HETATM    3  C2  UNL     1      18.889   1.827  50.619  1.00  0.00     0.279 C 
HETATM    4  O2  UNL     1      18.970   0.706  51.473  1.00  0.00    -0.340 OA
HETATM    5  C3  UNL     1      20.182   0.381  52.086  1.00  0.00     0.098 A 
HETATM    6  C4  UNL     1      20.239  -0.360  53.263  1.00  0.00     0.071 A 
HETATM    7  C5  UNL     1      21.449  -0.668  53.848  1.00  0.00     0.075 A 
HETATM    8  N1  UNL     1      21.497  -1.383  54.988  1.00  0.00    -0.241 NA
HETATM    9  C6  UNL     1      22.717  -1.662  55.533  1.00  0.00     0.236 A 
HETATM   10  N2  UNL     1      23.903  -1.274  55.015  1.00  0.00    -0.224 NA
HETATM   11  C7  UNL     1      23.875  -0.549  53.861  1.00  0.00     0.142 A 
HETATM   12  C14 UNL     1      22.638  -0.248  53.281  1.00  0.00     0.041 A 
HETATM   13  C15 UNL     1      22.538   0.484  52.113  1.00  0.00     0.050 A 
HETATM   14  C16 UNL     1      21.358   0.818  51.488  1.00  0.00     0.071 A 
HETATM   15  N4  UNL     1      21.346   1.588  50.269  1.00  0.00    -0.314 N 
ENDROOT
BRANCH  11  16
HETATM   16  N3  UNL     1      25.028  -0.064  53.192  1.00  0.00    -0.340 N 
HETATM   17  H5  UNL     1      24.616   0.595  52.501  1.00  0.00     0.167 HD
BRANCH  16  18
HETATM   18  C8  UNL     1      26.391  -0.347  53.357  1.00  0.00     0.033 A 
HETATM   19  C9  UNL     1      26.939  -1.460  52.760  1.00  0.00     0.032 A 
HETATM   20  C10 UNL     1      28.280  -1.655  52.975  1.00  0.00     0.044 A 
HETATM   21  C11 UNL     1      29.024  -0.773  53.748  1.00  0.00     0.116 A 
HETATM   22  F1  UNL     1      30.362  -1.025  53.925  1.00  0.00    -0.206 F 
HETATM   23  C12 UNL     1      28.443   0.352  54.344  1.00  0.00     0.044 A 
HETATM   24  C13 UNL     1      27.098   0.547  54.129  1.00  0.00     0.032 A 
ENDBRANCH  16  18
ENDBRANCH  11  16
BRANCH  15  25
HETATM   25  C17 UNL     1      22.594   2.003  49.720  1.00  0.00     0.134 C 
BRANCH  25  26
HETATM   26  C18 UNL     1      22.663   3.514  49.803  1.00  0.00     0.050 C 
BRANCH  26  27
HETATM   27  C19 UNL     1      23.220   4.023  51.100  1.00  0.00     0.274 C 
BRANCH  27  28
HETATM   28  N5  UNL     1      24.675   4.117  51.030  1.00  0.00     0.092 N 
HETATM   29  C20 UNL     1      25.023   4.526  49.710  1.00  0.00     0.298 C 
HETATM   30  C21 UNL     1      26.418   4.236  49.276  1.00  0.00     0.198 C 
HETATM   31  O3  UNL     1      27.184   3.629  50.264  1.00  0.00    -0.388 OA
HETATM   32  C22 UNL     1      26.541   2.519  50.808  1.00  0.00     0.198 C 
HETATM   33  C23 UNL     1      25.324   2.959  51.541  1.00  0.00     0.298 C 
ENDBRANCH  27  28
ENDBRANCH  26  27
ENDBRANCH  25  26
ENDBRANCH  15  25
TORSDOF 6
ENDMDL
MODEL 4
REMARK VINA RESULT:      -8.9      1.800      5.423
REMARK  6 active torsions:
REMARK  status: ('A' for Active; 'I' for Inactive)
REMARK    1  A    between atoms: C7_11  and  N3_12 
REMARK    2  A    between atoms: N3_12  and  C8_13 
REMARK    3  A    between atoms: N4_23  and  C17_24 
REMARK    4  A    between atoms: C17_24  and  C18_25 
REMARK    5  A    between atoms: C18_25  and  C19_26 
REMARK    6  A    between atoms: C19_26  and  N5_27 
ROOT
HETATM    1  O1  UNL     1      21.176  -1.986  53.701  1.00  0.00    -0.271 OA
HETATM    2  C1  UNL     1      22.154  -1.314  54.143  1.00  0.00     0.248 C 
HETATM    3  C2  UNL     1      22.690  -1.353  55.548  1.00  0.00     0.279 C 
HETATM    4  O2  UNL     1      24.102  -1.350  55.550  1.00  0.00    -0.340 OA
HETATM    5  C3  UNL     1      24.799  -0.492  54.698  1.00  0.00     0.098 A 
HETATM    6  C4  UNL     1      26.102  -0.083  54.968  1.00  0.00     0.071 A 
HETATM    7  C5  UNL     1      26.770   0.766  54.110  1.00  0.00     0.075 A 
HETATM    8  N1  UNL     1      28.030   1.161  54.378  1.00  0.00    -0.241 NA
HETATM    9  C6  UNL     1      28.651   2.003  53.502  1.00  0.00     0.236 A 
HETATM   10  N2  UNL     1      28.097   2.486  52.368  1.00  0.00    -0.224 NA
HETATM   11  C7  UNL     1      26.823   2.098  52.080  1.00  0.00     0.142 A 
HETATM   12  C14 UNL     1      26.162   1.235  52.960  1.00  0.00     0.041 A 
HETATM   13  C15 UNL     1      24.869   0.804  52.729  1.00  0.00     0.050 A 
HETATM   14  C16 UNL     1      24.158  -0.042  53.550  1.00  0.00     0.071 A 
HETATM   15  N4  UNL     1      22.810  -0.439  53.232  1.00  0.00    -0.314 N 
ENDROOT
BRANCH  11  16
HETATM   16  N3  UNL     1      26.099   2.515  50.932  1.00  0.00    -0.340 N 
HETATM   17  H5  UNL     1      25.565   1.656  50.690  1.00  0.00     0.167 HD
BRANCH  16  18
HETATM   18  C8  UNL     1      26.059   3.737  50.248  1.00  0.00     0.033 A 
HETATM   19  C9  UNL     1      25.038   4.628  50.491  1.00  0.00     0.032 A 
HETATM   20  C10 UNL     1      25.081   5.798  49.777  1.00  0.00     0.044 A 
HETATM   21  C11 UNL     1      26.100   6.053  48.869  1.00  0.00     0.116 A 
HETATM   22  F1  UNL     1      26.086   7.243  48.185  1.00  0.00    -0.206 F 
HETATM   23  C12 UNL     1      27.128   5.131  48.639  1.00  0.00     0.044 A 
HETATM   24  C13 UNL     1      27.083   3.957  49.356  1.00  0.00     0.032 A 
ENDBRANCH  16  18
ENDBRANCH  11  16
BRANCH  15  25
HETATM   25  C17 UNL     1      22.220   0.069  52.038  1.00  0.00     0.134 C 
BRANCH  25  26
HETATM   26  C18 UNL     1      21.210   1.128  52.428  1.00  0.00     0.050 C 
BRANCH  26  27
HETATM   27  C19 UNL     1      20.295   1.532  51.310  1.00  0.00     0.274 C 
BRANCH  27  28
HETATM   28  N5  UNL     1      20.308   2.981  51.136  1.00  0.00     0.092 N 
HETATM   29  C20 UNL     1      20.836   3.262  49.844  1.00  0.00     0.298 C 
HETATM   30  C21 UNL     1      21.374   4.635  49.635  1.00  0.00     0.198 C 
HETATM   31  O3  UNL     1      21.241   5.451  50.751  1.00  0.00    -0.388 OA
HETATM   32  C22 UNL     1      21.738   4.840  51.901  1.00  0.00     0.198 C 
HETATM   33  C23 UNL     1      20.899   3.658  52.239  1.00  0.00     0.298 C 
ENDBRANCH  27  28
ENDBRANCH  26  27
ENDBRANCH  25  26
ENDBRANCH  15  25
TORSDOF 6
ENDMDL
MODEL 5
REMARK VINA RESULT:      -8.8      3.246      6.429
REMARK  6 active torsions:
REMARK  status: ('A' for Active; 'I' for Inactive)
REMARK    1  A    between atoms: C7_11  and  N3_12 
REMARK    2  A    between atoms: N3_12  and  C8_13 
REMARK    3  A    between atoms: N4_23  and  C17_24 
REMARK    4  A    between atoms: C17_24  and  C18_25 
REMARK    5  A    between atoms: C18_25  and  C19_26 
REMARK    6  A    between atoms: C19_26  and  N5_27 
ROOT
HETATM    1  O1  UNL     1      20.492   2.245  48.428  1.00  0.00    -0.271 OA
HETATM    2  C1  UNL     1      20.468   1.934  49.654  1.00  0.00     0.248 C 
HETATM    3  C2  UNL     1      19.238   1.831  50.515  1.00  0.00     0.279 C 
HETATM    4  O2  UNL     1      19.304   0.699  51.357  1.00  0.00    -0.340 OA
HETATM    5  C3  UNL     1      20.493   0.393  52.022  1.00  0.00     0.098 A 
HETATM    6  C4  UNL     1      20.511  -0.365  53.190  1.00  0.00     0.071 A 
HETATM    7  C5  UNL     1      21.698  -0.654  53.829  1.00  0.00     0.075 A 
HETATM    8  N1  UNL     1      21.709  -1.385  54.960  1.00  0.00    -0.241 NA
HETATM    9  C6  UNL     1      22.907  -1.645  55.559  1.00  0.00     0.236 A 
HETATM   10  N2  UNL     1      24.107  -1.220  55.106  1.00  0.00    -0.224 NA
HETATM   11  C7  UNL     1      24.117  -0.479  53.963  1.00  0.00     0.142 A 
HETATM   12  C14 UNL     1      22.903  -0.197  53.327  1.00  0.00     0.041 A 
HETATM   13  C15 UNL     1      22.841   0.550  52.167  1.00  0.00     0.050 A 
HETATM   14  C16 UNL     1      21.685   0.867  51.489  1.00  0.00     0.071 A 
HETATM   15  N4  UNL     1      21.714   1.655  50.283  1.00  0.00    -0.314 N 
ENDROOT
BRANCH  11  16
HETATM   16  N3  UNL     1      25.289   0.044  53.358  1.00  0.00    -0.340 N 
HETATM   17  H5  UNL     1      24.897   0.724  52.676  1.00  0.00     0.167 HD
BRANCH  16  18
HETATM   18  C8  UNL     1      26.648  -0.229  53.565  1.00  0.00     0.033 A 
HETATM   19  C9  UNL     1      27.385   0.559  54.421  1.00  0.00     0.032 A 
HETATM   20  C10 UNL     1      28.705   0.216  54.564  1.00  0.00     0.044 A 
HETATM   21  C11 UNL     1      29.249  -0.865  53.881  1.00  0.00     0.116 A 
HETATM   22  F1  UNL     1      30.577  -1.156  54.067  1.00  0.00    -0.206 F 
HETATM   23  C12 UNL     1      28.479  -1.651  53.017  1.00  0.00     0.044 A 
HETATM   24  C13 UNL     1      27.154  -1.306  52.874  1.00  0.00     0.032 A 
ENDBRANCH  16  18
ENDBRANCH  11  16
BRANCH  15  25
HETATM   25  C17 UNL     1      22.977   2.108  49.802  1.00  0.00     0.134 C 
BRANCH  25  26
HETATM   26  C18 UNL     1      23.008   3.618  49.916  1.00  0.00     0.050 C 
BRANCH  26  27
HETATM   27  C19 UNL     1      23.448   4.113  51.262  1.00  0.00     0.274 C 
BRANCH  27  28
HETATM   28  N5  UNL     1      23.082   5.515  51.437  1.00  0.00     0.092 N 
HETATM   29  C20 UNL     1      21.878   5.746  50.711  1.00  0.00     0.298 C 
HETATM   30  C21 UNL     1      21.581   7.162  50.359  1.00  0.00     0.198 C 
HETATM   31  O3  UNL     1      22.532   8.056  50.835  1.00  0.00    -0.388 OA
HETATM   32  C22 UNL     1      23.825   7.668  50.489  1.00  0.00     0.198 C 
HETATM   33  C23 UNL     1      24.168   6.400  51.187  1.00  0.00     0.298 C 
ENDBRANCH  27  28
ENDBRANCH  26  27
ENDBRANCH  25  26
ENDBRANCH  15  25
TORSDOF 6
ENDMDL
MODEL 6
REMARK VINA RESULT:      -8.8      3.124      5.919
REMARK  6 active torsions:
REMARK  status: ('A' for Active; 'I' for Inactive)
REMARK    1  A    between atoms: C7_11  and  N3_12 
REMARK    2  A    between atoms: N3_12  and  C8_13 
REMARK    3  A    between atoms: N4_23  and  C17_24 
REMARK    4  A    between atoms: C17_24  and  C18_25 
REMARK    5  A    between atoms: C18_25  and  C19_26 
REMARK    6  A    between atoms: C19_26  and  N5_27 
ROOT
HETATM    1  O1  UNL     1      27.500   4.900  48.575  1.00  0.00    -0.271 OA
HETATM    2  C1  UNL     1      26.441   5.167  49.215  1.00  0.00     0.248 C 
HETATM    3  C2  UNL     1      25.923   6.544  49.530  1.00  0.00     0.279 C 
HETATM    4  O2  UNL     1      24.525   6.612  49.347  1.00  0.00    -0.340 OA
HETATM    5  C3  UNL     1      23.709   5.577  49.810  1.00  0.00     0.098 A 
HETATM    6  C4  UNL     1      22.363   5.775  50.107  1.00  0.00     0.071 A 
HETATM    7  C5  UNL     1      21.579   4.736  50.563  1.00  0.00     0.075 A 
HETATM    8  N1  UNL     1      20.278   4.934  50.850  1.00  0.00    -0.241 NA
HETATM    9  C6  UNL     1      19.541   3.878  51.301  1.00  0.00     0.236 A 
HETATM   10  N2  UNL     1      20.015   2.627  51.488  1.00  0.00    -0.224 NA
HETATM   11  C7  UNL     1      21.329   2.407  51.202  1.00  0.00     0.142 A 
HETATM   12  C14 UNL     1      22.109   3.471  50.739  1.00  0.00     0.041 A 
HETATM   13  C15 UNL     1      23.448   3.318  50.433  1.00  0.00     0.050 A 
HETATM   14  C16 UNL     1      24.275   4.319  49.974  1.00  0.00     0.071 A 
HETATM   15  N4  UNL     1      25.663   4.070  49.681  1.00  0.00    -0.314 N 
ENDROOT
BRANCH  11  16
HETATM   16  N3  UNL     1      21.981   1.155  51.346  1.00  0.00    -0.340 N 
HETATM   17  H5  UNL     1      22.274   0.949  50.369  1.00  0.00     0.167 HD
BRANCH  16  18
HETATM   18  C8  UNL     1      22.211   0.346  52.467  1.00  0.00     0.033 A 
HETATM   19  C9  UNL     1      21.159  -0.301  53.075  1.00  0.00     0.032 A 
HETATM   20  C10 UNL     1      21.478  -1.073  54.164  1.00  0.00     0.044 A 
HETATM   21  C11 UNL     1      22.789  -1.183  54.610  1.00  0.00     0.116 A 
HETATM   22  F1  UNL     1      23.043  -1.971  55.706  1.00  0.00    -0.206 F 
HETATM   23  C12 UNL     1      23.842  -0.516  53.974  1.00  0.00     0.044 A 
HETATM   24  C13 UNL     1      23.520   0.258  52.883  1.00  0.00     0.032 A 
ENDBRANCH  16  18
ENDBRANCH  11  16
BRANCH  15  25
HETATM   25  C17 UNL     1      26.170   2.753  49.879  1.00  0.00     0.134 C 
BRANCH  25  26
HETATM   26  C18 UNL     1      26.792   2.692  51.258  1.00  0.00     0.050 C 
BRANCH  26  27
HETATM   27  C19 UNL     1      26.768   1.323  51.873  1.00  0.00     0.274 C 
BRANCH  27  28
HETATM   28  N5  UNL     1      27.310   1.361  53.228  1.00  0.00     0.092 N 
HETATM   29  C20 UNL     1      28.412   2.263  53.233  1.00  0.00     0.298 C 
HETATM   30  C21 UNL     1      29.387   2.107  54.348  1.00  0.00     0.198 C 
HETATM   31  O3  UNL     1      29.038   1.104  55.244  1.00  0.00    -0.388 OA
HETATM   32  C22 UNL     1      28.758  -0.096  54.594  1.00  0.00     0.198 C 
HETATM   33  C23 UNL     1      27.533   0.062  53.764  1.00  0.00     0.298 C 
ENDBRANCH  27  28
ENDBRANCH  26  27
ENDBRANCH  25  26
ENDBRANCH  15  25
TORSDOF 6
ENDMDL
MODEL 7
REMARK VINA RESULT:      -8.4      1.977      5.517
REMARK  6 active torsions:
REMARK  status: ('A' for Active; 'I' for Inactive)
REMARK    1  A    between atoms: C7_11  and  N3_12 
REMARK    2  A    between atoms: N3_12  and  C8_13 
REMARK    3  A    between atoms: N4_23  and  C17_24 
REMARK    4  A    between atoms: C17_24  and  C18_25 
REMARK    5  A    between atoms: C18_25  and  C19_26 
REMARK    6  A    between atoms: C19_26  and  N5_27 
ROOT
HETATM    1  O1  UNL     1      19.556  -0.675  53.012  1.00  0.00    -0.271 OA
HETATM    2  C1  UNL     1      20.698  -0.401  53.484  1.00  0.00     0.248 C 
HETATM    3  C2  UNL     1      21.265  -0.916  54.779  1.00  0.00     0.279 C 
HETATM    4  O2  UNL     1      22.623  -1.272  54.629  1.00  0.00    -0.340 OA
HETATM    5  C3  UNL     1      23.490  -0.437  53.920  1.00  0.00     0.098 A 
HETATM    6  C4  UNL     1      24.865  -0.451  54.132  1.00  0.00     0.071 A 
HETATM    7  C5  UNL     1      25.700   0.384  53.418  1.00  0.00     0.075 A 
HETATM    8  N1  UNL     1      27.030   0.368  53.630  1.00  0.00    -0.241 NA
HETATM    9  C6  UNL     1      27.817   1.213  52.902  1.00  0.00     0.236 A 
HETATM   10  N2  UNL     1      27.366   2.081  51.971  1.00  0.00    -0.224 NA
HETATM   11  C7  UNL     1      26.023   2.112  51.742  1.00  0.00     0.142 A 
HETATM   12  C14 UNL     1      25.191   1.257  52.474  1.00  0.00     0.041 A 
HETATM   13  C15 UNL     1      23.822   1.238  52.294  1.00  0.00     0.050 A 
HETATM   14  C16 UNL     1      22.945   0.426  52.977  1.00  0.00     0.071 A 
HETATM   15  N4  UNL     1      21.526   0.474  52.726  1.00  0.00    -0.314 N 
ENDROOT
BRANCH  11  16
HETATM   16  N3  UNL     1      25.389   2.965  50.802  1.00  0.00    -0.340 N 
HETATM   17  H5  UNL     1      24.447   2.534  50.718  1.00  0.00     0.167 HD
BRANCH  16  18
HETATM   18  C8  UNL     1      25.842   4.104  50.123  1.00  0.00     0.033 A 
HETATM   19  C9  UNL     1      25.200   5.310  50.298  1.00  0.00     0.032 A 
HETATM   20  C10 UNL     1      25.714   6.370  49.595  1.00  0.00     0.044 A 
HETATM   21  C11 UNL     1      26.815   6.218  48.762  1.00  0.00     0.116 A 
HETATM   22  F1  UNL     1      27.281   7.319  48.086  1.00  0.00    -0.206 F 
HETATM   23  C12 UNL     1      27.451   4.982  48.601  1.00  0.00     0.044 A 
HETATM   24  C13 UNL     1      26.935   3.919  49.307  1.00  0.00     0.032 A 
ENDBRANCH  16  18
ENDBRANCH  11  16
BRANCH  15  25
HETATM   25  C17 UNL     1      21.044   1.390  51.746  1.00  0.00     0.134 C 
BRANCH  25  26
HETATM   26  C18 UNL     1      20.509   2.609  52.468  1.00  0.00     0.050 C 
BRANCH  26  27
HETATM   27  C19 UNL     1      19.819   3.591  51.567  1.00  0.00     0.274 C 
BRANCH  27  28
HETATM   28  N5  UNL     1      20.772   4.187  50.635  1.00  0.00     0.092 N 
HETATM   29  C20 UNL     1      21.208   5.425  51.189  1.00  0.00     0.298 C 
HETATM   30  C21 UNL     1      21.793   6.406  50.232  1.00  0.00     0.198 C 
HETATM   31  O3  UNL     1      21.851   5.930  48.927  1.00  0.00    -0.388 OA
HETATM   32  C22 UNL     1      20.623   5.424  48.506  1.00  0.00     0.198 C 
HETATM   33  C23 UNL     1      20.287   4.210  49.298  1.00  0.00     0.298 C 
ENDBRANCH  27  28
ENDBRANCH  26  27
ENDBRANCH  25  26
ENDBRANCH  15  25
TORSDOF 6
ENDMDL
MODEL 8
REMARK VINA RESULT:      -8.3      3.454      6.569
REMARK  6 active torsions:
REMARK  status: ('A' for Active; 'I' for Inactive)
REMARK    1  A    between atoms: C7_11  and  N3_12 
REMARK    2  A    between atoms: N3_12  and  C8_13 
REMARK    3  A    between atoms: N4_23  and  C17_24 
REMARK    4  A    between atoms: C17_24  and  C18_25 
REMARK    5  A    between atoms: C18_25  and  C19_26 
REMARK    6  A    between atoms: C19_26  and  N5_27 
ROOT
HETATM    1  O1  UNL     1      22.261   3.292  47.216  1.00  0.00    -0.271 OA
HETATM    2  C1  UNL     1      21.831   2.859  48.325  1.00  0.00     0.248 C 
HETATM    3  C2  UNL     1      20.390   2.619  48.681  1.00  0.00     0.279 C 
HETATM    4  O2  UNL     1      20.241   1.411  49.398  1.00  0.00    -0.340 OA
HETATM    5  C3  UNL     1      21.140   1.089  50.417  1.00  0.00     0.098 A 
HETATM    6  C4  UNL     1      20.803   0.219  51.450  1.00  0.00     0.071 A 
HETATM    7  C5  UNL     1      21.710  -0.083  52.445  1.00  0.00     0.075 A 
HETATM    8  N1  UNL     1      21.377  -0.924  53.443  1.00  0.00    -0.241 NA
HETATM    9  C6  UNL     1      22.305  -1.192  54.407  1.00  0.00     0.236 A 
HETATM   10  N2  UNL     1      23.553  -0.675  54.446  1.00  0.00    -0.224 NA
HETATM   11  C7  UNL     1      23.908   0.178  53.444  1.00  0.00     0.142 A 
HETATM   12  C14 UNL     1      22.977   0.471  52.442  1.00  0.00     0.041 A 
HETATM   13  C15 UNL     1      23.270   1.328  51.399  1.00  0.00     0.050 A 
HETATM   14  C16 UNL     1      22.405   1.663  50.382  1.00  0.00     0.071 A 
HETATM   15  N4  UNL     1      22.796   2.570  49.332  1.00  0.00    -0.314 N 
ENDROOT
BRANCH  11  16
HETATM   16  N3  UNL     1      25.176   0.806  53.339  1.00  0.00    -0.340 N 
HETATM   17  H5  UNL     1      24.914   1.783  53.095  1.00  0.00     0.167 HD
BRANCH  16  18
HETATM   18  C8  UNL     1      26.478   0.315  53.504  1.00  0.00     0.033 A 
HETATM   19  C9  UNL     1      27.369   0.987  54.310  1.00  0.00     0.032 A 
HETATM   20  C10 UNL     1      28.619   0.432  54.414  1.00  0.00     0.044 A 
HETATM   21  C11 UNL     1      28.948  -0.738  53.741  1.00  0.00     0.116 A 
HETATM   22  F1  UNL     1      30.217  -1.242  53.887  1.00  0.00    -0.206 F 
HETATM   23  C12 UNL     1      28.024  -1.403  52.928  1.00  0.00     0.044 A 
HETATM   24  C13 UNL     1      26.770  -0.845  52.824  1.00  0.00     0.032 A 
ENDBRANCH  16  18
ENDBRANCH  11  16
BRANCH  15  25
HETATM   25  C17 UNL     1      24.109   3.120  49.369  1.00  0.00     0.134 C 
BRANCH  25  26
HETATM   26  C18 UNL     1      24.006   4.544  49.875  1.00  0.00     0.050 C 
BRANCH  26  27
HETATM   27  C19 UNL     1      25.332   5.235  50.008  1.00  0.00     0.274 C 
BRANCH  27  28
HETATM   28  N5  UNL     1      25.303   6.531  49.336  1.00  0.00     0.092 N 
HETATM   29  C20 UNL     1      25.940   7.479  50.187  1.00  0.00     0.298 C 
HETATM   30  C21 UNL     1      25.617   8.912  49.936  1.00  0.00     0.198 C 
HETATM   31  O3  UNL     1      24.751   9.099  48.866  1.00  0.00    -0.388 OA
HETATM   32  C22 UNL     1      23.617   8.296  48.972  1.00  0.00     0.198 C 
HETATM   33  C23 UNL     1      24.008   6.865  48.849  1.00  0.00     0.298 C 
ENDBRANCH  27  28
ENDBRANCH  26  27
ENDBRANCH  25  26
ENDBRANCH  15  25
TORSDOF 6
ENDMDL
MODEL 9
REMARK VINA RESULT:      -8.3      3.705      7.856
REMARK  6 active torsions:
REMARK  status: ('A' for Active; 'I' for Inactive)
REMARK    1  A    between atoms: C7_11  and  N3_12 
REMARK    2  A    between atoms: N3_12  and  C8_13 
REMARK    3  A    between atoms: N4_23  and  C17_24 
REMARK    4  A    between atoms: C17_24  and  C18_25 
REMARK    5  A    between atoms: C18_25  and  C19_26 
REMARK    6  A    between atoms: C19_26  and  N5_27 
ROOT
HETATM    1  O1  UNL     1      23.639   7.205  50.529  1.00  0.00    -0.271 OA
HETATM    2  C1  UNL     1      24.106   6.045  50.334  1.00  0.00     0.248 C 
HETATM    3  C2  UNL     1      25.093   5.659  49.266  1.00  0.00     0.279 C 
HETATM    4  O2  UNL     1      26.068   4.774  49.776  1.00  0.00    -0.340 OA
HETATM    5  C3  UNL     1      25.687   3.719  50.607  1.00  0.00     0.098 A 
HETATM    6  C4  UNL     1      26.462   2.571  50.744  1.00  0.00     0.071 A 
HETATM    7  C5  UNL     1      26.064   1.542  51.572  1.00  0.00     0.075 A 
HETATM    8  N1  UNL     1      26.817   0.433  51.698  1.00  0.00    -0.241 NA
HETATM    9  C6  UNL     1      26.382  -0.561  52.528  1.00  0.00     0.236 A 
HETATM   10  N2  UNL     1      25.238  -0.525  53.245  1.00  0.00    -0.224 NA
HETATM   11  C7  UNL     1      24.463   0.590  53.131  1.00  0.00     0.142 A 
HETATM   12  C14 UNL     1      24.883   1.625  52.288  1.00  0.00     0.041 A 
HETATM   13  C15 UNL     1      24.145   2.781  52.124  1.00  0.00     0.050 A 
HETATM   14  C16 UNL     1      24.496   3.836  51.313  1.00  0.00     0.071 A 
HETATM   15  N4  UNL     1      23.662   5.006  51.201  1.00  0.00    -0.314 N 
ENDROOT
BRANCH  11  16
HETATM   16  N3  UNL     1      23.234   0.785  53.813  1.00  0.00    -0.340 N 
HETATM   17  H5  UNL     1      23.483   1.522  54.503  1.00  0.00     0.167 HD
BRANCH  16  18
HETATM   18  C8  UNL     1      21.977   0.185  53.660  1.00  0.00     0.033 A 
HETATM   19  C9  UNL     1      21.020   0.786  52.873  1.00  0.00     0.032 A 
HETATM   20  C10 UNL     1      19.820   0.128  52.779  1.00  0.00     0.044 A 
HETATM   21  C11 UNL     1      19.602  -1.073  53.444  1.00  0.00     0.116 A 
HETATM   22  F1  UNL     1      18.379  -1.682  53.310  1.00  0.00    -0.206 F 
HETATM   23  C12 UNL     1      20.591  -1.664  54.238  1.00  0.00     0.044 A 
HETATM   24  C13 UNL     1      21.794  -1.002  54.331  1.00  0.00     0.032 A 
ENDBRANCH  16  18
ENDBRANCH  11  16
BRANCH  15  25
HETATM   25  C17 UNL     1      22.453   5.049  51.953  1.00  0.00     0.134 C 
BRANCH  25  26
HETATM   26  C18 UNL     1      21.296   5.096  50.977  1.00  0.00     0.050 C 
BRANCH  26  27
HETATM   27  C19 UNL     1      20.707   3.750  50.672  1.00  0.00     0.274 C 
BRANCH  27  28
HETATM   28  N5  UNL     1      20.885   3.422  49.261  1.00  0.00     0.092 N 
HETATM   29  C20 UNL     1      21.819   2.349  49.176  1.00  0.00     0.298 C 
HETATM   30  C21 UNL     1      22.499   2.169  47.863  1.00  0.00     0.198 C 
HETATM   31  O3  UNL     1      22.079   3.077  46.899  1.00  0.00    -0.388 OA
HETATM   32  C22 UNL     1      22.134   4.389  47.366  1.00  0.00     0.198 C 
HETATM   33  C23 UNL     1      21.144   4.570  48.461  1.00  0.00     0.298 C 
ENDBRANCH  27  28
ENDBRANCH  26  27
ENDBRANCH  25  26
ENDBRANCH  15  25
TORSDOF 6
ENDMDL
