MODEL 1
REMARK VINA RESULT:      -6.4      0.000      0.000
REMARK  8 active torsions:
REMARK  status: ('A' for Active; 'I' for Inactive)
REMARK    1  A    between atoms: C2_2  and  C3_3 
REMARK    2  A    between atoms: C4_4  and  C5_5 
REMARK    3  A    between atoms: C5_5  and  C6_6 
REMARK    4  A    between atoms: C6_6  and  O1_7 
REMARK    5  A    between atoms: O1_7  and  C7_8 
REMARK    6  A    between atoms: C9_10  and  C10_11 
REMARK    7  A    between atoms: C10_11  and  O2_12 
REMARK    8  A    between atoms: C14_16  and  O3_17 
ROOT
HETATM    1  C7  UNL     1      23.373  -0.144  53.470  1.00  0.00     0.176 C 
HETATM    2  C8  UNL     1      22.623   0.456  52.543  1.00  0.00     0.003 C 
HETATM    3  C9  UNL     1      23.483   1.308  51.788  1.00  0.00     0.036 C 
HETATM    4  C12 UNL     1      21.256   0.544  52.047  1.00  0.00     0.102 C 
HETATM    5  C13 UNL     1      20.252  -0.127  52.867  1.00  0.00     0.036 C 
HETATM    6  C14 UNL     1      19.055  -0.100  52.310  1.00  0.00     0.159 C 
HETATM    7  N1  UNL     1      20.328  -0.782  54.100  1.00  0.00    -0.352 N 
HETATM    8  C16 UNL     1      21.535  -1.315  54.631  1.00  0.00     0.210 C 
HETATM    9  N2  UNL     1      22.768  -1.068  54.387  1.00  0.00    -0.219 NA
HETATM   10  H19 UNL     1      19.467  -0.899  54.674  1.00  0.00     0.166 HD
ENDROOT
BRANCH   1  11
HETATM   11  O1  UNL     1      24.725   0.085  53.588  1.00  0.00    -0.304 OA
BRANCH  11  12
HETATM   12  C6  UNL     1      25.655  -0.933  53.435  1.00  0.00     0.144 C 
BRANCH  12  13
HETATM   13  C5  UNL     1      26.653  -0.626  52.626  1.00  0.00     0.025 C 
BRANCH  13  14
HETATM   14  C4  UNL     1      27.157   0.753  52.681  1.00  0.00     0.002 C 
HETATM   15  C3  UNL     1      28.259   1.022  53.324  1.00  0.00    -0.004 C 
BRANCH  15  16
HETATM   16  C2  UNL     1      29.099   0.057  54.034  1.00  0.00    -0.026 C 
HETATM   17  C1  UNL     1      30.132  -0.610  53.572  1.00  0.00     0.031 C 
ENDBRANCH  15  16
ENDBRANCH  13  14
ENDBRANCH  12  13
ENDBRANCH  11  12
ENDBRANCH   1  11
BRANCH   3  18
HETATM   18  C10 UNL     1      23.831   2.144  50.903  1.00  0.00     0.134 C 
BRANCH  18  19
HETATM   19  O2  UNL     1      24.321   3.012  49.978  1.00  0.00    -0.368 OA
HETATM   20  C11 UNL     1      25.700   3.399  50.024  1.00  0.00     0.208 C 
ENDBRANCH  18  19
ENDBRANCH   3  18
BRANCH   6  21
HETATM   21  O3  UNL     1      18.821   0.514  51.071  1.00  0.00    -0.366 OA
HETATM   22  C15 UNL     1      17.639   0.208  50.351  1.00  0.00     0.209 C 
ENDBRANCH   6  21
TORSDOF 8
ENDMDL
MODEL 2
REMARK VINA RESULT:      -6.4      2.511      6.659
REMARK  8 active torsions:
REMARK  status: ('A' for Active; 'I' for Inactive)
REMARK    1  A    between atoms: C2_2  and  C3_3 
REMARK    2  A    between atoms: C4_4  and  C5_5 
REMARK    3  A    between atoms: C5_5  and  C6_6 
REMARK    4  A    between atoms: C6_6  and  O1_7 
REMARK    5  A    between atoms: O1_7  and  C7_8 
REMARK    6  A    between atoms: C9_10  and  C10_11 
REMARK    7  A    between atoms: C10_11  and  O2_12 
REMARK    8  A    between atoms: C14_16  and  O3_17 
ROOT
HETATM    1  C7  UNL     1      24.911   1.275  52.401  1.00  0.00     0.176 C 
HETATM    2  C8  UNL     1      26.068   1.779  51.967  1.00  0.00     0.003 C 
HETATM    3  C9  UNL     1      27.105   1.213  52.767  1.00  0.00     0.036 C 
HETATM    4  C12 UNL     1      26.629   2.691  50.979  1.00  0.00     0.102 C 
HETATM    5  C13 UNL     1      25.652   3.482  50.237  1.00  0.00     0.036 C 
HETATM    6  C14 UNL     1      26.215   4.209  49.290  1.00  0.00     0.159 C 
HETATM    7  N1  UNL     1      24.262   3.602  50.343  1.00  0.00    -0.352 N 
HETATM    8  C16 UNL     1      23.434   2.615  50.946  1.00  0.00     0.210 C 
HETATM    9  N2  UNL     1      23.681   1.673  51.776  1.00  0.00    -0.219 NA
HETATM   10  H19 UNL     1      23.789   4.449  49.963  1.00  0.00     0.166 HD
ENDROOT
BRANCH   1  11
HETATM   11  O1  UNL     1      24.841   0.376  53.441  1.00  0.00    -0.304 OA
BRANCH  11  12
HETATM   12  C6  UNL     1      23.986  -0.716  53.406  1.00  0.00     0.144 C 
BRANCH  12  13
HETATM   13  C5  UNL     1      23.248  -0.852  54.493  1.00  0.00     0.025 C 
BRANCH  13  14
HETATM   14  C4  UNL     1      21.995  -1.608  54.358  1.00  0.00     0.002 C 
HETATM   15  C3  UNL     1      20.868  -0.978  54.177  1.00  0.00    -0.004 C 
BRANCH  15  16
HETATM   16  C2  UNL     1      20.696   0.472  54.086  1.00  0.00    -0.026 C 
HETATM   17  C1  UNL     1      20.389   1.185  53.025  1.00  0.00     0.031 C 
ENDBRANCH  15  16
ENDBRANCH  13  14
ENDBRANCH  12  13
ENDBRANCH  11  12
ENDBRANCH   1  11
BRANCH   3  18
HETATM   18  C10 UNL     1      28.277   0.987  53.187  1.00  0.00     0.134 C 
BRANCH  18  19
HETATM   19  O2  UNL     1      29.501   0.630  53.659  1.00  0.00    -0.368 OA
HETATM   20  C11 UNL     1      29.888  -0.750  53.665  1.00  0.00     0.208 C 
ENDBRANCH  18  19
ENDBRANCH   3  18
BRANCH   6  21
HETATM   21  O3  UNL     1      27.598   4.191  49.057  1.00  0.00    -0.366 OA
HETATM   22  C15 UNL     1      28.217   5.303  48.434  1.00  0.00     0.209 C 
ENDBRANCH   6  21
TORSDOF 8
ENDMDL
MODEL 3
REMARK VINA RESULT:      -6.1      1.844      6.816
REMARK  8 active torsions:
REMARK  status: ('A' for Active; 'I' for Inactive)
REMARK    1  A    between atoms: C2_2  and  C3_3 
REMARK    2  A    between atoms: C4_4  and  C5_5 
REMARK    3  A    between atoms: C5_5  and  C6_6 
REMARK    4  A    between atoms: C6_6  and  O1_7 
REMARK    5  A    between atoms: O1_7  and  C7_8 
REMARK    6  A    between atoms: C9_10  and  C10_11 
REMARK    7  A    between atoms: C10_11  and  O2_12 
REMARK    8  A    between atoms: C14_16  and  O3_17 
ROOT
HETATM    1  C7  UNL     1      22.984   0.326  53.092  1.00  0.00     0.176 C 
HETATM    2  C8  UNL     1      24.176   0.890  52.892  1.00  0.00     0.003 C 
HETATM    3  C9  UNL     1      24.063   1.725  51.740  1.00  0.00     0.036 C 
HETATM    4  C12 UNL     1      25.530   0.946  53.429  1.00  0.00     0.102 C 
HETATM    5  C13 UNL     1      25.820  -0.019  54.484  1.00  0.00     0.036 C 
HETATM    6  C14 UNL     1      27.024   0.152  54.999  1.00  0.00     0.159 C 
HETATM    7  N1  UNL     1      25.071  -1.062  55.039  1.00  0.00    -0.352 N 
HETATM    8  C16 UNL     1      23.652  -1.130  54.970  1.00  0.00     0.210 C 
HETATM    9  N2  UNL     1      22.798  -0.577  54.192  1.00  0.00    -0.219 NA
HETATM   10  H19 UNL     1      25.558  -1.839  55.534  1.00  0.00     0.166 HD
ENDROOT
BRANCH   1  11
HETATM   11  O1  UNL     1      21.903   0.575  52.276  1.00  0.00    -0.304 OA
BRANCH  11  12
HETATM   12  C6  UNL     1      20.601   0.521  52.752  1.00  0.00     0.144 C 
BRANCH  12  13
HETATM   13  C5  UNL     1      19.813  -0.284  52.064  1.00  0.00     0.025 C 
BRANCH  13  14
HETATM   14  C4  UNL     1      18.367  -0.042  52.156  1.00  0.00     0.002 C 
HETATM   15  C3  UNL     1      17.609  -0.861  52.832  1.00  0.00    -0.004 C 
BRANCH  15  16
HETATM   16  C2  UNL     1      18.056  -2.056  53.548  1.00  0.00    -0.026 C 
HETATM   17  C1  UNL     1      17.481  -3.236  53.589  1.00  0.00     0.031 C 
ENDBRANCH  15  16
ENDBRANCH  13  14
ENDBRANCH  12  13
ENDBRANCH  11  12
ENDBRANCH   1  11
BRANCH   3  18
HETATM   18  C10 UNL     1      24.417   2.536  50.834  1.00  0.00     0.134 C 
BRANCH  18  19
HETATM   19  O2  UNL     1      24.745   3.494  49.927  1.00  0.00    -0.368 OA
HETATM   20  C11 UNL     1      26.122   3.817  49.697  1.00  0.00     0.208 C 
ENDBRANCH  18  19
ENDBRANCH   3  18
BRANCH   6  21
HETATM   21  O3  UNL     1      27.891   1.160  54.552  1.00  0.00    -0.366 OA
HETATM   22  C15 UNL     1      29.198   0.820  54.124  1.00  0.00     0.209 C 
ENDBRANCH   6  21
TORSDOF 8
ENDMDL
MODEL 4
REMARK VINA RESULT:      -6.1      2.430      6.084
REMARK  8 active torsions:
REMARK  status: ('A' for Active; 'I' for Inactive)
REMARK    1  A    between atoms: C2_2  and  C3_3 
REMARK    2  A    between atoms: C4_4  and  C5_5 
REMARK    3  A    between atoms: C5_5  and  C6_6 
REMARK    4  A    between atoms: C6_6  and  O1_7 
REMARK    5  A    between atoms: O1_7  and  C7_8 
REMARK    6  A    between atoms: C9_10  and  C10_11 
REMARK    7  A    between atoms: C10_11  and  O2_12 
REMARK    8  A    between atoms: C14_16  and  O3_17 
ROOT
HETATM    1  C7  UNL     1      23.621   1.526  51.392  1.00  0.00     0.176 C 
HETATM    2  C8  UNL     1      24.890   1.716  51.756  1.00  0.00     0.003 C 
HETATM    3  C9  UNL     1      25.497   2.542  50.764  1.00  0.00     0.036 C 
HETATM    4  C12 UNL     1      25.855   1.375  52.794  1.00  0.00     0.102 C 
HETATM    5  C13 UNL     1      25.407   0.372  53.754  1.00  0.00     0.036 C 
HETATM    6  C14 UNL     1      26.282   0.186  54.725  1.00  0.00     0.159 C 
HETATM    7  N1  UNL     1      24.246  -0.404  53.833  1.00  0.00    -0.352 N 
HETATM    8  C16 UNL     1      23.025  -0.054  53.194  1.00  0.00     0.210 C 
HETATM    9  N2  UNL     1      22.757   0.721  52.210  1.00  0.00    -0.219 NA
HETATM   10  H19 UNL     1      24.254  -1.287  54.387  1.00  0.00     0.166 HD
ENDROOT
BRANCH   1  11
HETATM   11  O1  UNL     1      23.090   2.076  50.248  1.00  0.00    -0.304 OA
BRANCH  11  12
HETATM   12  C6  UNL     1      21.773   2.507  50.186  1.00  0.00     0.144 C 
BRANCH  12  13
HETATM   13  C5  UNL     1      21.633   3.815  50.303  1.00  0.00     0.025 C 
BRANCH  13  14
HETATM   14  C4  UNL     1      21.436   4.347  51.658  1.00  0.00     0.002 C 
HETATM   15  C3  UNL     1      22.369   5.062  52.223  1.00  0.00    -0.004 C 
BRANCH  15  16
HETATM   16  C2  UNL     1      23.659   5.417  51.629  1.00  0.00    -0.026 C 
HETATM   17  C1  UNL     1      24.068   6.601  51.233  1.00  0.00     0.031 C 
ENDBRANCH  15  16
ENDBRANCH  13  14
ENDBRANCH  12  13
ENDBRANCH  11  12
ENDBRANCH   1  11
BRANCH   3  18
HETATM   18  C10 UNL     1      26.400   3.210  50.180  1.00  0.00     0.134 C 
BRANCH  18  19
HETATM   19  O2  UNL     1      27.281   3.978  49.485  1.00  0.00    -0.368 OA
HETATM   20  C11 UNL     1      26.835   5.192  48.867  1.00  0.00     0.208 C 
ENDBRANCH  18  19
ENDBRANCH   3  18
BRANCH   6  21
HETATM   21  O3  UNL     1      27.491   0.894  54.788  1.00  0.00    -0.366 OA
HETATM   22  C15 UNL     1      28.717   0.185  54.820  1.00  0.00     0.209 C 
ENDBRANCH   6  21
TORSDOF 8
ENDMDL
MODEL 5
REMARK VINA RESULT:      -6.1      2.538      7.440
REMARK  8 active torsions:
REMARK  status: ('A' for Active; 'I' for Inactive)
REMARK    1  A    between atoms: C2_2  and  C3_3 
REMARK    2  A    between atoms: C4_4  and  C5_5 
REMARK    3  A    between atoms: C5_5  and  C6_6 
REMARK    4  A    between atoms: C6_6  and  O1_7 
REMARK    5  A    between atoms: O1_7  and  C7_8 
REMARK    6  A    between atoms: C9_10  and  C10_11 
REMARK    7  A    between atoms: C10_11  and  O2_12 
REMARK    8  A    between atoms: C14_16  and  O3_17 
ROOT
HETATM    1  C7  UNL     1      24.246   1.759  51.447  1.00  0.00     0.176 C 
HETATM    2  C8  UNL     1      24.819   1.080  52.442  1.00  0.00     0.003 C 
HETATM    3  C9  UNL     1      23.802   0.292  53.059  1.00  0.00     0.036 C 
HETATM    4  C12 UNL     1      26.098   0.870  53.107  1.00  0.00     0.102 C 
HETATM    5  C13 UNL     1      27.169   1.771  52.695  1.00  0.00     0.036 C 
HETATM    6  C14 UNL     1      28.324   1.463  53.255  1.00  0.00     0.159 C 
HETATM    7  N1  UNL     1      27.193   2.872  51.831  1.00  0.00    -0.352 N 
HETATM    8  C16 UNL     1      26.227   3.087  50.810  1.00  0.00     0.210 C 
HETATM    9  N2  UNL     1      25.037   2.647  50.642  1.00  0.00    -0.219 NA
HETATM   10  H19 UNL     1      27.952   3.580  51.922  1.00  0.00     0.166 HD
ENDROOT
BRANCH   1  11
HETATM   11  O1  UNL     1      22.906   1.646  51.150  1.00  0.00    -0.304 OA
BRANCH  11  12
HETATM   12  C6  UNL     1      22.419   1.876  49.872  1.00  0.00     0.144 C 
BRANCH  12  13
HETATM   13  C5  UNL     1      21.564   0.961  49.454  1.00  0.00     0.025 C 
BRANCH  13  14
HETATM   14  C4  UNL     1      20.171   1.389  49.260  1.00  0.00     0.002 C 
HETATM   15  C3  UNL     1      19.267   1.096  50.153  1.00  0.00    -0.004 C 
BRANCH  15  16
HETATM   16  C2  UNL     1      19.490   0.352  51.393  1.00  0.00    -0.026 C 
HETATM   17  C1  UNL     1      19.747   0.832  52.589  1.00  0.00     0.031 C 
ENDBRANCH  15  16
ENDBRANCH  13  14
ENDBRANCH  12  13
ENDBRANCH  11  12
ENDBRANCH   1  11
BRANCH   3  18
HETATM   18  C10 UNL     1      23.275  -0.527  53.869  1.00  0.00     0.134 C 
BRANCH  18  19
HETATM   19  O2  UNL     1      22.604  -1.347  54.721  1.00  0.00    -0.368 OA
HETATM   20  C11 UNL     1      21.266  -1.757  54.410  1.00  0.00     0.208 C 
ENDBRANCH  18  19
ENDBRANCH   3  18
BRANCH   6  21
HETATM   21  O3  UNL     1      28.460   0.382  54.139  1.00  0.00    -0.366 OA
HETATM   22  C15 UNL     1      29.503  -0.557  53.941  1.00  0.00     0.209 C 
ENDBRANCH   6  21
TORSDOF 8
ENDMDL
MODEL 6
REMARK VINA RESULT:      -6.0      2.072      6.134
REMARK  8 active torsions:
REMARK  status: ('A' for Active; 'I' for Inactive)
REMARK    1  A    between atoms: C2_2  and  C3_3 
REMARK    2  A    between atoms: C4_4  and  C5_5 
REMARK    3  A    between atoms: C5_5  and  C6_6 
REMARK    4  A    between atoms: C6_6  and  O1_7 
REMARK    5  A    between atoms: O1_7  and  C7_8 
REMARK    6  A    between atoms: C9_10  and  C10_11 
REMARK    7  A    between atoms: C10_11  and  O2_12 
REMARK    8  A    between atoms: C14_16  and  O3_17 
ROOT
HETATM    1  C7  UNL     1      23.024   0.058  53.127  1.00  0.00     0.176 C 
HETATM    2  C8  UNL     1      24.170   0.697  52.888  1.00  0.00     0.003 C 
HETATM    3  C9  UNL     1      23.987   1.468  51.701  1.00  0.00     0.036 C 
HETATM    4  C12 UNL     1      25.521   0.874  53.405  1.00  0.00     0.102 C 
HETATM    5  C13 UNL     1      25.890  -0.019  54.498  1.00  0.00     0.036 C 
HETATM    6  C14 UNL     1      27.083   0.261  54.990  1.00  0.00     0.159 C 
HETATM    7  N1  UNL     1      25.223  -1.087  55.108  1.00  0.00    -0.352 N 
HETATM    8  C16 UNL     1      23.812  -1.259  55.061  1.00  0.00     0.210 C 
HETATM    9  N2  UNL     1      22.914  -0.805  54.270  1.00  0.00    -0.219 NA
HETATM   10  H19 UNL     1      25.770  -1.803  55.632  1.00  0.00     0.166 HD
ENDROOT
BRANCH   1  11
HETATM   11  O1  UNL     1      21.920   0.191  52.316  1.00  0.00    -0.304 OA
BRANCH  11  12
HETATM   12  C6  UNL     1      20.654   0.417  52.835  1.00  0.00     0.144 C 
BRANCH  12  13
HETATM   13  C5  UNL     1      20.396   1.689  53.081  1.00  0.00     0.025 C 
BRANCH  13  14
HETATM   14  C4  UNL     1      19.831   2.480  51.979  1.00  0.00     0.002 C 
HETATM   15  C3  UNL     1      20.374   3.618  51.645  1.00  0.00    -0.004 C 
BRANCH  15  16
HETATM   16  C2  UNL     1      21.545   4.230  52.273  1.00  0.00    -0.026 C 
HETATM   17  C1  UNL     1      22.296   5.202  51.807  1.00  0.00     0.031 C 
ENDBRANCH  15  16
ENDBRANCH  13  14
ENDBRANCH  12  13
ENDBRANCH  11  12
ENDBRANCH   1  11
BRANCH   3  18
HETATM   18  C10 UNL     1      24.272   2.260  50.755  1.00  0.00     0.134 C 
BRANCH  18  19
HETATM   19  O2  UNL     1      24.576   3.201  49.822  1.00  0.00    -0.368 OA
HETATM   20  C11 UNL     1      25.673   4.096  50.042  1.00  0.00     0.208 C 
ENDBRANCH  18  19
ENDBRANCH   3  18
BRANCH   6  21
HETATM   21  O3  UNL     1      27.871   1.308  54.488  1.00  0.00    -0.366 OA
HETATM   22  C15 UNL     1      29.217   1.057  54.122  1.00  0.00     0.209 C 
ENDBRANCH   6  21
TORSDOF 8
ENDMDL
MODEL 7
REMARK VINA RESULT:      -6.0      3.292      7.223
REMARK  8 active torsions:
REMARK  status: ('A' for Active; 'I' for Inactive)
REMARK    1  A    between atoms: C2_2  and  C3_3 
REMARK    2  A    between atoms: C4_4  and  C5_5 
REMARK    3  A    between atoms: C5_5  and  C6_6 
REMARK    4  A    between atoms: C6_6  and  O1_7 
REMARK    5  A    between atoms: O1_7  and  C7_8 
REMARK    6  A    between atoms: C9_10  and  C10_11 
REMARK    7  A    between atoms: C10_11  and  O2_12 
REMARK    8  A    between atoms: C14_16  and  O3_17 
ROOT
HETATM    1  C7  UNL     1      24.192   2.999  50.426  1.00  0.00     0.176 C 
HETATM    2  C8  UNL     1      25.525   3.042  50.426  1.00  0.00     0.003 C 
HETATM    3  C9  UNL     1      25.983   2.025  51.316  1.00  0.00     0.036 C 
HETATM    4  C12 UNL     1      26.655   3.757  49.847  1.00  0.00     0.102 C 
HETATM    5  C13 UNL     1      26.309   4.948  49.078  1.00  0.00     0.036 C 
HETATM    6  C14 UNL     1      27.363   5.488  48.495  1.00  0.00     0.159 C 
HETATM    7  N1  UNL     1      25.094   5.602  48.850  1.00  0.00    -0.352 N 
HETATM    8  C16 UNL     1      23.827   4.968  48.983  1.00  0.00     0.210 C 
HETATM    9  N2  UNL     1      23.448   3.921  49.614  1.00  0.00    -0.219 NA
HETATM   10  H19 UNL     1      25.094   6.603  48.563  1.00  0.00     0.166 HD
ENDROOT
BRANCH   1  11
HETATM   11  O1  UNL     1      23.482   2.094  51.183  1.00  0.00    -0.304 OA
BRANCH  11  12
HETATM   12  C6  UNL     1      22.530   2.501  52.106  1.00  0.00     0.144 C 
BRANCH  12  13
HETATM   13  C5  UNL     1      21.898   1.504  52.697  1.00  0.00     0.025 C 
BRANCH  13  14
HETATM   14  C4  UNL     1      22.157   0.152  52.182  1.00  0.00     0.002 C 
HETATM   15  C3  UNL     1      22.255  -0.854  53.007  1.00  0.00    -0.004 C 
BRANCH  15  16
HETATM   16  C2  UNL     1      22.127  -0.790  54.463  1.00  0.00    -0.026 C 
HETATM   17  C1  UNL     1      22.921  -1.316  55.368  1.00  0.00     0.031 C 
ENDBRANCH  15  16
ENDBRANCH  13  14
ENDBRANCH  12  13
ENDBRANCH  11  12
ENDBRANCH   1  11
BRANCH   3  18
HETATM   18  C10 UNL     1      26.802   1.304  51.960  1.00  0.00     0.134 C 
BRANCH  18  19
HETATM   19  O2  UNL     1      27.615   0.556  52.751  1.00  0.00    -0.368 OA
HETATM   20  C11 UNL     1      28.537   1.200  53.638  1.00  0.00     0.208 C 
ENDBRANCH  18  19
ENDBRANCH   3  18
BRANCH   6  21
HETATM   21  O3  UNL     1      28.650   4.945  48.624  1.00  0.00    -0.366 OA
HETATM   22  C15 UNL     1      29.763   5.649  48.102  1.00  0.00     0.209 C 
ENDBRANCH   6  21
TORSDOF 8
ENDMDL
MODEL 8
REMARK VINA RESULT:      -6.0      2.461      6.208
REMARK  8 active torsions:
REMARK  status: ('A' for Active; 'I' for Inactive)
REMARK    1  A    between atoms: C2_2  and  C3_3 
REMARK    2  A    between atoms: C4_4  and  C5_5 
REMARK    3  A    between atoms: C5_5  and  C6_6 
REMARK    4  A    between atoms: C6_6  and  O1_7 
REMARK    5  A    between atoms: O1_7  and  C7_8 
REMARK    6  A    between atoms: C9_10  and  C10_11 
REMARK    7  A    between atoms: C10_11  and  O2_12 
REMARK    8  A    between atoms: C14_16  and  O3_17 
ROOT
HETATM    1  C7  UNL     1      22.513   1.399  52.723  1.00  0.00     0.176 C 
HETATM    2  C8  UNL     1      23.575   2.202  52.812  1.00  0.00     0.003 C 
HETATM    3  C9  UNL     1      23.187   3.479  52.308  1.00  0.00     0.036 C 
HETATM    4  C12 UNL     1      24.969   2.225  53.235  1.00  0.00     0.102 C 
HETATM    5  C13 UNL     1      25.536   0.925  53.580  1.00  0.00     0.036 C 
HETATM    6  C14 UNL     1      26.765   1.027  54.053  1.00  0.00     0.159 C 
HETATM    7  N1  UNL     1      25.025  -0.375  53.508  1.00  0.00    -0.352 N 
HETATM    8  C16 UNL     1      23.634  -0.668  53.475  1.00  0.00     0.210 C 
HETATM    9  N2  UNL     1      22.611   0.035  53.161  1.00  0.00    -0.219 NA
HETATM   10  H19 UNL     1      25.680  -1.184  53.479  1.00  0.00     0.166 HD
ENDROOT
BRANCH   1  11
HETATM   11  O1  UNL     1      21.304   1.827  52.222  1.00  0.00    -0.304 OA
BRANCH  11  12
HETATM   12  C6  UNL     1      20.622   1.110  51.249  1.00  0.00     0.144 C 
BRANCH  12  13
HETATM   13  C5  UNL     1      20.503   1.750  50.100  1.00  0.00     0.025 C 
BRANCH  13  14
HETATM   14  C4  UNL     1      21.141   1.136  48.927  1.00  0.00     0.002 C 
HETATM   15  C3  UNL     1      22.145   1.730  48.343  1.00  0.00    -0.004 C 
BRANCH  15  16
HETATM   16  C2  UNL     1      22.743   3.004  48.743  1.00  0.00    -0.026 C 
HETATM   17  C1  UNL     1      22.685   4.157  48.115  1.00  0.00     0.031 C 
ENDBRANCH  15  16
ENDBRANCH  13  14
ENDBRANCH  12  13
ENDBRANCH  11  12
ENDBRANCH   1  11
BRANCH   3  18
HETATM   18  C10 UNL     1      23.293   4.696  51.976  1.00  0.00     0.134 C 
BRANCH  18  19
HETATM   19  O2  UNL     1      23.487   5.966  51.533  1.00  0.00    -0.368 OA
HETATM   20  C11 UNL     1      24.625   6.272  50.718  1.00  0.00     0.208 C 
ENDBRANCH  18  19
ENDBRANCH   3  18
BRANCH   6  21
HETATM   21  O3  UNL     1      27.412   2.264  54.192  1.00  0.00    -0.366 OA
HETATM   22  C15 UNL     1      28.712   2.438  53.655  1.00  0.00     0.209 C 
ENDBRANCH   6  21
TORSDOF 8
ENDMDL
MODEL 9
REMARK VINA RESULT:      -6.0      1.694      6.889
REMARK  8 active torsions:
REMARK  status: ('A' for Active; 'I' for Inactive)
REMARK    1  A    between atoms: C2_2  and  C3_3 
REMARK    2  A    between atoms: C4_4  and  C5_5 
REMARK    3  A    between atoms: C5_5  and  C6_6 
REMARK    4  A    between atoms: C6_6  and  O1_7 
REMARK    5  A    between atoms: O1_7  and  C7_8 
REMARK    6  A    between atoms: C9_10  and  C10_11 
REMARK    7  A    between atoms: C10_11  and  O2_12 
REMARK    8  A    between atoms: C14_16  and  O3_17 
ROOT
HETATM    1  C7  UNL     1      22.697  -0.273  53.533  1.00  0.00     0.176 C 
HETATM    2  C8  UNL     1      23.767   0.424  53.149  1.00  0.00     0.003 C 
HETATM    3  C9  UNL     1      23.413   1.125  51.957  1.00  0.00     0.036 C 
HETATM    4  C12 UNL     1      25.148   0.711  53.515  1.00  0.00     0.102 C 
HETATM    5  C13 UNL     1      25.686  -0.104  54.600  1.00  0.00     0.036 C 
HETATM    6  C14 UNL     1      26.901   0.275  54.953  1.00  0.00     0.159 C 
HETATM    7  N1  UNL     1      25.158  -1.181  55.319  1.00  0.00    -0.352 N 
HETATM    8  C16 UNL     1      23.764  -1.444  55.426  1.00  0.00     0.210 C 
HETATM    9  N2  UNL     1      22.762  -1.086  54.715  1.00  0.00    -0.219 NA
HETATM   10  H19 UNL     1      25.802  -1.835  55.812  1.00  0.00     0.166 HD
ENDROOT
BRANCH   1  11
HETATM   11  O1  UNL     1      21.511  -0.249  52.835  1.00  0.00    -0.304 OA
BRANCH  11  12
HETATM   12  C6  UNL     1      20.291  -0.468  53.459  1.00  0.00     0.144 C 
BRANCH  12  13
HETATM   13  C5  UNL     1      19.246  -0.179  52.706  1.00  0.00     0.025 C 
BRANCH  13  14
HETATM   14  C4  UNL     1      19.499   0.596  51.484  1.00  0.00     0.002 C 
HETATM   15  C3  UNL     1      18.643   0.565  50.500  1.00  0.00    -0.004 C 
BRANCH  15  16
HETATM   16  C2  UNL     1      17.392  -0.193  50.472  1.00  0.00    -0.026 C 
HETATM   17  C1  UNL     1      16.165   0.268  50.565  1.00  0.00     0.031 C 
ENDBRANCH  15  16
ENDBRANCH  13  14
ENDBRANCH  12  13
ENDBRANCH  11  12
ENDBRANCH   1  11
BRANCH   3  18
HETATM   18  C10 UNL     1      23.547   1.887  50.955  1.00  0.00     0.134 C 
BRANCH  18  19
HETATM   19  O2  UNL     1      23.743   2.786  49.954  1.00  0.00    -0.368 OA
HETATM   20  C11 UNL     1      24.262   4.087  50.257  1.00  0.00     0.208 C 
ENDBRANCH  18  19
ENDBRANCH   3  18
BRANCH   6  21
HETATM   21  O3  UNL     1      27.561   1.344  54.330  1.00  0.00    -0.366 OA
HETATM   22  C15 UNL     1      28.963   1.283  54.136  1.00  0.00     0.209 C 
ENDBRANCH   6  21
TORSDOF 8
ENDMDL
