MODEL 1
REMARK VINA RESULT:      -7.4      0.000      0.000
REMARK  2 active torsions:
REMARK  status: ('A' for Active; 'I' for Inactive)
REMARK    1  A    between atoms: C10_13  and  C11_14 
REMARK    2  A    between atoms: C16_20  and  N2_21 
ROOT
HETATM    1  C1  UNL     1      26.804  -2.620  52.329  1.00  0.00     0.071 C 
HETATM    2  C2  UNL     1      26.536  -1.175  52.606  1.00  0.00     0.039 A 
HETATM    3  N1  UNL     1      27.140  -0.118  52.226  1.00  0.00    -0.255 NA
HETATM    4  C3  UNL     1      26.202   0.705  52.956  1.00  0.00     0.080 A 
HETATM    5  C4  UNL     1      25.570  -0.386  53.354  1.00  0.00    -0.006 A 
HETATM    6  C5  UNL     1      24.376  -0.404  54.219  1.00  0.00     0.052 C 
HETATM    7  C6  UNL     1      23.094  -0.522  53.391  1.00  0.00     0.116 C 
HETATM    8  C7  UNL     1      23.107   0.625  52.410  1.00  0.00     0.259 C 
HETATM    9  O1  UNL     1      23.145   0.722  51.160  1.00  0.00    -0.265 OA
HETATM   10  O2  UNL     1      23.069   1.830  53.133  1.00  0.00    -0.317 OA
HETATM   11  C8  UNL     1      23.076   3.086  52.458  1.00  0.00     0.218 C 
HETATM   12  C9  UNL     1      24.281   3.246  51.622  1.00  0.00    -0.013 A 
HETATM   13  C10 UNL     1      24.208   3.852  50.394  1.00  0.00    -0.003 A 
HETATM   14  C12 UNL     1      25.204   4.090  49.479  1.00  0.00     0.014 A 
HETATM   15  C13 UNL     1      26.453   3.649  49.867  1.00  0.00     0.002 A 
HETATM   16  C14 UNL     1      26.596   3.028  51.098  1.00  0.00     0.010 A 
HETATM   17  C15 UNL     1      25.542   2.821  51.974  1.00  0.00    -0.010 A 
HETATM   18  C16 UNL     1      25.939   2.142  53.231  1.00  0.00     0.303 C 
ENDROOT
BRANCH  18  19
HETATM   19  N2  UNL     1      27.183   2.759  53.666  1.00  0.00     0.093 N 
HETATM   20  H15 UNL     1      27.117   3.174  54.610  1.00  0.00     0.314 HD
HETATM   21  H16 UNL     1      28.003   2.138  53.515  1.00  0.00     0.314 HD
ENDBRANCH  18  19
BRANCH  13  22
HETATM   22  C11 UNL     1      22.892   4.314  49.987  1.00  0.00     0.390 C 
HETATM   23  O3  UNL     1      21.885   4.417  49.263  1.00  0.00    -0.405 OA
ENDBRANCH  13  22
TORSDOF 2
ENDMDL
MODEL 2
REMARK VINA RESULT:      -7.3      2.730      3.531
REMARK  2 active torsions:
REMARK  status: ('A' for Active; 'I' for Inactive)
REMARK    1  A    between atoms: C10_13  and  C11_14 
REMARK    2  A    between atoms: C16_20  and  N2_21 
ROOT
HETATM    1  C1  UNL     1      27.210  -1.790  52.769  1.00  0.00     0.071 C 
HETATM    2  C2  UNL     1      26.154  -0.736  52.881  1.00  0.00     0.039 A 
HETATM    3  N1  UNL     1      25.747   0.141  52.050  1.00  0.00    -0.255 NA
HETATM    4  C3  UNL     1      24.787   0.636  53.010  1.00  0.00     0.080 A 
HETATM    5  C4  UNL     1      25.203  -0.271  53.878  1.00  0.00    -0.006 A 
HETATM    6  C5  UNL     1      24.668  -0.446  55.240  1.00  0.00     0.052 C 
HETATM    7  C6  UNL     1      23.617  -1.557  55.284  1.00  0.00     0.116 C 
HETATM    8  C7  UNL     1      22.562  -1.195  54.267  1.00  0.00     0.259 C 
HETATM    9  O1  UNL     1      22.138  -1.713  53.207  1.00  0.00    -0.265 OA
HETATM   10  O2  UNL     1      21.959   0.012  54.662  1.00  0.00    -0.317 OA
HETATM   11  C8  UNL     1      20.923   0.600  53.879  1.00  0.00     0.218 C 
HETATM   12  C9  UNL     1      21.380   0.897  52.508  1.00  0.00    -0.013 A 
HETATM   13  C10 UNL     1      20.550   0.705  51.434  1.00  0.00    -0.003 A 
HETATM   14  C12 UNL     1      20.789   0.919  50.098  1.00  0.00     0.014 A 
HETATM   15  C13 UNL     1      22.052   1.395  49.814  1.00  0.00     0.002 A 
HETATM   16  C14 UNL     1      22.941   1.612  50.855  1.00  0.00     0.010 A 
HETATM   17  C15 UNL     1      22.630   1.374  52.185  1.00  0.00    -0.010 A 
HETATM   18  C16 UNL     1      23.739   1.684  53.119  1.00  0.00     0.303 C 
ENDROOT
BRANCH  18  19
HETATM   19  N2  UNL     1      24.312   2.950  52.684  1.00  0.00     0.093 N 
HETATM   20  H15 UNL     1      24.769   3.469  53.452  1.00  0.00     0.314 HD
HETATM   21  H16 UNL     1      24.884   2.846  51.822  1.00  0.00     0.314 HD
ENDBRANCH  18  19
BRANCH  13  22
HETATM   22  C11 UNL     1      19.221   0.202  51.736  1.00  0.00     0.390 C 
HETATM   23  O3  UNL     1      18.290  -0.622  51.786  1.00  0.00    -0.405 OA
ENDBRANCH  13  22
TORSDOF 2
ENDMDL
MODEL 3
REMARK VINA RESULT:      -7.1      1.812      4.657
REMARK  2 active torsions:
REMARK  status: ('A' for Active; 'I' for Inactive)
REMARK    1  A    between atoms: C10_13  and  C11_14 
REMARK    2  A    between atoms: C16_20  and  N2_21 
ROOT
HETATM    1  C1  UNL     1      29.163   2.564  53.951  1.00  0.00     0.071 C 
HETATM    2  C2  UNL     1      28.126   1.604  53.461  1.00  0.00     0.039 A 
HETATM    3  N1  UNL     1      27.689   0.512  53.953  1.00  0.00    -0.255 NA
HETATM    4  C3  UNL     1      26.783   0.348  52.837  1.00  0.00     0.080 A 
HETATM    5  C4  UNL     1      27.232   1.479  52.321  1.00  0.00    -0.006 A 
HETATM    6  C5  UNL     1      26.764   2.075  51.056  1.00  0.00     0.052 C 
HETATM    7  C6  UNL     1      25.704   3.150  51.309  1.00  0.00     0.116 C 
HETATM    8  C7  UNL     1      24.604   2.491  52.105  1.00  0.00     0.259 C 
HETATM    9  O1  UNL     1      24.121   2.652  53.251  1.00  0.00    -0.265 OA
HETATM   10  O2  UNL     1      24.036   1.472  51.322  1.00  0.00    -0.317 OA
HETATM   11  C8  UNL     1      22.968   0.673  51.826  1.00  0.00     0.218 C 
HETATM   12  C9  UNL     1      23.359  -0.041  53.056  1.00  0.00    -0.013 A 
HETATM   13  C10 UNL     1      22.474  -0.192  54.092  1.00  0.00    -0.003 A 
HETATM   14  C12 UNL     1      22.647  -0.815  55.304  1.00  0.00     0.014 A 
HETATM   15  C13 UNL     1      23.900  -1.363  55.490  1.00  0.00     0.002 A 
HETATM   16  C14 UNL     1      24.843  -1.246  54.480  1.00  0.00     0.010 A 
HETATM   17  C15 UNL     1      24.597  -0.601  53.278  1.00  0.00    -0.010 A 
HETATM   18  C16 UNL     1      25.755  -0.609  52.352  1.00  0.00     0.303 C 
ENDROOT
BRANCH  18  19
HETATM   19  N2  UNL     1      26.320  -1.949  52.397  1.00  0.00     0.093 N 
HETATM   20  H15 UNL     1      25.713  -2.624  52.893  1.00  0.00     0.314 HD
HETATM   21  H16 UNL     1      26.657  -2.264  51.466  1.00  0.00     0.314 HD
ENDBRANCH  18  19
BRANCH  13  22
HETATM   22  C11 UNL     1      21.156   0.387  53.895  1.00  0.00     0.390 C 
HETATM   23  O3  UNL     1      19.966   0.434  53.534  1.00  0.00    -0.405 OA
ENDBRANCH  13  22
TORSDOF 2
ENDMDL
MODEL 4
REMARK VINA RESULT:      -7.0      2.646      5.612
REMARK  2 active torsions:
REMARK  status: ('A' for Active; 'I' for Inactive)
REMARK    1  A    between atoms: C10_13  and  C11_14 
REMARK    2  A    between atoms: C16_20  and  N2_21 
ROOT
HETATM    1  C1  UNL     1      22.668   2.320  47.108  1.00  0.00     0.071 C 
HETATM    2  C2  UNL     1      22.645   2.472  48.596  1.00  0.00     0.039 A 
HETATM    3  N1  UNL     1      21.956   1.883  49.493  1.00  0.00    -0.255 NA
HETATM    4  C3  UNL     1      22.603   2.658  50.529  1.00  0.00     0.080 A 
HETATM    5  C4  UNL     1      23.321   3.273  49.605  1.00  0.00    -0.006 A 
HETATM    6  C5  UNL     1      24.328   4.316  49.872  1.00  0.00     0.052 C 
HETATM    7  C6  UNL     1      25.739   3.725  49.916  1.00  0.00     0.116 C 
HETATM    8  C7  UNL     1      25.717   2.632  50.957  1.00  0.00     0.259 C 
HETATM    9  O1  UNL     1      25.888   1.390  50.941  1.00  0.00    -0.265 OA
HETATM   10  O2  UNL     1      25.430   3.210  52.205  1.00  0.00    -0.317 OA
HETATM   11  C8  UNL     1      25.341   2.406  53.378  1.00  0.00     0.218 C 
HETATM   12  C9  UNL     1      24.296   1.373  53.251  1.00  0.00    -0.013 A 
HETATM   13  C10 UNL     1      24.489   0.113  53.755  1.00  0.00    -0.003 A 
HETATM   14  C12 UNL     1      23.647  -0.972  53.734  1.00  0.00     0.014 A 
HETATM   15  C13 UNL     1      22.437  -0.745  53.112  1.00  0.00     0.002 A 
HETATM   16  C14 UNL     1      22.178   0.509  52.581  1.00  0.00     0.010 A 
HETATM   17  C15 UNL     1      23.078   1.563  52.638  1.00  0.00    -0.010 A 
HETATM   18  C16 UNL     1      22.577   2.807  52.007  1.00  0.00     0.303 C 
ENDROOT
BRANCH  18  19
HETATM   19  N2  UNL     1      21.192   2.962  52.426  1.00  0.00     0.093 N 
HETATM   20  H15 UNL     1      20.773   2.079  52.763  1.00  0.00     0.314 HD
HETATM   21  H16 UNL     1      21.063   3.778  53.057  1.00  0.00     0.314 HD
ENDBRANCH  18  19
BRANCH  13  22
HETATM   22  C11 UNL     1      25.764  -0.125  54.409  1.00  0.00     0.390 C 
HETATM   23  O3  UNL     1      26.543  -0.528  55.291  1.00  0.00    -0.405 OA
ENDBRANCH  13  22
TORSDOF 2
ENDMDL
MODEL 5
REMARK VINA RESULT:      -6.9      1.644      2.030
REMARK  2 active torsions:
REMARK  status: ('A' for Active; 'I' for Inactive)
REMARK    1  A    between atoms: C10_13  and  C11_14 
REMARK    2  A    between atoms: C16_20  and  N2_21 
ROOT
HETATM    1  C1  UNL     1      26.561  -1.819  52.537  1.00  0.00     0.071 C 
HETATM    2  C2  UNL     1      25.778  -0.550  52.669  1.00  0.00     0.039 A 
HETATM    3  N1  UNL     1      25.951   0.604  52.156  1.00  0.00    -0.255 NA
HETATM    4  C3  UNL     1      24.774   1.103  52.831  1.00  0.00     0.080 A 
HETATM    5  C4  UNL     1      24.588  -0.091  53.367  1.00  0.00    -0.006 A 
HETATM    6  C5  UNL     1      23.482  -0.447  54.274  1.00  0.00     0.052 C 
HETATM    7  C6  UNL     1      22.336  -1.120  53.515  1.00  0.00     0.116 C 
HETATM    8  C7  UNL     1      21.928  -0.167  52.418  1.00  0.00     0.259 C 
HETATM    9  O1  UNL     1      21.931  -0.205  51.164  1.00  0.00    -0.265 OA
HETATM   10  O2  UNL     1      21.446   1.014  53.009  1.00  0.00    -0.317 OA
HETATM   11  C8  UNL     1      20.992   2.099  52.205  1.00  0.00     0.218 C 
HETATM   12  C9  UNL     1      22.055   2.594  51.310  1.00  0.00    -0.013 A 
HETATM   13  C10 UNL     1      21.768   2.987  50.028  1.00  0.00    -0.003 A 
HETATM   14  C12 UNL     1      22.609   3.469  49.054  1.00  0.00     0.014 A 
HETATM   15  C13 UNL     1      23.931   3.563  49.438  1.00  0.00     0.002 A 
HETATM   16  C14 UNL     1      24.289   3.182  50.721  1.00  0.00     0.010 A 
HETATM   17  C15 UNL     1      23.383   2.704  51.656  1.00  0.00    -0.010 A 
HETATM   18  C16 UNL     1      24.000   2.365  52.961  1.00  0.00     0.303 C 
ENDROOT
BRANCH  18  19
HETATM   19  N2  UNL     1      24.927   3.440  53.278  1.00  0.00     0.093 N 
HETATM   20  H15 UNL     1      25.568   3.202  54.053  1.00  0.00     0.314 HD
HETATM   21  H16 UNL     1      25.388   3.824  52.430  1.00  0.00     0.314 HD
ENDBRANCH  18  19
BRANCH  13  22
HETATM   22  C11 UNL     1      20.376   2.886  49.626  1.00  0.00     0.390 C 
HETATM   23  O3  UNL     1      19.382   2.421  49.039  1.00  0.00    -0.405 OA
ENDBRANCH  13  22
TORSDOF 2
ENDMDL
MODEL 6
REMARK VINA RESULT:      -6.7      2.719      4.180
REMARK  2 active torsions:
REMARK  status: ('A' for Active; 'I' for Inactive)
REMARK    1  A    between atoms: C10_13  and  C11_14 
REMARK    2  A    between atoms: C16_20  and  N2_21 
ROOT
HETATM    1  C1  UNL     1      21.555  -0.518  54.951  1.00  0.00     0.071 C 
HETATM    2  C2  UNL     1      21.884   0.135  53.645  1.00  0.00     0.039 A 
HETATM    3  N1  UNL     1      21.146   0.722  52.788  1.00  0.00    -0.255 NA
HETATM    4  C3  UNL     1      22.294   0.985  51.949  1.00  0.00     0.080 A 
HETATM    5  C4  UNL     1      23.066   0.377  52.834  1.00  0.00    -0.006 A 
HETATM    6  C5  UNL     1      24.525   0.206  52.708  1.00  0.00     0.052 C 
HETATM    7  C6  UNL     1      25.279   1.289  53.482  1.00  0.00     0.116 C 
HETATM    8  C7  UNL     1      24.784   2.616  52.961  1.00  0.00     0.259 C 
HETATM    9  O1  UNL     1      24.168   3.589  53.458  1.00  0.00    -0.265 OA
HETATM   10  O2  UNL     1      25.122   2.715  51.600  1.00  0.00    -0.317 OA
HETATM   11  C8  UNL     1      24.771   3.871  50.844  1.00  0.00     0.218 C 
HETATM   12  C9  UNL     1      23.312   4.090  50.833  1.00  0.00    -0.013 A 
HETATM   13  C10 UNL     1      22.791   5.357  50.910  1.00  0.00    -0.003 A 
HETATM   14  C12 UNL     1      21.479   5.760  50.916  1.00  0.00     0.014 A 
HETATM   15  C13 UNL     1      20.564   4.731  50.833  1.00  0.00     0.002 A 
HETATM   16  C14 UNL     1      21.024   3.426  50.752  1.00  0.00     0.010 A 
HETATM   17  C15 UNL     1      22.369   3.090  50.750  1.00  0.00    -0.010 A 
HETATM   18  C16 UNL     1      22.618   1.632  50.651  1.00  0.00     0.303 C 
ENDROOT
BRANCH  18  19
HETATM   19  N2  UNL     1      21.702   1.118  49.643  1.00  0.00     0.093 N 
HETATM   20  H15 UNL     1      22.187   0.630  48.872  1.00  0.00     0.314 HD
HETATM   21  H16 UNL     1      20.909   0.595  50.064  1.00  0.00     0.314 HD
ENDBRANCH  18  19
BRANCH  13  22
HETATM   22  C11 UNL     1      23.756   6.439  50.998  1.00  0.00     0.390 C 
HETATM   23  O3  UNL     1      24.166   7.598  51.190  1.00  0.00    -0.405 OA
ENDBRANCH  13  22
TORSDOF 2
ENDMDL
MODEL 7
REMARK VINA RESULT:      -6.6      3.188      6.191
REMARK  2 active torsions:
REMARK  status: ('A' for Active; 'I' for Inactive)
REMARK    1  A    between atoms: C10_13  and  C11_14 
REMARK    2  A    between atoms: C16_20  and  N2_21 
ROOT
HETATM    1  C1  UNL     1      21.543   7.088  50.833  1.00  0.00     0.071 C 
HETATM    2  C2  UNL     1      21.634   5.629  50.514  1.00  0.00     0.039 A 
HETATM    3  N1  UNL     1      22.634   4.842  50.448  1.00  0.00    -0.255 NA
HETATM    4  C3  UNL     1      21.769   3.737  50.103  1.00  0.00     0.080 A 
HETATM    5  C4  UNL     1      20.726   4.547  50.170  1.00  0.00    -0.006 A 
HETATM    6  C5  UNL     1      19.328   4.147  49.928  1.00  0.00     0.052 C 
HETATM    7  C6  UNL     1      18.600   3.853  51.241  1.00  0.00     0.116 C 
HETATM    8  C7  UNL     1      19.409   2.800  51.957  1.00  0.00     0.259 C 
HETATM    9  O1  UNL     1      20.043   2.751  53.039  1.00  0.00    -0.265 OA
HETATM   10  O2  UNL     1      19.415   1.633  51.174  1.00  0.00    -0.317 OA
HETATM   11  C8  UNL     1      20.113   0.468  51.605  1.00  0.00     0.218 C 
HETATM   12  C9  UNL     1      21.551   0.737  51.799  1.00  0.00    -0.013 A 
HETATM   13  C10 UNL     1      22.237   0.171  52.843  1.00  0.00    -0.003 A 
HETATM   14  C12 UNL     1      23.560   0.299  53.188  1.00  0.00     0.014 A 
HETATM   15  C13 UNL     1      24.291   1.120  52.353  1.00  0.00     0.002 A 
HETATM   16  C14 UNL     1      23.657   1.722  51.277  1.00  0.00     0.010 A 
HETATM   17  C15 UNL     1      22.313   1.547  50.988  1.00  0.00    -0.010 A 
HETATM   18  C16 UNL     1      21.862   2.288  49.785  1.00  0.00     0.303 C 
ENDROOT
BRANCH  18  19
HETATM   19  N2  UNL     1      22.891   2.107  48.772  1.00  0.00     0.093 N 
HETATM   20  H15 UNL     1      23.847   2.228  49.144  1.00  0.00     0.314 HD
HETATM   21  H16 UNL     1      22.742   1.244  48.212  1.00  0.00     0.314 HD
ENDBRANCH  18  19
BRANCH  13  22
HETATM   22  C11 UNL     1      21.465  -0.691  53.721  1.00  0.00     0.390 C 
HETATM   23  O3  UNL     1      21.230  -1.399  54.717  1.00  0.00    -0.405 OA
ENDBRANCH  13  22
TORSDOF 2
ENDMDL
MODEL 8
REMARK VINA RESULT:      -6.5      8.450     11.536
REMARK  2 active torsions:
REMARK  status: ('A' for Active; 'I' for Inactive)
REMARK    1  A    between atoms: C10_13  and  C11_14 
REMARK    2  A    between atoms: C16_20  and  N2_21 
ROOT
HETATM    1  C1  UNL     1      29.849  12.358  45.135  1.00  0.00     0.071 C 
HETATM    2  C2  UNL     1      30.084  11.494  46.333  1.00  0.00     0.039 A 
HETATM    3  N1  UNL     1      29.291  10.765  47.016  1.00  0.00    -0.255 NA
HETATM    4  C3  UNL     1      30.373  10.368  47.889  1.00  0.00     0.080 A 
HETATM    5  C4  UNL     1      31.202  11.121  47.186  1.00  0.00    -0.006 A 
HETATM    6  C5  UNL     1      32.643  11.274  47.458  1.00  0.00     0.052 C 
HETATM    7  C6  UNL     1      33.476  10.342  46.575  1.00  0.00     0.116 C 
HETATM    8  C7  UNL     1      32.964   8.943  46.820  1.00  0.00     0.259 C 
HETATM    9  O1  UNL     1      32.407   8.067  46.117  1.00  0.00    -0.265 OA
HETATM   10  O2  UNL     1      33.195   8.615  48.167  1.00  0.00    -0.317 OA
HETATM   11  C8  UNL     1      32.805   7.346  48.686  1.00  0.00     0.218 C 
HETATM   12  C9  UNL     1      31.354   7.122  48.540  1.00  0.00    -0.013 A 
HETATM   13  C10 UNL     1      30.864   5.885  48.207  1.00  0.00    -0.003 A 
HETATM   14  C12 UNL     1      29.564   5.483  48.026  1.00  0.00     0.014 A 
HETATM   15  C13 UNL     1      28.627   6.479  48.208  1.00  0.00     0.002 A 
HETATM   16  C14 UNL     1      29.056   7.753  48.546  1.00  0.00     0.010 A 
HETATM   17  C15 UNL     1      30.390   8.089  48.714  1.00  0.00    -0.010 A 
HETATM   18  C16 UNL     1      30.604   9.510  49.080  1.00  0.00     0.303 C 
ENDROOT
BRANCH  18  19
HETATM   19  N2  UNL     1      29.602   9.840  50.082  1.00  0.00     0.093 N 
HETATM   20  H15 UNL     1      29.417  10.855  50.147  1.00  0.00     0.314 HD
HETATM   21  H16 UNL     1      28.754   9.244  50.001  1.00  0.00     0.314 HD
ENDBRANCH  18  19
BRANCH  13  22
HETATM   22  C11 UNL     1      31.852   4.838  48.015  1.00  0.00     0.390 C 
HETATM   23  O3  UNL     1      32.418   3.745  48.203  1.00  0.00    -0.405 OA
ENDBRANCH  13  22
TORSDOF 2
ENDMDL
MODEL 9
REMARK VINA RESULT:      -6.5      1.905      2.783
REMARK  2 active torsions:
REMARK  status: ('A' for Active; 'I' for Inactive)
REMARK    1  A    between atoms: C10_13  and  C11_14 
REMARK    2  A    between atoms: C16_20  and  N2_21 
ROOT
HETATM    1  C1  UNL     1      26.067  -0.085  52.719  1.00  0.00     0.071 C 
HETATM    2  C2  UNL     1      25.218   1.143  52.619  1.00  0.00     0.039 A 
HETATM    3  N1  UNL     1      25.518   2.356  52.366  1.00  0.00    -0.255 NA
HETATM    4  C3  UNL     1      24.130   2.746  52.487  1.00  0.00     0.080 A 
HETATM    5  C4  UNL     1      23.812   1.490  52.749  1.00  0.00    -0.006 A 
HETATM    6  C5  UNL     1      22.447   1.002  53.017  1.00  0.00     0.052 C 
HETATM    7  C6  UNL     1      21.811   0.415  51.755  1.00  0.00     0.116 C 
HETATM    8  C7  UNL     1      21.866   1.493  50.701  1.00  0.00     0.259 C 
HETATM    9  O1  UNL     1      22.430   1.617  49.587  1.00  0.00    -0.265 OA
HETATM   10  O2  UNL     1      21.088   2.581  51.134  1.00  0.00    -0.317 OA
HETATM   11  C8  UNL     1      20.963   3.753  50.334  1.00  0.00     0.218 C 
HETATM   12  C9  UNL     1      22.274   4.376  50.073  1.00  0.00    -0.013 A 
HETATM   13  C10 UNL     1      22.561   4.926  48.850  1.00  0.00    -0.003 A 
HETATM   14  C12 UNL     1      23.710   5.541  48.418  1.00  0.00     0.014 A 
HETATM   15  C13 UNL     1      24.712   5.607  49.364  1.00  0.00     0.002 A 
HETATM   16  C14 UNL     1      24.487   5.070  50.622  1.00  0.00     0.010 A 
HETATM   17  C15 UNL     1      23.297   4.461  50.990  1.00  0.00    -0.010 A 
HETATM   18  C16 UNL     1      23.291   3.968  52.388  1.00  0.00     0.303 C 
ENDROOT
BRANCH  18  19
HETATM   19  N2  UNL     1      23.899   5.008  53.203  1.00  0.00     0.093 N 
HETATM   20  H15 UNL     1      24.785   4.708  53.643  1.00  0.00     0.314 HD
HETATM   21  H16 UNL     1      23.943   5.920  52.707  1.00  0.00     0.314 HD
ENDBRANCH  18  19
BRANCH  13  22
HETATM   22  C11 UNL     1      21.504   4.854  47.855  1.00  0.00     0.390 C 
HETATM   23  O3  UNL     1      20.906   4.443  46.844  1.00  0.00    -0.405 OA
ENDBRANCH  13  22
TORSDOF 2
ENDMDL
