MODEL 1
REMARK VINA RESULT:      -8.4      0.000      0.000
REMARK  5 active torsions:
REMARK  status: ('A' for Active; 'I' for Inactive)
REMARK    1  A    between atoms: C11_12  and  C12_13 
REMARK    2  A    between atoms: N1_15  and  C14_16 
REMARK    3  A    between atoms: C16_18  and  C17_19 
REMARK    4  A    between atoms: C17_19  and  N2_20 
REMARK    5  A    between atoms: C24_29  and  N5_30 
ROOT
HETATM    1  C12 UNL     1      21.936   1.443  50.830  1.00  0.00    -0.009 A 
HETATM    2  C13 UNL     1      23.203   1.424  51.333  1.00  0.00     0.102 A 
HETATM    3  N1  UNL     1      23.255   0.672  52.448  1.00  0.00    -0.336 N 
HETATM    4  C22 UNL     1      22.036   0.146  52.756  1.00  0.00     0.145 A 
HETATM    5  N3  UNL     1      21.585  -0.634  53.721  1.00  0.00    -0.223 NA
HETATM    6  C23 UNL     1      20.293  -0.998  53.764  1.00  0.00     0.237 A 
HETATM    7  N4  UNL     1      19.444  -0.565  52.815  1.00  0.00    -0.229 NA
HETATM    8  C24 UNL     1      19.895   0.240  51.814  1.00  0.00     0.116 A 
HETATM    9  C25 UNL     1      21.220   0.641  51.729  1.00  0.00     0.059 A 
ENDROOT
BRANCH   1  10
HETATM   10  C11 UNL     1      21.257   2.024  49.716  1.00  0.00     0.053 A 
HETATM   11  C10 UNL     1      20.282   2.924  49.501  1.00  0.00     0.025 A 
HETATM   12  C2  UNL     1      20.818   3.940  50.470  1.00  0.00    -0.002 C 
HETATM   13  C9  UNL     1      19.275   3.846  49.199  1.00  0.00    -0.030 A 
HETATM   14  C8  UNL     1      19.859   3.252  48.134  1.00  0.00     0.059 A 
HETATM   15  C7  UNL     1      20.839   2.344  48.361  1.00  0.00     0.081 A 
HETATM   16  C1  UNL     1      19.860   4.369  51.534  1.00  0.00     0.011 C 
HETATM   17  C3  UNL     1      21.270   5.154  49.678  1.00  0.00     0.005 C 
HETATM   18  C4  UNL     1      22.151   5.105  48.526  1.00  0.00     0.002 C 
HETATM   19  C5  UNL     1      21.990   4.646  47.167  1.00  0.00     0.026 C 
HETATM   20  C6  UNL     1      21.972   3.305  46.622  1.00  0.00     0.169 C 
HETATM   21  O1  UNL     1      20.857   2.433  46.950  1.00  0.00    -0.376 OA
HETATM   22  C26 UNL     1      21.822   1.437  48.647  1.00  0.00     0.003 A 
ENDBRANCH   1  10
BRANCH   3  23
HETATM   23  C14 UNL     1      24.491   0.490  53.181  1.00  0.00     0.092 C 
HETATM   24  C15 UNL     1      25.677   0.010  52.439  1.00  0.00     0.032 C 
HETATM   25  C16 UNL     1      26.537   0.966  53.279  1.00  0.00     0.018 C 
HETATM   26  C21 UNL     1      25.258   1.738  53.523  1.00  0.00     0.032 C 
BRANCH  25  27
HETATM   27  C17 UNL     1      27.101   0.201  54.431  1.00  0.00     0.277 C 
BRANCH  27  28
HETATM   28  N2  UNL     1      28.456  -0.165  54.376  1.00  0.00     0.088 N 
HETATM   29  C18 UNL     1      29.475   0.694  53.914  1.00  0.00     0.274 C 
HETATM   30  C19 UNL     1      30.289  -0.569  53.575  1.00  0.00     0.060 C 
HETATM   31  C20 UNL     1      28.891  -1.209  53.508  1.00  0.00     0.274 C 
ENDBRANCH  27  28
ENDBRANCH  25  27
ENDBRANCH   3  23
BRANCH   8  32
HETATM   32  N5  UNL     1      18.953   0.665  50.838  1.00  0.00    -0.286 NA
HETATM   33  H31 UNL     1      17.991   1.080  50.831  1.00  0.00     0.125 HD
HETATM   34  H32 UNL     1      18.015   1.072  50.701  1.00  0.00     0.125 HD
ENDBRANCH   8  32
TORSDOF 5
ENDMDL
MODEL 2
REMARK VINA RESULT:      -8.1      3.990      5.343
REMARK  5 active torsions:
REMARK  status: ('A' for Active; 'I' for Inactive)
REMARK    1  A    between atoms: C11_12  and  C12_13 
REMARK    2  A    between atoms: N1_15  and  C14_16 
REMARK    3  A    between atoms: C16_18  and  C17_19 
REMARK    4  A    between atoms: C17_19  and  N2_20 
REMARK    5  A    between atoms: C24_29  and  N5_30 
ROOT
HETATM    1  C12 UNL     1      25.239   4.959  49.492  1.00  0.00    -0.009 A 
HETATM    2  C13 UNL     1      25.836   4.204  50.459  1.00  0.00     0.102 A 
HETATM    3  N1  UNL     1      25.088   3.123  50.740  1.00  0.00    -0.336 N 
HETATM    4  C22 UNL     1      23.953   3.087  49.984  1.00  0.00     0.145 A 
HETATM    5  N3  UNL     1      22.932   2.254  49.892  1.00  0.00    -0.223 NA
HETATM    6  C23 UNL     1      21.932   2.488  49.028  1.00  0.00     0.237 A 
HETATM    7  N4  UNL     1      21.963   3.581  48.246  1.00  0.00    -0.229 NA
HETATM    8  C24 UNL     1      23.010   4.448  48.330  1.00  0.00     0.116 A 
HETATM    9  C25 UNL     1      24.066   4.248  49.208  1.00  0.00     0.059 A 
ENDROOT
BRANCH   1  10
HETATM   10  C11 UNL     1      25.516   6.167  48.783  1.00  0.00     0.053 A 
HETATM   11  C10 UNL     1      24.947   7.372  48.605  1.00  0.00     0.025 A 
HETATM   12  C2  UNL     1      24.635   7.591  50.059  1.00  0.00    -0.002 C 
HETATM   13  C9  UNL     1      24.415   8.644  48.372  1.00  0.00    -0.030 A 
HETATM   14  C8  UNL     1      25.589   8.381  47.754  1.00  0.00     0.059 A 
HETATM   15  C7  UNL     1      26.153   7.163  47.937  1.00  0.00     0.081 A 
HETATM   16  C1  UNL     1      23.197   7.862  50.365  1.00  0.00     0.011 C 
HETATM   17  C3  UNL     1      25.484   8.747  50.555  1.00  0.00     0.005 C 
HETATM   18  C4  UNL     1      26.919   8.854  50.371  1.00  0.00     0.002 C 
HETATM   19  C5  UNL     1      27.760   9.113  49.227  1.00  0.00     0.026 C 
HETATM   20  C6  UNL     1      28.156   8.249  48.135  1.00  0.00     0.169 C 
HETATM   21  O1  UNL     1      27.147   7.824  47.179  1.00  0.00    -0.376 OA
HETATM   22  C26 UNL     1      26.679   5.919  48.156  1.00  0.00     0.003 A 
ENDBRANCH   1  10
BRANCH   3  23
HETATM   23  C14 UNL     1      25.498   2.157  51.737  1.00  0.00     0.092 C 
HETATM   24  C15 UNL     1      26.936   2.071  52.075  1.00  0.00     0.032 C 
HETATM   25  C16 UNL     1      26.535   1.859  53.543  1.00  0.00     0.018 C 
HETATM   26  C21 UNL     1      25.222   2.514  53.172  1.00  0.00     0.032 C 
BRANCH  25  27
HETATM   27  C17 UNL     1      26.511   0.392  53.815  1.00  0.00     0.277 C 
BRANCH  27  28
HETATM   28  N2  UNL     1      27.725  -0.238  54.137  1.00  0.00     0.088 N 
HETATM   29  C18 UNL     1      28.918   0.466  54.404  1.00  0.00     0.274 C 
HETATM   30  C19 UNL     1      29.680  -0.802  53.974  1.00  0.00     0.060 C 
HETATM   31  C20 UNL     1      28.386  -1.070  53.185  1.00  0.00     0.274 C 
ENDBRANCH  27  28
ENDBRANCH  25  27
ENDBRANCH   3  23
BRANCH   8  32
HETATM   32  N5  UNL     1      22.991   5.586  47.478  1.00  0.00    -0.286 NA
HETATM   33  H31 UNL     1      23.031   5.772  46.448  1.00  0.00     0.125 HD
HETATM   34  H32 UNL     1      23.023   5.896  46.495  1.00  0.00     0.125 HD
ENDBRANCH   8  32
TORSDOF 5
ENDMDL
MODEL 3
REMARK VINA RESULT:      -8.0      2.504      4.326
REMARK  5 active torsions:
REMARK  status: ('A' for Active; 'I' for Inactive)
REMARK    1  A    between atoms: C11_12  and  C12_13 
REMARK    2  A    between atoms: N1_15  and  C14_16 
REMARK    3  A    between atoms: C16_18  and  C17_19 
REMARK    4  A    between atoms: C17_19  and  N2_20 
REMARK    5  A    between atoms: C24_29  and  N5_30 
ROOT
HETATM    1  C12 UNL     1      22.677   3.398  50.809  1.00  0.00    -0.009 A 
HETATM    2  C13 UNL     1      23.282   2.613  51.746  1.00  0.00     0.102 A 
HETATM    3  N1  UNL     1      24.617   2.779  51.708  1.00  0.00    -0.336 N 
HETATM    4  C22 UNL     1      24.984   3.680  50.753  1.00  0.00     0.145 A 
HETATM    5  N3  UNL     1      26.140   4.169  50.341  1.00  0.00    -0.223 NA
HETATM    6  C23 UNL     1      26.189   5.072  49.350  1.00  0.00     0.237 A 
HETATM    7  N4  UNL     1      25.052   5.488  48.764  1.00  0.00    -0.229 NA
HETATM    8  C24 UNL     1      23.853   4.992  49.178  1.00  0.00     0.116 A 
HETATM    9  C25 UNL     1      23.754   4.058  50.199  1.00  0.00     0.059 A 
ENDROOT
BRANCH   1  10
HETATM   10  C11 UNL     1      21.347   3.673  50.370  1.00  0.00     0.053 A 
HETATM   11  C10 UNL     1      20.576   3.411  49.300  1.00  0.00     0.025 A 
HETATM   12  C2  UNL     1      20.943   1.956  49.220  1.00  0.00    -0.002 C 
HETATM   13  C9  UNL     1      19.716   3.181  48.221  1.00  0.00    -0.030 A 
HETATM   14  C8  UNL     1      19.195   3.903  49.239  1.00  0.00     0.059 A 
HETATM   15  C7  UNL     1      19.980   4.164  50.312  1.00  0.00     0.081 A 
HETATM   16  C1  UNL     1      21.502   1.514  47.906  1.00  0.00     0.011 C 
HETATM   17  C3  UNL     1      19.706   1.139  49.544  1.00  0.00     0.005 C 
HETATM   18  C4  UNL     1      18.868   1.340  50.711  1.00  0.00     0.002 C 
HETATM   19  C5  UNL     1      17.931   2.367  51.100  1.00  0.00     0.026 C 
HETATM   20  C6  UNL     1      18.157   3.701  51.613  1.00  0.00     0.169 C 
HETATM   21  O1  UNL     1      18.741   4.699  50.732  1.00  0.00    -0.376 OA
HETATM   22  C26 UNL     1      20.815   4.397  51.369  1.00  0.00     0.003 A 
ENDBRANCH   1  10
BRANCH   3  23
HETATM   23  C14 UNL     1      25.495   2.055  52.603  1.00  0.00     0.092 C 
HETATM   24  C15 UNL     1      24.926   0.933  53.383  1.00  0.00     0.032 C 
HETATM   25  C16 UNL     1      26.237   0.166  53.156  1.00  0.00     0.018 C 
HETATM   26  C21 UNL     1      26.446   1.079  51.966  1.00  0.00     0.032 C 
BRANCH  25  27
HETATM   27  C17 UNL     1      27.118   0.381  54.341  1.00  0.00     0.277 C 
BRANCH  27  28
HETATM   28  N2  UNL     1      28.402  -0.190  54.318  1.00  0.00     0.088 N 
HETATM   29  C18 UNL     1      29.556   0.509  53.905  1.00  0.00     0.274 C 
HETATM   30  C19 UNL     1      30.175  -0.860  53.562  1.00  0.00     0.060 C 
HETATM   31  C20 UNL     1      28.698  -1.274  53.440  1.00  0.00     0.274 C 
ENDBRANCH  27  28
ENDBRANCH  25  27
ENDBRANCH   3  23
BRANCH   8  32
HETATM   32  N5  UNL     1      22.684   5.468  48.524  1.00  0.00    -0.286 NA
HETATM   33  H31 UNL     1      21.712   5.745  48.799  1.00  0.00     0.125 HD
HETATM   34  H32 UNL     1      21.708   5.766  48.667  1.00  0.00     0.125 HD
ENDBRANCH   8  32
TORSDOF 5
ENDMDL
MODEL 4
REMARK VINA RESULT:      -7.9      7.656     10.460
REMARK  5 active torsions:
REMARK  status: ('A' for Active; 'I' for Inactive)
REMARK    1  A    between atoms: C11_12  and  C12_13 
REMARK    2  A    between atoms: N1_15  and  C14_16 
REMARK    3  A    between atoms: C16_18  and  C17_19 
REMARK    4  A    between atoms: C17_19  and  N2_20 
REMARK    5  A    between atoms: C24_29  and  N5_30 
ROOT
HETATM    1  C12 UNL     1      29.134   6.946  48.140  1.00  0.00    -0.009 A 
HETATM    2  C13 UNL     1      28.297   5.870  48.180  1.00  0.00     0.102 A 
HETATM    3  N1  UNL     1      27.131   6.203  48.763  1.00  0.00    -0.336 N 
HETATM    4  C22 UNL     1      27.115   7.512  49.144  1.00  0.00     0.145 A 
HETATM    5  N3  UNL     1      26.227   8.290  49.736  1.00  0.00    -0.223 NA
HETATM    6  C23 UNL     1      26.504   9.579  49.988  1.00  0.00     0.237 A 
HETATM    7  N4  UNL     1      27.698  10.090  49.637  1.00  0.00    -0.229 NA
HETATM    8  C24 UNL     1      28.623   9.299  49.026  1.00  0.00     0.116 A 
HETATM    9  C25 UNL     1      28.381   7.962  48.745  1.00  0.00     0.059 A 
ENDROOT
BRANCH   1  10
HETATM   10  C11 UNL     1      30.449   7.236  47.666  1.00  0.00     0.053 A 
HETATM   11  C10 UNL     1      31.701   7.263  48.154  1.00  0.00     0.025 A 
HETATM   12  C2  UNL     1      31.600   5.942  48.864  1.00  0.00    -0.002 C 
HETATM   13  C9  UNL     1      33.029   7.315  48.590  1.00  0.00    -0.030 A 
HETATM   14  C8  UNL     1      32.829   7.634  47.291  1.00  0.00     0.059 A 
HETATM   15  C7  UNL     1      31.563   7.607  46.809  1.00  0.00     0.081 A 
HETATM   16  C1  UNL     1      31.900   5.984  50.328  1.00  0.00     0.011 C 
HETATM   17  C3  UNL     1      32.543   4.967  48.182  1.00  0.00     0.005 C 
HETATM   18  C4  UNL     1      32.581   4.720  46.754  1.00  0.00     0.002 C 
HETATM   19  C5  UNL     1      33.035   5.492  45.621  1.00  0.00     0.026 C 
HETATM   20  C6  UNL     1      32.421   6.611  44.938  1.00  0.00     0.169 C 
HETATM   21  O1  UNL     1      32.306   7.879  45.638  1.00  0.00    -0.376 OA
HETATM   22  C26 UNL     1      30.267   7.562  46.375  1.00  0.00     0.003 A 
ENDBRANCH   1  10
BRANCH   3  23
HETATM   23  C14 UNL     1      26.066   5.236  48.932  1.00  0.00     0.092 C 
HETATM   24  C15 UNL     1      26.430   3.862  49.344  1.00  0.00     0.032 C 
HETATM   25  C16 UNL     1      25.177   3.842  50.232  1.00  0.00     0.018 C 
HETATM   26  C21 UNL     1      25.245   5.354  50.187  1.00  0.00     0.032 C 
BRANCH  25  27
HETATM   27  C17 UNL     1      24.073   3.188  49.470  1.00  0.00     0.277 C 
BRANCH  27  28
HETATM   28  N2  UNL     1      23.065   2.536  50.202  1.00  0.00     0.088 N 
HETATM   29  C18 UNL     1      23.329   1.605  51.228  1.00  0.00     0.274 C 
HETATM   30  C19 UNL     1      21.938   1.006  50.945  1.00  0.00     0.060 C 
HETATM   31  C20 UNL     1      22.172   1.630  49.557  1.00  0.00     0.274 C 
ENDBRANCH  27  28
ENDBRANCH  25  27
ENDBRANCH   3  23
BRANCH   8  32
HETATM   32  N5  UNL     1      29.866   9.892  48.676  1.00  0.00    -0.286 NA
HETATM   33  H31 UNL     1      30.585  10.496  49.141  1.00  0.00     0.125 HD
HETATM   34  H32 UNL     1      30.639  10.481  49.020  1.00  0.00     0.125 HD
ENDBRANCH   8  32
TORSDOF 5
ENDMDL
MODEL 5
REMARK VINA RESULT:      -7.8      2.493      6.391
REMARK  5 active torsions:
REMARK  status: ('A' for Active; 'I' for Inactive)
REMARK    1  A    between atoms: C11_12  and  C12_13 
REMARK    2  A    between atoms: N1_15  and  C14_16 
REMARK    3  A    between atoms: C16_18  and  C17_19 
REMARK    4  A    between atoms: C17_19  and  N2_20 
REMARK    5  A    between atoms: C24_29  and  N5_30 
ROOT
HETATM    1  C12 UNL     1      22.636   2.478  51.682  1.00  0.00    -0.009 A 
HETATM    2  C13 UNL     1      21.523   1.712  51.872  1.00  0.00     0.102 A 
HETATM    3  N1  UNL     1      21.835   0.583  52.534  1.00  0.00    -0.336 N 
HETATM    4  C22 UNL     1      23.166   0.525  52.827  1.00  0.00     0.145 A 
HETATM    5  N3  UNL     1      23.937  -0.351  53.445  1.00  0.00    -0.223 NA
HETATM    6  C23 UNL     1      25.253  -0.127  53.587  1.00  0.00     0.237 A 
HETATM    7  N4  UNL     1      25.799   0.998  53.094  1.00  0.00    -0.229 NA
HETATM    8  C24 UNL     1      25.016   1.910  52.454  1.00  0.00     0.116 A 
HETATM    9  C25 UNL     1      23.652   1.722  52.284  1.00  0.00     0.059 A 
ENDROOT
BRANCH   1  10
HETATM   10  C11 UNL     1      22.956   3.734  51.085  1.00  0.00     0.053 A 
HETATM   11  C10 UNL     1      23.367   4.194  49.891  1.00  0.00     0.025 A 
HETATM   12  C2  UNL     1      22.388   3.384  49.088  1.00  0.00    -0.002 C 
HETATM   13  C9  UNL     1      23.794   4.747  48.679  1.00  0.00    -0.030 A 
HETATM   14  C8  UNL     1      23.592   5.630  49.683  1.00  0.00     0.059 A 
HETATM   15  C7  UNL     1      23.181   5.156  50.884  1.00  0.00     0.081 A 
HETATM   16  C1  UNL     1      22.997   2.504  48.045  1.00  0.00     0.011 C 
HETATM   17  C3  UNL     1      21.408   4.341  48.433  1.00  0.00     0.005 C 
HETATM   18  C4  UNL     1      20.681   5.382  49.133  1.00  0.00     0.002 C 
HETATM   19  C5  UNL     1      21.064   6.645  49.721  1.00  0.00     0.026 C 
HETATM   20  C6  UNL     1      21.746   6.935  50.964  1.00  0.00     0.169 C 
HETATM   21  O1  UNL     1      23.141   6.552  51.102  1.00  0.00    -0.376 OA
HETATM   22  C26 UNL     1      22.767   4.624  52.073  1.00  0.00     0.003 A 
ENDBRANCH   1  10
BRANCH   3  23
HETATM   23  C14 UNL     1      20.830  -0.405  52.861  1.00  0.00     0.092 C 
HETATM   24  C15 UNL     1      20.184  -0.331  54.190  1.00  0.00     0.032 C 
HETATM   25  C16 UNL     1      18.858  -0.724  53.521  1.00  0.00     0.018 C 
HETATM   26  C21 UNL     1      19.474  -0.217  52.235  1.00  0.00     0.032 C 
BRANCH  25  27
HETATM   27  C17 UNL     1      18.684  -2.200  53.656  1.00  0.00     0.277 C 
BRANCH  27  28
HETATM   28  N2  UNL     1      17.374  -2.706  53.698  1.00  0.00     0.088 N 
HETATM   29  C18 UNL     1      17.068  -4.080  53.602  1.00  0.00     0.274 C 
HETATM   30  C19 UNL     1      15.680  -3.663  53.079  1.00  0.00     0.060 C 
HETATM   31  C20 UNL     1      16.440  -2.388  52.668  1.00  0.00     0.274 C 
ENDBRANCH  27  28
ENDBRANCH  25  27
ENDBRANCH   3  23
BRANCH   8  32
HETATM   32  N5  UNL     1      25.646   3.082  51.955  1.00  0.00    -0.286 NA
HETATM   33  H31 UNL     1      26.309   3.326  51.181  1.00  0.00     0.125 HD
HETATM   34  H32 UNL     1      26.290   3.445  51.235  1.00  0.00     0.125 HD
ENDBRANCH   8  32
TORSDOF 5
ENDMDL
MODEL 6
REMARK VINA RESULT:      -7.6      7.430      9.497
REMARK  5 active torsions:
REMARK  status: ('A' for Active; 'I' for Inactive)
REMARK    1  A    between atoms: C11_12  and  C12_13 
REMARK    2  A    between atoms: N1_15  and  C14_16 
REMARK    3  A    between atoms: C16_18  and  C17_19 
REMARK    4  A    between atoms: C17_19  and  N2_20 
REMARK    5  A    between atoms: C24_29  and  N5_30 
ROOT
HETATM    1  C12 UNL     1      27.171   7.663  48.847  1.00  0.00    -0.009 A 
HETATM    2  C13 UNL     1      27.874   6.544  48.508  1.00  0.00     0.102 A 
HETATM    3  N1  UNL     1      29.173   6.843  48.323  1.00  0.00    -0.336 N 
HETATM    4  C22 UNL     1      29.417   8.169  48.526  1.00  0.00     0.145 A 
HETATM    5  N3  UNL     1      30.496   8.928  48.469  1.00  0.00    -0.223 NA
HETATM    6  C23 UNL     1      30.426  10.243  48.729  1.00  0.00     0.237 A 
HETATM    7  N4  UNL     1      29.246  10.800  49.052  1.00  0.00    -0.229 NA
HETATM    8  C24 UNL     1      28.124  10.030  49.114  1.00  0.00     0.116 A 
HETATM    9  C25 UNL     1      28.149   8.667  48.854  1.00  0.00     0.059 A 
ENDROOT
BRANCH   1  10
HETATM   10  C11 UNL     1      25.821   7.997  49.168  1.00  0.00     0.053 A 
HETATM   11  C10 UNL     1      24.780   8.613  48.581  1.00  0.00     0.025 A 
HETATM   12  C2  UNL     1      24.922   7.899  47.266  1.00  0.00    -0.002 C 
HETATM   13  C9  UNL     1      23.655   9.241  48.037  1.00  0.00    -0.030 A 
HETATM   14  C8  UNL     1      23.503   8.757  49.290  1.00  0.00     0.059 A 
HETATM   15  C7  UNL     1      24.558   8.140  49.874  1.00  0.00     0.081 A 
HETATM   16  C1  UNL     1      25.072   8.788  46.074  1.00  0.00     0.011 C 
HETATM   17  C3  UNL     1      23.709   7.005  47.081  1.00  0.00     0.005 C 
HETATM   18  C4  UNL     1      23.224   6.060  48.068  1.00  0.00     0.002 C 
HETATM   19  C5  UNL     1      22.556   6.203  49.340  1.00  0.00     0.026 C 
HETATM   20  C6  UNL     1      23.074   6.577  50.639  1.00  0.00     0.169 C 
HETATM   21  O1  UNL     1      23.544   7.938  50.838  1.00  0.00    -0.376 OA
HETATM   22  C26 UNL     1      25.655   7.528  50.416  1.00  0.00     0.003 A 
ENDBRANCH   1  10
BRANCH   3  23
HETATM   23  C14 UNL     1      30.137   5.829  47.953  1.00  0.00     0.092 C 
HETATM   24  C15 UNL     1      31.070   6.125  46.843  1.00  0.00     0.032 C 
HETATM   25  C16 UNL     1      32.172   5.402  47.632  1.00  0.00     0.018 C 
HETATM   26  C21 UNL     1      31.327   5.671  48.859  1.00  0.00     0.032 C 
BRANCH  25  27
HETATM   27  C17 UNL     1      32.244   3.990  47.152  1.00  0.00     0.277 C 
BRANCH  27  28
HETATM   28  N2  UNL     1      33.411   3.581  46.486  1.00  0.00     0.088 N 
HETATM   29  C18 UNL     1      34.700   3.664  47.053  1.00  0.00     0.274 C 
HETATM   30  C19 UNL     1      35.253   3.712  45.616  1.00  0.00     0.060 C 
HETATM   31  C20 UNL     1      33.847   4.256  45.306  1.00  0.00     0.274 C 
ENDBRANCH  27  28
ENDBRANCH  25  27
ENDBRANCH   3  23
BRANCH   8  32
HETATM   32  N5  UNL     1      26.905  10.672  49.462  1.00  0.00    -0.286 NA
HETATM   33  H31 UNL     1      26.531  11.220  50.272  1.00  0.00     0.125 HD
HETATM   34  H32 UNL     1      26.426  11.221  50.192  1.00  0.00     0.125 HD
ENDBRANCH   8  32
TORSDOF 5
ENDMDL
MODEL 7
REMARK VINA RESULT:      -7.5      5.985      7.850
REMARK  5 active torsions:
REMARK  status: ('A' for Active; 'I' for Inactive)
REMARK    1  A    between atoms: C11_12  and  C12_13 
REMARK    2  A    between atoms: N1_15  and  C14_16 
REMARK    3  A    between atoms: C16_18  and  C17_19 
REMARK    4  A    between atoms: C17_19  and  N2_20 
REMARK    5  A    between atoms: C24_29  and  N5_30 
ROOT
HETATM    1  C12 UNL     1      24.955   6.355  49.164  1.00  0.00    -0.009 A 
HETATM    2  C13 UNL     1      26.227   5.936  48.903  1.00  0.00     0.102 A 
HETATM    3  N1  UNL     1      26.901   6.878  48.219  1.00  0.00    -0.336 N 
HETATM    4  C22 UNL     1      26.128   7.977  47.983  1.00  0.00     0.145 A 
HETATM    5  N3  UNL     1      26.328   9.131  47.373  1.00  0.00    -0.223 NA
HETATM    6  C23 UNL     1      25.348  10.047  47.299  1.00  0.00     0.237 A 
HETATM    7  N4  UNL     1      24.149   9.791  47.850  1.00  0.00    -0.229 NA
HETATM    8  C24 UNL     1      23.929   8.605  48.482  1.00  0.00     0.116 A 
HETATM    9  C25 UNL     1      24.911   7.630  48.584  1.00  0.00     0.059 A 
ENDROOT
BRANCH   1  10
HETATM   10  C11 UNL     1      23.798   5.846  49.828  1.00  0.00     0.053 A 
HETATM   11  C10 UNL     1      22.564   5.427  49.499  1.00  0.00     0.025 A 
HETATM   12  C2  UNL     1      23.012   4.576  48.343  1.00  0.00    -0.002 C 
HETATM   13  C9  UNL     1      21.266   4.978  49.235  1.00  0.00    -0.030 A 
HETATM   14  C8  UNL     1      21.635   4.960  50.535  1.00  0.00     0.059 A 
HETATM   15  C7  UNL     1      22.880   5.387  50.857  1.00  0.00     0.081 A 
HETATM   16  C1  UNL     1      22.368   4.897  47.033  1.00  0.00     0.011 C 
HETATM   17  C3  UNL     1      22.746   3.124  48.695  1.00  0.00     0.005 C 
HETATM   18  C4  UNL     1      23.166   2.485  49.927  1.00  0.00     0.002 C 
HETATM   19  C5  UNL     1      22.735   2.589  51.302  1.00  0.00     0.026 C 
HETATM   20  C6  UNL     1      22.992   3.611  52.294  1.00  0.00     0.169 C 
HETATM   21  O1  UNL     1      22.407   4.928  52.107  1.00  0.00    -0.376 OA
HETATM   22  C26 UNL     1      24.146   5.828  51.125  1.00  0.00     0.003 A 
ENDBRANCH   1  10
BRANCH   3  23
HETATM   23  C14 UNL     1      28.277   6.680  47.814  1.00  0.00     0.092 C 
HETATM   24  C15 UNL     1      29.331   7.425  48.537  1.00  0.00     0.032 C 
HETATM   25  C16 UNL     1      30.217   6.174  48.447  1.00  0.00     0.018 C 
HETATM   26  C21 UNL     1      28.930   5.400  48.259  1.00  0.00     0.032 C 
BRANCH  25  27
HETATM   27  C17 UNL     1      31.108   6.314  47.257  1.00  0.00     0.277 C 
BRANCH  27  28
HETATM   28  N2  UNL     1      32.446   5.905  47.385  1.00  0.00     0.088 N 
HETATM   29  C18 UNL     1      32.828   4.642  47.887  1.00  0.00     0.274 C 
HETATM   30  C19 UNL     1      34.170   5.285  48.284  1.00  0.00     0.060 C 
HETATM   31  C20 UNL     1      33.324   6.571  48.290  1.00  0.00     0.274 C 
ENDBRANCH  27  28
ENDBRANCH  25  27
ENDBRANCH   3  23
BRANCH   8  32
HETATM   32  N5  UNL     1      22.643   8.390  49.048  1.00  0.00    -0.286 NA
HETATM   33  H31 UNL     1      21.731   7.975  48.742  1.00  0.00     0.125 HD
HETATM   34  H32 UNL     1      21.701   8.012  48.866  1.00  0.00     0.125 HD
ENDBRANCH   8  32
TORSDOF 5
ENDMDL
MODEL 8
REMARK VINA RESULT:      -7.4      5.250      8.717
REMARK  5 active torsions:
REMARK  status: ('A' for Active; 'I' for Inactive)
REMARK    1  A    between atoms: C11_12  and  C12_13 
REMARK    2  A    between atoms: N1_15  and  C14_16 
REMARK    3  A    between atoms: C16_18  and  C17_19 
REMARK    4  A    between atoms: C17_19  and  N2_20 
REMARK    5  A    between atoms: C24_29  and  N5_30 
ROOT
HETATM    1  C12 UNL     1      24.091   4.901  49.343  1.00  0.00    -0.009 A 
HETATM    2  C13 UNL     1      23.610   6.126  48.982  1.00  0.00     0.102 A 
HETATM    3  N1  UNL     1      24.611   6.917  48.554  1.00  0.00    -0.336 N 
HETATM    4  C22 UNL     1      25.813   6.274  48.600  1.00  0.00     0.145 A 
HETATM    5  N3  UNL     1      27.052   6.613  48.293  1.00  0.00    -0.223 NA
HETATM    6  C23 UNL     1      28.061   5.741  48.448  1.00  0.00     0.237 A 
HETATM    7  N4  UNL     1      27.813   4.506  48.921  1.00  0.00    -0.229 NA
HETATM    8  C24 UNL     1      26.540   4.144  49.241  1.00  0.00     0.116 A 
HETATM    9  C25 UNL     1      25.467   5.011  49.097  1.00  0.00     0.059 A 
ENDROOT
BRANCH   1  10
HETATM   10  C11 UNL     1      23.564   3.674  49.846  1.00  0.00     0.053 A 
HETATM   11  C10 UNL     1      23.439   3.055  51.033  1.00  0.00     0.025 A 
HETATM   12  C2  UNL     1      22.935   4.267  51.766  1.00  0.00    -0.002 C 
HETATM   13  C9  UNL     1      23.274   2.350  52.229  1.00  0.00    -0.030 A 
HETATM   14  C8  UNL     1      22.806   1.734  51.121  1.00  0.00     0.059 A 
HETATM   15  C7  UNL     1      22.939   2.364  49.929  1.00  0.00     0.081 A 
HETATM   16  C1  UNL     1      23.729   4.655  52.971  1.00  0.00     0.011 C 
HETATM   17  C3  UNL     1      21.495   4.008  52.171  1.00  0.00     0.005 C 
HETATM   18  C4  UNL     1      20.455   3.549  51.269  1.00  0.00     0.002 C 
HETATM   19  C5  UNL     1      20.187   2.289  50.615  1.00  0.00     0.026 C 
HETATM   20  C6  UNL     1      20.809   1.679  49.459  1.00  0.00     0.169 C 
HETATM   21  O1  UNL     1      22.186   1.225  49.564  1.00  0.00    -0.376 OA
HETATM   22  C26 UNL     1      23.100   3.044  48.754  1.00  0.00     0.003 A 
ENDBRANCH   1  10
BRANCH   3  23
HETATM   23  C14 UNL     1      24.368   8.275  48.114  1.00  0.00     0.092 C 
HETATM   24  C15 UNL     1      25.057   9.373  48.827  1.00  0.00     0.032 C 
HETATM   25  C16 UNL     1      25.245  10.076  47.474  1.00  0.00     0.018 C 
HETATM   26  C21 UNL     1      25.065   8.707  46.853  1.00  0.00     0.032 C 
BRANCH  25  27
HETATM   27  C17 UNL     1      24.132  11.055  47.295  1.00  0.00     0.277 C 
BRANCH  27  28
HETATM   28  N2  UNL     1      24.465  12.417  47.194  1.00  0.00     0.088 N 
HETATM   29  C18 UNL     1      25.571  12.997  47.850  1.00  0.00     0.274 C 
HETATM   30  C19 UNL     1      24.819  14.340  47.780  1.00  0.00     0.060 C 
HETATM   31  C20 UNL     1      23.588  13.418  47.708  1.00  0.00     0.274 C 
ENDBRANCH  27  28
ENDBRANCH  25  27
ENDBRANCH   3  23
BRANCH   8  32
HETATM   32  N5  UNL     1      26.337   2.826  49.734  1.00  0.00    -0.286 NA
HETATM   33  H31 UNL     1      25.931   1.929  49.377  1.00  0.00     0.125 HD
HETATM   34  H32 UNL     1      25.968   1.892  49.500  1.00  0.00     0.125 HD
ENDBRANCH   8  32
TORSDOF 5
ENDMDL
MODEL 9
REMARK VINA RESULT:      -7.3      7.289      9.583
REMARK  5 active torsions:
REMARK  status: ('A' for Active; 'I' for Inactive)
REMARK    1  A    between atoms: C11_12  and  C12_13 
REMARK    2  A    between atoms: N1_15  and  C14_16 
REMARK    3  A    between atoms: C16_18  and  C17_19 
REMARK    4  A    between atoms: C17_19  and  N2_20 
REMARK    5  A    between atoms: C24_29  and  N5_30 
ROOT
HETATM    1  C12 UNL     1      27.749   7.382  47.821  1.00  0.00    -0.009 A 
HETATM    2  C13 UNL     1      27.450   6.395  48.714  1.00  0.00     0.102 A 
HETATM    3  N1  UNL     1      26.123   6.177  48.748  1.00  0.00    -0.336 N 
HETATM    4  C22 UNL     1      25.457   6.998  47.886  1.00  0.00     0.145 A 
HETATM    5  N3  UNL     1      24.187   7.162  47.564  1.00  0.00    -0.223 NA
HETATM    6  C23 UNL     1      23.823   8.076  46.651  1.00  0.00     0.237 A 
HETATM    7  N4  UNL     1      24.758   8.837  46.054  1.00  0.00    -0.229 NA
HETATM    8  C24 UNL     1      26.071   8.678  46.376  1.00  0.00     0.116 A 
HETATM    9  C25 UNL     1      26.494   7.746  47.313  1.00  0.00     0.059 A 
ENDROOT
BRANCH   1  10
HETATM   10  C11 UNL     1      28.919   8.042  47.338  1.00  0.00     0.053 A 
HETATM   11  C10 UNL     1      29.444   9.280  47.353  1.00  0.00     0.025 A 
HETATM   12  C2  UNL     1      29.180   9.522  48.813  1.00  0.00    -0.002 C 
HETATM   13  C9  UNL     1      30.050  10.540  47.326  1.00  0.00    -0.030 A 
HETATM   14  C8  UNL     1      30.733   9.551  46.707  1.00  0.00     0.059 A 
HETATM   15  C7  UNL     1      30.196   8.307  46.695  1.00  0.00     0.081 A 
HETATM   16  C1  UNL     1      28.372  10.742  49.119  1.00  0.00     0.011 C 
HETATM   17  C3  UNL     1      30.518   9.610  49.525  1.00  0.00     0.005 C 
HETATM   18  C4  UNL     1      31.582   8.631  49.405  1.00  0.00     0.002 C 
HETATM   19  C5  UNL     1      32.502   8.284  48.347  1.00  0.00     0.026 C 
HETATM   20  C6  UNL     1      32.297   7.520  47.136  1.00  0.00     0.169 C 
HETATM   21  O1  UNL     1      31.453   8.077  46.092  1.00  0.00    -0.376 OA
HETATM   22  C26 UNL     1      29.608   7.073  46.713  1.00  0.00     0.003 A 
ENDBRANCH   1  10
BRANCH   3  23
HETATM   23  C14 UNL     1      25.543   5.178  49.620  1.00  0.00     0.092 C 
HETATM   24  C15 UNL     1      24.444   4.341  49.088  1.00  0.00     0.032 C 
HETATM   25  C16 UNL     1      25.045   3.146  49.843  1.00  0.00     0.018 C 
HETATM   26  C21 UNL     1      26.345   3.922  49.829  1.00  0.00     0.032 C 
BRANCH  25  27
HETATM   27  C17 UNL     1      24.343   3.018  51.153  1.00  0.00     0.277 C 
BRANCH  27  28
HETATM   28  N2  UNL     1      24.169   1.728  51.682  1.00  0.00     0.088 N 
HETATM   29  C18 UNL     1      23.424   1.460  52.850  1.00  0.00     0.274 C 
HETATM   30  C19 UNL     1      24.273   0.186  53.015  1.00  0.00     0.060 C 
HETATM   31  C20 UNL     1      25.285   0.992  52.181  1.00  0.00     0.274 C 
ENDBRANCH  27  28
ENDBRANCH  25  27
ENDBRANCH   3  23
BRANCH   8  32
HETATM   32  N5  UNL     1      27.015   9.508  45.712  1.00  0.00    -0.286 NA
HETATM   33  H31 UNL     1      27.577  10.362  45.939  1.00  0.00     0.125 HD
HETATM   34  H32 UNL     1      27.616  10.340  45.814  1.00  0.00     0.125 HD
ENDBRANCH   8  32
TORSDOF 5
ENDMDL
