MODEL 1
REMARK VINA RESULT:      -9.9      0.000      0.000
REMARK  2 active torsions:
REMARK  status: ('A' for Active; 'I' for Inactive)
REMARK    1  A    between atoms: C1_2  and  N1_3 
REMARK    2  A    between atoms: N1_3  and  C2_4 
ROOT
HETATM    1  C2  UNL     1      26.762  -0.070  53.241  1.00  0.00     0.037 A 
HETATM    2  C3  UNL     1      26.672   0.915  52.287  1.00  0.00     0.061 A 
HETATM    3  C4  UNL     1      25.486   1.436  51.820  1.00  0.00     0.061 A 
HETATM    4  C5  UNL     1      24.325   0.923  52.358  1.00  0.00     0.073 A 
HETATM    5  C6  UNL     1      24.349  -0.064  53.316  1.00  0.00     0.008 A 
HETATM    6  C7  UNL     1      25.568  -0.540  53.738  1.00  0.00     0.044 A 
HETATM    7  C8  UNL     1      23.020  -0.301  53.592  1.00  0.00     0.003 A 
HETATM    8  C9  UNL     1      22.498  -1.211  54.493  1.00  0.00     0.014 A 
HETATM    9  C10 UNL     1      21.105  -1.255  54.583  1.00  0.00     0.001 A 
HETATM   10  C11 UNL     1      20.327  -0.413  53.791  1.00  0.00     0.002 A 
HETATM   11  C12 UNL     1      20.878   0.482  52.902  1.00  0.00     0.030 A 
HETATM   12  C13 UNL     1      22.244   0.550  52.792  1.00  0.00     0.046 A 
HETATM   13  N2  UNL     1      23.091   1.282  52.051  1.00  0.00    -0.341 N 
HETATM   14  C14 UNL     1      22.884   2.298  51.073  1.00  0.00     0.158 A 
HETATM   15  C15 UNL     1      24.062   2.864  50.409  1.00  0.00     0.126 A 
HETATM   16  C16 UNL     1      23.897   4.365  50.422  1.00  0.00    -0.000 C 
HETATM   17  C17 UNL     1      24.721   5.294  49.907  1.00  0.00    -0.002 C 
HETATM   18  C18 UNL     1      25.990   5.011  49.203  1.00  0.00    -0.003 C 
HETATM   19  C19 UNL     1      26.758   3.973  49.484  1.00  0.00    -0.007 C 
HETATM   20  C20 UNL     1      26.653   2.886  50.445  1.00  0.00     0.151 C 
HETATM   21  N3  UNL     1      25.362   2.453  50.836  1.00  0.00    -0.366 N 
ENDROOT
BRANCH   1  22
HETATM   22  N1  UNL     1      27.928  -0.634  53.749  1.00  0.00    -0.334 N 
HETATM   23  H2  UNL     1      28.147  -1.646  53.601  1.00  0.00     0.168 HD
BRANCH  22  24
HETATM   24  C1  UNL     1      28.976  -0.046  54.500  1.00  0.00     0.353 C 
HETATM   25  O1  UNL     1      28.728   0.996  55.155  1.00  0.00    -0.283 OA
ENDBRANCH  22  24
ENDBRANCH   1  22
TORSDOF 2
ENDMDL
MODEL 2
REMARK VINA RESULT:      -9.4      0.803      5.250
REMARK  2 active torsions:
REMARK  status: ('A' for Active; 'I' for Inactive)
REMARK    1  A    between atoms: C1_2  and  N1_3 
REMARK    2  A    between atoms: N1_3  and  C2_4 
ROOT
HETATM    1  C2  UNL     1      26.552  -0.322  52.936  1.00  0.00     0.037 A 
HETATM    2  C3  UNL     1      25.242  -0.468  53.321  1.00  0.00     0.061 A 
HETATM    3  C4  UNL     1      24.214   0.350  52.905  1.00  0.00     0.061 A 
HETATM    4  C5  UNL     1      24.544   1.376  52.047  1.00  0.00     0.073 A 
HETATM    5  C6  UNL     1      25.839   1.576  51.624  1.00  0.00     0.008 A 
HETATM    6  C7  UNL     1      26.816   0.722  52.078  1.00  0.00     0.044 A 
HETATM    7  C8  UNL     1      25.759   2.674  50.796  1.00  0.00     0.003 A 
HETATM    8  C9  UNL     1      26.792   3.286  50.111  1.00  0.00     0.014 A 
HETATM    9  C10 UNL     1      26.443   4.392  49.333  1.00  0.00     0.001 A 
HETATM   10  C11 UNL     1      25.117   4.818  49.281  1.00  0.00     0.002 A 
HETATM   11  C12 UNL     1      24.110   4.187  49.976  1.00  0.00     0.030 A 
HETATM   12  C13 UNL     1      24.423   3.096  50.749  1.00  0.00     0.046 A 
HETATM   13  N2  UNL     1      23.716   2.268  51.534  1.00  0.00    -0.341 N 
HETATM   14  C14 UNL     1      22.332   2.206  51.868  1.00  0.00     0.158 A 
HETATM   15  C15 UNL     1      21.898   1.177  52.818  1.00  0.00     0.126 A 
HETATM   16  C16 UNL     1      20.670   0.524  52.231  1.00  0.00    -0.000 C 
HETATM   17  C17 UNL     1      19.919  -0.457  52.762  1.00  0.00    -0.002 C 
HETATM   18  C18 UNL     1      20.163  -1.106  54.068  1.00  0.00    -0.003 C 
HETATM   19  C19 UNL     1      21.370  -1.265  54.583  1.00  0.00    -0.007 C 
HETATM   20  C20 UNL     1      22.704  -0.911  54.123  1.00  0.00     0.151 C 
HETATM   21  N3  UNL     1      22.852   0.223  53.287  1.00  0.00    -0.366 N 
ENDROOT
BRANCH   1  22
HETATM   22  N1  UNL     1      27.628  -1.114  53.321  1.00  0.00    -0.334 N 
HETATM   23  H2  UNL     1      27.571  -2.158  53.279  1.00  0.00     0.168 HD
BRANCH  22  24
HETATM   24  C1  UNL     1      28.908  -0.746  53.804  1.00  0.00     0.353 C 
HETATM   25  O1  UNL     1      28.973  -0.002  54.813  1.00  0.00    -0.283 OA
ENDBRANCH  22  24
ENDBRANCH   1  22
TORSDOF 2
ENDMDL
MODEL 3
REMARK VINA RESULT:      -9.0      2.044      5.869
REMARK  2 active torsions:
REMARK  status: ('A' for Active; 'I' for Inactive)
REMARK    1  A    between atoms: C1_2  and  N1_3 
REMARK    2  A    between atoms: N1_3  and  C2_4 
ROOT
HETATM    1  C2  UNL     1      25.052   3.205  50.334  1.00  0.00     0.037 A 
HETATM    2  C3  UNL     1      23.937   2.470  50.656  1.00  0.00     0.061 A 
HETATM    3  C4  UNL     1      23.893   1.527  51.659  1.00  0.00     0.061 A 
HETATM    4  C5  UNL     1      25.053   1.323  52.374  1.00  0.00     0.073 A 
HETATM    5  C6  UNL     1      26.202   2.028  52.100  1.00  0.00     0.008 A 
HETATM    6  C7  UNL     1      26.178   2.955  51.085  1.00  0.00     0.044 A 
HETATM    7  C8  UNL     1      27.119   1.548  53.010  1.00  0.00     0.003 A 
HETATM    8  C9  UNL     1      28.439   1.933  53.155  1.00  0.00     0.014 A 
HETATM    9  C10 UNL     1      29.160   1.287  54.163  1.00  0.00     0.001 A 
HETATM   10  C11 UNL     1      28.542   0.317  54.950  1.00  0.00     0.002 A 
HETATM   11  C12 UNL     1      27.225  -0.044  54.780  1.00  0.00     0.030 A 
HETATM   12  C13 UNL     1      26.491   0.574  53.798  1.00  0.00     0.046 A 
HETATM   13  N2  UNL     1      25.223   0.471  53.369  1.00  0.00    -0.341 N 
HETATM   14  C14 UNL     1      24.128  -0.341  53.785  1.00  0.00     0.158 A 
HETATM   15  C15 UNL     1      22.867  -0.230  53.045  1.00  0.00     0.126 A 
HETATM   16  C16 UNL     1      21.763  -0.120  54.068  1.00  0.00    -0.000 C 
HETATM   17  C17 UNL     1      20.440  -0.019  53.853  1.00  0.00    -0.002 C 
HETATM   18  C18 UNL     1      19.792   0.002  52.523  1.00  0.00    -0.003 C 
HETATM   19  C19 UNL     1      20.367   0.510  51.447  1.00  0.00    -0.007 C 
HETATM   20  C20 UNL     1      21.657   1.138  51.207  1.00  0.00     0.151 C 
HETATM   21  N3  UNL     1      22.756   0.752  52.013  1.00  0.00    -0.366 N 
ENDROOT
BRANCH   1  22
HETATM   22  N1  UNL     1      25.156   4.168  49.335  1.00  0.00    -0.334 N 
HETATM   23  H2  UNL     1      24.491   4.182  48.528  1.00  0.00     0.168 HD
BRANCH  22  24
HETATM   24  C1  UNL     1      26.075   5.236  49.187  1.00  0.00     0.353 C 
HETATM   25  O1  UNL     1      27.154   5.015  48.585  1.00  0.00    -0.283 OA
ENDBRANCH  22  24
ENDBRANCH   1  22
TORSDOF 2
ENDMDL
MODEL 4
REMARK VINA RESULT:      -9.0      2.310      4.750
REMARK  2 active torsions:
REMARK  status: ('A' for Active; 'I' for Inactive)
REMARK    1  A    between atoms: C1_2  and  N1_3 
REMARK    2  A    between atoms: N1_3  and  C2_4 
ROOT
HETATM    1  C2  UNL     1      23.850   3.361  51.656  1.00  0.00     0.037 A 
HETATM    2  C3  UNL     1      25.042   2.908  52.167  1.00  0.00     0.061 A 
HETATM    3  C4  UNL     1      25.179   1.759  52.914  1.00  0.00     0.061 A 
HETATM    4  C5  UNL     1      24.034   1.032  53.154  1.00  0.00     0.073 A 
HETATM    5  C6  UNL     1      22.810   1.433  52.670  1.00  0.00     0.008 A 
HETATM    6  C7  UNL     1      22.743   2.589  51.930  1.00  0.00     0.044 A 
HETATM    7  C8  UNL     1      21.937   0.464  53.113  1.00  0.00     0.003 A 
HETATM    8  C9  UNL     1      20.573   0.399  52.895  1.00  0.00     0.014 A 
HETATM    9  C10 UNL     1      19.912  -0.696  53.458  1.00  0.00     0.001 A 
HETATM   10  C11 UNL     1      20.627  -1.643  54.188  1.00  0.00     0.002 A 
HETATM   11  C12 UNL     1      21.987  -1.549  54.388  1.00  0.00     0.030 A 
HETATM   12  C13 UNL     1      22.663  -0.485  53.847  1.00  0.00     0.046 A 
HETATM   13  N2  UNL     1      23.947  -0.092  53.844  1.00  0.00    -0.341 N 
HETATM   14  C14 UNL     1      25.126  -0.650  54.417  1.00  0.00     0.158 A 
HETATM   15  C15 UNL     1      26.384   0.085  54.258  1.00  0.00     0.126 A 
HETATM   16  C16 UNL     1      27.429  -0.916  53.828  1.00  0.00    -0.000 C 
HETATM   17  C17 UNL     1      28.734  -0.699  53.584  1.00  0.00    -0.002 C 
HETATM   18  C18 UNL     1      29.416   0.608  53.695  1.00  0.00    -0.003 C 
HETATM   19  C19 UNL     1      28.815   1.761  53.457  1.00  0.00    -0.007 C 
HETATM   20  C20 UNL     1      27.461   2.116  53.061  1.00  0.00     0.151 C 
HETATM   21  N3  UNL     1      26.398   1.267  53.456  1.00  0.00    -0.366 N 
ENDROOT
BRANCH   1  22
HETATM   22  N1  UNL     1      23.651   4.509  50.896  1.00  0.00    -0.334 N 
HETATM   23  H2  UNL     1      23.318   4.450  49.906  1.00  0.00     0.168 HD
BRANCH  22  24
HETATM   24  C1  UNL     1      23.829   5.873  51.236  1.00  0.00     0.353 C 
HETATM   25  O1  UNL     1      24.863   6.458  50.833  1.00  0.00    -0.283 OA
ENDBRANCH  22  24
ENDBRANCH   1  22
TORSDOF 2
ENDMDL
MODEL 5
REMARK VINA RESULT:      -8.1      2.534      5.196
REMARK  2 active torsions:
REMARK  status: ('A' for Active; 'I' for Inactive)
REMARK    1  A    between atoms: C1_2  and  N1_3 
REMARK    2  A    between atoms: N1_3  and  C2_4 
ROOT
HETATM    1  C2  UNL     1      25.693   3.968  49.917  1.00  0.00     0.037 A 
HETATM    2  C3  UNL     1      26.417   3.295  50.871  1.00  0.00     0.061 A 
HETATM    3  C4  UNL     1      25.918   2.270  51.644  1.00  0.00     0.061 A 
HETATM    4  C5  UNL     1      24.605   1.911  51.430  1.00  0.00     0.073 A 
HETATM    5  C6  UNL     1      23.828   2.546  50.489  1.00  0.00     0.008 A 
HETATM    6  C7  UNL     1      24.388   3.562  49.751  1.00  0.00     0.044 A 
HETATM    7  C8  UNL     1      22.606   1.915  50.576  1.00  0.00     0.003 A 
HETATM    8  C9  UNL     1      21.468   2.180  49.837  1.00  0.00     0.014 A 
HETATM    9  C10 UNL     1      20.352   1.390  50.122  1.00  0.00     0.001 A 
HETATM   10  C11 UNL     1      20.428   0.403  51.102  1.00  0.00     0.002 A 
HETATM   11  C12 UNL     1      21.577   0.163  51.822  1.00  0.00     0.030 A 
HETATM   12  C13 UNL     1      22.691   0.924  51.564  1.00  0.00     0.046 A 
HETATM   13  N2  UNL     1      23.938   0.960  52.059  1.00  0.00    -0.341 N 
HETATM   14  C14 UNL     1      24.595   0.199  53.069  1.00  0.00     0.158 A 
HETATM   15  C15 UNL     1      25.980   0.547  53.401  1.00  0.00     0.126 A 
HETATM   16  C16 UNL     1      26.761  -0.744  53.449  1.00  0.00    -0.000 C 
HETATM   17  C17 UNL     1      28.063  -0.915  53.737  1.00  0.00    -0.002 C 
HETATM   18  C18 UNL     1      29.012   0.168  54.072  1.00  0.00    -0.003 C 
HETATM   19  C19 UNL     1      28.914   1.393  53.584  1.00  0.00    -0.007 C 
HETATM   20  C20 UNL     1      27.976   2.031  52.674  1.00  0.00     0.151 C 
HETATM   21  N3  UNL     1      26.642   1.557  52.637  1.00  0.00    -0.366 N 
ENDROOT
BRANCH   1  22
HETATM   22  N1  UNL     1      26.142   5.007  49.108  1.00  0.00    -0.334 N 
HETATM   23  H2  UNL     1      27.115   5.009  48.723  1.00  0.00     0.168 HD
BRANCH  22  24
HETATM   24  C1  UNL     1      25.473   6.174  48.664  1.00  0.00     0.353 C 
HETATM   25  O1  UNL     1      26.087   6.958  47.899  1.00  0.00    -0.283 OA
ENDBRANCH  22  24
ENDBRANCH   1  22
TORSDOF 2
ENDMDL
MODEL 6
REMARK VINA RESULT:      -7.9      2.845      5.232
REMARK  2 active torsions:
REMARK  status: ('A' for Active; 'I' for Inactive)
REMARK    1  A    between atoms: C1_2  and  N1_3 
REMARK    2  A    between atoms: N1_3  and  C2_4 
ROOT
HETATM    1  C2  UNL     1      21.092   0.492  53.433  1.00  0.00     0.037 A 
HETATM    2  C3  UNL     1      21.011   1.651  52.700  1.00  0.00     0.061 A 
HETATM    3  C4  UNL     1      22.088   2.269  52.103  1.00  0.00     0.061 A 
HETATM    4  C5  UNL     1      23.318   1.669  52.264  1.00  0.00     0.073 A 
HETATM    5  C6  UNL     1      23.465   0.507  52.987  1.00  0.00     0.008 A 
HETATM    6  C7  UNL     1      22.349  -0.057  53.556  1.00  0.00     0.044 A 
HETATM    7  C8  UNL     1      24.813   0.233  52.916  1.00  0.00     0.003 A 
HETATM    8  C9  UNL     1      25.484  -0.836  53.482  1.00  0.00     0.014 A 
HETATM    9  C10 UNL     1      26.863  -0.883  53.260  1.00  0.00     0.001 A 
HETATM   10  C11 UNL     1      27.482   0.110  52.505  1.00  0.00     0.002 A 
HETATM   11  C12 UNL     1      26.785   1.163  51.954  1.00  0.00     0.030 A 
HETATM   12  C13 UNL     1      25.430   1.236  52.155  1.00  0.00     0.046 A 
HETATM   13  N2  UNL     1      24.470   2.095  51.777  1.00  0.00    -0.341 N 
HETATM   14  C14 UNL     1      24.498   3.289  51.000  1.00  0.00     0.158 A 
HETATM   15  C15 UNL     1      23.242   4.025  50.821  1.00  0.00     0.126 A 
HETATM   16  C16 UNL     1      23.136   4.366  49.355  1.00  0.00    -0.000 C 
HETATM   17  C17 UNL     1      22.163   5.054  48.732  1.00  0.00    -0.002 C 
HETATM   18  C18 UNL     1      20.968   5.626  49.390  1.00  0.00    -0.003 C 
HETATM   19  C19 UNL     1      20.396   5.083  50.451  1.00  0.00    -0.007 C 
HETATM   20  C20 UNL     1      20.689   3.900  51.246  1.00  0.00     0.151 C 
HETATM   21  N3  UNL     1      22.034   3.467  51.341  1.00  0.00    -0.366 N 
ENDROOT
BRANCH   1  22
HETATM   22  N1  UNL     1      20.043  -0.175  54.056  1.00  0.00    -0.334 N 
HETATM   23  H2  UNL     1      19.861  -0.057  55.080  1.00  0.00     0.168 HD
BRANCH  22  24
HETATM   24  C1  UNL     1      19.083  -1.069  53.522  1.00  0.00     0.353 C 
HETATM   25  O1  UNL     1      18.275  -0.634  52.666  1.00  0.00    -0.283 OA
ENDBRANCH  22  24
ENDBRANCH   1  22
TORSDOF 2
ENDMDL
MODEL 7
REMARK VINA RESULT:      -7.9      2.997      7.136
REMARK  2 active torsions:
REMARK  status: ('A' for Active; 'I' for Inactive)
REMARK    1  A    between atoms: C1_2  and  N1_3 
REMARK    2  A    between atoms: N1_3  and  C2_4 
ROOT
HETATM    1  C2  UNL     1      20.862   3.302  51.777  1.00  0.00     0.037 A 
HETATM    2  C3  UNL     1      21.237   2.174  52.466  1.00  0.00     0.061 A 
HETATM    3  C4  UNL     1      22.507   1.642  52.450  1.00  0.00     0.061 A 
HETATM    4  C5  UNL     1      23.448   2.299  51.687  1.00  0.00     0.073 A 
HETATM    5  C6  UNL     1      23.135   3.433  50.975  1.00  0.00     0.008 A 
HETATM    6  C7  UNL     1      21.848   3.912  51.034  1.00  0.00     0.044 A 
HETATM    7  C8  UNL     1      24.316   3.782  50.357  1.00  0.00     0.003 A 
HETATM    8  C9  UNL     1      24.540   4.859  49.518  1.00  0.00     0.014 A 
HETATM    9  C10 UNL     1      25.838   4.989  49.020  1.00  0.00     0.001 A 
HETATM   10  C11 UNL     1      26.818   4.065  49.375  1.00  0.00     0.002 A 
HETATM   11  C12 UNL     1      26.563   3.002  50.213  1.00  0.00     0.030 A 
HETATM   12  C13 UNL     1      25.297   2.848  50.719  1.00  0.00     0.046 A 
HETATM   13  N2  UNL     1      24.715   1.956  51.537  1.00  0.00    -0.341 N 
HETATM   14  C14 UNL     1      25.209   0.801  52.209  1.00  0.00     0.158 A 
HETATM   15  C15 UNL     1      24.264   0.009  53.002  1.00  0.00     0.126 A 
HETATM   16  C16 UNL     1      24.927  -0.272  54.328  1.00  0.00    -0.000 C 
HETATM   17  C17 UNL     1      24.444  -0.982  55.363  1.00  0.00    -0.002 C 
HETATM   18  C18 UNL     1      23.123  -1.646  55.398  1.00  0.00    -0.003 C 
HETATM   19  C19 UNL     1      22.063  -1.183  54.761  1.00  0.00    -0.007 C 
HETATM   20  C20 UNL     1      21.838  -0.022  53.912  1.00  0.00     0.151 C 
HETATM   21  N3  UNL     1      22.923   0.478  53.151  1.00  0.00    -0.366 N 
ENDROOT
BRANCH   1  22
HETATM   22  N1  UNL     1      19.599   3.885  51.755  1.00  0.00    -0.334 N 
HETATM   23  H2  UNL     1      19.196   4.331  52.611  1.00  0.00     0.168 HD
BRANCH  22  24
HETATM   24  C1  UNL     1      18.664   4.002  50.697  1.00  0.00     0.353 C 
HETATM   25  O1  UNL     1      18.603   5.090  50.074  1.00  0.00    -0.283 OA
ENDBRANCH  22  24
ENDBRANCH   1  22
TORSDOF 2
ENDMDL
MODEL 8
REMARK VINA RESULT:      -7.8      2.614      5.102
REMARK  2 active torsions:
REMARK  status: ('A' for Active; 'I' for Inactive)
REMARK    1  A    between atoms: C1_2  and  N1_3 
REMARK    2  A    between atoms: N1_3  and  C2_4 
ROOT
HETATM    1  C2  UNL     1      25.975   4.338  49.687  1.00  0.00     0.037 A 
HETATM    2  C3  UNL     1      24.601   4.342  49.664  1.00  0.00     0.061 A 
HETATM    3  C4  UNL     1      23.811   3.427  50.324  1.00  0.00     0.061 A 
HETATM    4  C5  UNL     1      24.461   2.452  51.050  1.00  0.00     0.073 A 
HETATM    5  C6  UNL     1      25.834   2.395  51.113  1.00  0.00     0.008 A 
HETATM    6  C7  UNL     1      26.563   3.339  50.430  1.00  0.00     0.044 A 
HETATM    7  C8  UNL     1      26.091   1.305  51.917  1.00  0.00     0.003 A 
HETATM    8  C9  UNL     1      27.326   0.814  52.297  1.00  0.00     0.014 A 
HETATM    9  C10 UNL     1      27.311  -0.312  53.124  1.00  0.00     0.001 A 
HETATM   10  C11 UNL     1      26.098  -0.873  53.517  1.00  0.00     0.002 A 
HETATM   11  C12 UNL     1      24.884  -0.360  53.121  1.00  0.00     0.030 A 
HETATM   12  C13 UNL     1      24.866   0.747  52.309  1.00  0.00     0.046 A 
HETATM   13  N2  UNL     1      23.894   1.486  51.751  1.00  0.00    -0.341 N 
HETATM   14  C14 UNL     1      22.473   1.399  51.794  1.00  0.00     0.158 A 
HETATM   15  C15 UNL     1      21.699   2.364  51.007  1.00  0.00     0.126 A 
HETATM   16  C16 UNL     1      20.608   2.893  51.906  1.00  0.00    -0.000 C 
HETATM   17  C17 UNL     1      19.645   3.783  51.607  1.00  0.00    -0.002 C 
HETATM   18  C18 UNL     1      19.468   4.436  50.292  1.00  0.00    -0.003 C 
HETATM   19  C19 UNL     1      20.473   4.713  49.480  1.00  0.00    -0.007 C 
HETATM   20  C20 UNL     1      21.910   4.507  49.565  1.00  0.00     0.151 C 
HETATM   21  N3  UNL     1      22.390   3.406  50.317  1.00  0.00    -0.366 N 
ENDROOT
BRANCH   1  22
HETATM   22  N1  UNL     1      26.823   5.233  49.043  1.00  0.00    -0.334 N 
HETATM   23  H2  UNL     1      26.540   6.228  48.890  1.00  0.00     0.168 HD
BRANCH  22  24
HETATM   24  C1  UNL     1      28.118   5.039  48.505  1.00  0.00     0.353 C 
HETATM   25  O1  UNL     1      28.763   6.047  48.123  1.00  0.00    -0.283 OA
ENDBRANCH  22  24
ENDBRANCH   1  22
TORSDOF 2
ENDMDL
MODEL 9
REMARK VINA RESULT:      -7.6      7.195     11.112
REMARK  2 active torsions:
REMARK  status: ('A' for Active; 'I' for Inactive)
REMARK    1  A    between atoms: C1_2  and  N1_3 
REMARK    2  A    between atoms: N1_3  and  C2_4 
ROOT
HETATM    1  C2  UNL     1      29.121   6.204  48.369  1.00  0.00     0.037 A 
HETATM    2  C3  UNL     1      29.730   7.435  48.358  1.00  0.00     0.061 A 
HETATM    3  C4  UNL     1      31.041   7.649  47.995  1.00  0.00     0.061 A 
HETATM    4  C5  UNL     1      31.772   6.543  47.621  1.00  0.00     0.073 A 
HETATM    5  C6  UNL     1      31.220   5.282  47.612  1.00  0.00     0.008 A 
HETATM    6  C7  UNL     1      29.905   5.139  47.986  1.00  0.00     0.044 A 
HETATM    7  C8  UNL     1      32.246   4.466  47.190  1.00  0.00     0.003 A 
HETATM    8  C9  UNL     1      32.210   3.095  47.010  1.00  0.00     0.014 A 
HETATM    9  C10 UNL     1      33.396   2.502  46.572  1.00  0.00     0.001 A 
HETATM   10  C11 UNL     1      34.525   3.285  46.343  1.00  0.00     0.002 A 
HETATM   11  C12 UNL     1      34.529   4.649  46.532  1.00  0.00     0.030 A 
HETATM   12  C13 UNL     1      33.378   5.261  46.961  1.00  0.00     0.046 A 
HETATM   13  N2  UNL     1      33.037   6.529  47.240  1.00  0.00    -0.341 N 
HETATM   14  C14 UNL     1      33.763   7.754  47.192  1.00  0.00     0.158 A 
HETATM   15  C15 UNL     1      33.080   8.977  47.624  1.00  0.00     0.126 A 
HETATM   16  C16 UNL     1      33.360  10.031  46.579  1.00  0.00    -0.000 C 
HETATM   17  C17 UNL     1      32.955  11.313  46.566  1.00  0.00    -0.002 C 
HETATM   18  C18 UNL     1      32.128  11.957  47.610  1.00  0.00    -0.003 C 
HETATM   19  C19 UNL     1      31.223  11.306  48.320  1.00  0.00    -0.007 C 
HETATM   20  C20 UNL     1      30.775   9.922  48.337  1.00  0.00     0.151 C 
HETATM   21  N3  UNL     1      31.697   8.910  47.974  1.00  0.00    -0.366 N 
ENDROOT
BRANCH   1  22
HETATM   22  N1  UNL     1      27.805   5.927  48.725  1.00  0.00    -0.334 N 
HETATM   23  H2  UNL     1      27.117   6.699  48.889  1.00  0.00     0.168 HD
BRANCH  22  24
HETATM   24  C1  UNL     1      27.154   4.685  48.926  1.00  0.00     0.353 C 
HETATM   25  O1  UNL     1      25.905   4.681  49.055  1.00  0.00    -0.283 OA
ENDBRANCH  22  24
ENDBRANCH   1  22
TORSDOF 2
ENDMDL
