MODEL 1
REMARK VINA RESULT:      -7.8      0.000      0.000
REMARK  5 active torsions:
REMARK  status: ('A' for Active; 'I' for Inactive)
REMARK    1  A    between atoms: C5_5  and  S1_6 
REMARK    2  A    between atoms: S1_6  and  N1_9 
REMARK    3  A    between atoms: N1_9  and  C6_10 
REMARK    4  A    between atoms: C6_10  and  O3_11 
REMARK    5  A    between atoms: C6_10  and  C7_12 
ROOT
HETATM    1  N1  UNL     1      26.825   1.744  53.908  1.00  0.00    -0.184 NA
HETATM    2  H6  UNL     1      27.395   2.180  54.650  1.00  0.00     0.143 HD
ENDROOT
BRANCH   1   3
HETATM    3  S1  UNL     1      26.664   0.043  54.114  1.00  0.00     0.243 S 
HETATM    4  O1  UNL     1      27.476  -0.407  55.291  1.00  0.00    -0.206 OA
HETATM    5  O2  UNL     1      27.240  -0.617  52.890  1.00  0.00    -0.206 OA
BRANCH   3   6
HETATM    6  C5  UNL     1      25.018  -0.471  54.285  1.00  0.00     0.074 A 
HETATM    7  C4  UNL     1      24.156  -0.276  53.216  1.00  0.00     0.025 A 
HETATM    8  C3  UNL     1      22.834  -0.631  53.211  1.00  0.00     0.008 A 
HETATM    9  C2  UNL     1      22.291  -1.227  54.327  1.00  0.00    -0.062 A 
HETATM   10  C1  UNL     1      20.864  -1.637  54.384  1.00  0.00     0.048 C 
HETATM   11  C14 UNL     1      23.127  -1.433  55.404  1.00  0.00     0.008 A 
HETATM   12  C13 UNL     1      24.457  -1.068  55.392  1.00  0.00     0.025 A 
ENDBRANCH   3   6
ENDBRANCH   1   3
BRANCH   1  13
HETATM   13  C6  UNL     1      27.307   1.994  52.570  1.00  0.00     0.239 C 
BRANCH  13  14
HETATM   14  O3  UNL     1      28.365   2.920  52.702  1.00  0.00    -0.376 OA
HETATM   15  H8  UNL     1      28.014   3.766  52.320  1.00  0.00     0.212 HD
ENDBRANCH  13  14
BRANCH  13  16
HETATM   16  C7  UNL     1      26.198   2.597  51.748  1.00  0.00    -0.015 A 
HETATM   17  C8  UNL     1      26.622   2.864  50.446  1.00  0.00     0.013 A 
HETATM   18  C9  UNL     1      25.772   3.421  49.511  1.00  0.00     0.024 A 
HETATM   19  C10 UNL     1      24.469   3.705  49.930  1.00  0.00     0.034 A 
HETATM   20 CL1  UNL     1      23.331   4.417  48.788  1.00  0.00    -0.084 Cl
HETATM   21  C11 UNL     1      24.053   3.440  51.219  1.00  0.00     0.024 A 
HETATM   22  C12 UNL     1      24.909   2.884  52.146  1.00  0.00     0.013 A 
ENDBRANCH  13  16
ENDBRANCH   1  13
TORSDOF 5
ENDMDL
MODEL 2
REMARK VINA RESULT:      -7.6      4.058      7.263
REMARK  5 active torsions:
REMARK  status: ('A' for Active; 'I' for Inactive)
REMARK    1  A    between atoms: C5_5  and  S1_6 
REMARK    2  A    between atoms: S1_6  and  N1_9 
REMARK    3  A    between atoms: N1_9  and  C6_10 
REMARK    4  A    between atoms: C6_10  and  O3_11 
REMARK    5  A    between atoms: C6_10  and  C7_12 
ROOT
HETATM    1  N1  UNL     1      24.970   3.186  52.126  1.00  0.00    -0.184 NA
HETATM    2  H6  UNL     1      24.471   3.358  53.013  1.00  0.00     0.143 HD
ENDROOT
BRANCH   1   3
HETATM    3  S1  UNL     1      24.427   4.213  50.855  1.00  0.00     0.243 S 
HETATM    4  O1  UNL     1      23.588   5.321  51.419  1.00  0.00    -0.206 OA
HETATM    5  O2  UNL     1      23.543   3.390  49.957  1.00  0.00    -0.206 OA
BRANCH   3   6
HETATM    6  C5  UNL     1      25.720   4.861  49.901  1.00  0.00     0.074 A 
HETATM    7  C4  UNL     1      25.724   6.223  49.642  1.00  0.00     0.025 A 
HETATM    8  C3  UNL     1      26.680   6.870  48.905  1.00  0.00     0.008 A 
HETATM    9  C2  UNL     1      27.723   6.148  48.372  1.00  0.00    -0.062 A 
HETATM   10  C1  UNL     1      28.792   6.790  47.564  1.00  0.00     0.048 C 
HETATM   11  C14 UNL     1      27.743   4.790  48.615  1.00  0.00     0.008 A 
HETATM   12  C13 UNL     1      26.771   4.155  49.359  1.00  0.00     0.025 A 
ENDBRANCH   3   6
ENDBRANCH   1   3
BRANCH   1  13
HETATM   13  C6  UNL     1      24.901   1.821  51.664  1.00  0.00     0.239 C 
BRANCH  13  14
HETATM   14  O3  UNL     1      23.697   1.293  52.183  1.00  0.00    -0.376 OA
HETATM   15  H8  UNL     1      23.087   2.073  52.259  1.00  0.00     0.212 HD
ENDBRANCH  13  14
BRANCH  13  16
HETATM   16  C7  UNL     1      26.074   1.052  52.212  1.00  0.00    -0.015 A 
HETATM   17  C8  UNL     1      27.098   1.909  52.613  1.00  0.00     0.013 A 
HETATM   18  C9  UNL     1      28.277   1.426  53.148  1.00  0.00     0.024 A 
HETATM   19  C10 UNL     1      28.394   0.038  53.269  1.00  0.00     0.034 A 
HETATM   20 CL1  UNL     1      29.870  -0.647  53.943  1.00  0.00    -0.084 Cl
HETATM   21  C11 UNL     1      27.379  -0.807  52.870  1.00  0.00     0.024 A 
HETATM   22  C12 UNL     1      26.206  -0.316  52.336  1.00  0.00     0.013 A 
ENDBRANCH  13  16
ENDBRANCH   1  13
TORSDOF 5
ENDMDL
MODEL 3
REMARK VINA RESULT:      -7.4      3.620      6.509
REMARK  5 active torsions:
REMARK  status: ('A' for Active; 'I' for Inactive)
REMARK    1  A    between atoms: C5_5  and  S1_6 
REMARK    2  A    between atoms: S1_6  and  N1_9 
REMARK    3  A    between atoms: N1_9  and  C6_10 
REMARK    4  A    between atoms: C6_10  and  O3_11 
REMARK    5  A    between atoms: C6_10  and  C7_12 
ROOT
HETATM    1  N1  UNL     1      23.842   1.977  53.065  1.00  0.00    -0.184 NA
HETATM    2  H6  UNL     1      23.177   2.142  53.837  1.00  0.00     0.143 HD
ENDROOT
BRANCH   1   3
HETATM    3  S1  UNL     1      23.275   2.598  51.563  1.00  0.00     0.243 S 
HETATM    4  O1  UNL     1      22.069   3.460  51.791  1.00  0.00    -0.206 OA
HETATM    5  O2  UNL     1      22.840   1.426  50.725  1.00  0.00    -0.206 OA
BRANCH   3   6
HETATM    6  C5  UNL     1      24.486   3.475  50.686  1.00  0.00     0.074 A 
HETATM    7  C4  UNL     1      25.639   2.802  50.312  1.00  0.00     0.025 A 
HETATM    8  C3  UNL     1      26.676   3.366  49.619  1.00  0.00     0.008 A 
HETATM    9  C2  UNL     1      26.599   4.690  49.250  1.00  0.00    -0.062 A 
HETATM   10  C1  UNL     1      27.690   5.361  48.496  1.00  0.00     0.048 C 
HETATM   11  C14 UNL     1      25.461   5.382  49.609  1.00  0.00     0.008 A 
HETATM   12  C13 UNL     1      24.427   4.797  50.308  1.00  0.00     0.025 A 
ENDBRANCH   3   6
ENDBRANCH   1   3
BRANCH   1  13
HETATM   13  C6  UNL     1      24.194   0.590  52.876  1.00  0.00     0.239 C 
BRANCH  13  14
HETATM   14  O3  UNL     1      23.451  -0.136  53.833  1.00  0.00    -0.376 OA
HETATM   15  H8  UNL     1      23.764  -1.075  53.742  1.00  0.00     0.212 HD
ENDBRANCH  13  14
BRANCH  13  16
HETATM   16  C7  UNL     1      25.668   0.414  53.131  1.00  0.00    -0.015 A 
HETATM   17  C8  UNL     1      26.104  -0.848  52.726  1.00  0.00     0.013 A 
HETATM   18  C9  UNL     1      27.423  -1.234  52.864  1.00  0.00     0.024 A 
HETATM   19  C10 UNL     1      28.300  -0.302  53.427  1.00  0.00     0.034 A 
HETATM   20 CL1  UNL     1      29.997  -0.729  53.633  1.00  0.00    -0.084 Cl
HETATM   21  C11 UNL     1      27.865   0.944  53.827  1.00  0.00     0.024 A 
HETATM   22  C12 UNL     1      26.545   1.322  53.686  1.00  0.00     0.013 A 
ENDBRANCH  13  16
ENDBRANCH   1  13
TORSDOF 5
ENDMDL
MODEL 4
REMARK VINA RESULT:      -7.3      3.404      4.696
REMARK  5 active torsions:
REMARK  status: ('A' for Active; 'I' for Inactive)
REMARK    1  A    between atoms: C5_5  and  S1_6 
REMARK    2  A    between atoms: S1_6  and  N1_9 
REMARK    3  A    between atoms: N1_9  and  C6_10 
REMARK    4  A    between atoms: C6_10  and  O3_11 
REMARK    5  A    between atoms: C6_10  and  C7_12 
ROOT
HETATM    1  N1  UNL     1      24.735   2.451  50.780  1.00  0.00    -0.184 NA
HETATM    2  H6  UNL     1      24.002   2.079  50.156  1.00  0.00     0.143 HD
ENDROOT
BRANCH   1   3
HETATM    3  S1  UNL     1      24.710   1.717  52.337  1.00  0.00     0.243 S 
HETATM    4  O1  UNL     1      23.521   0.811  52.454  1.00  0.00    -0.206 OA
HETATM    5  O2  UNL     1      24.543   2.816  53.351  1.00  0.00    -0.206 OA
BRANCH   3   6
HETATM    6  C5  UNL     1      26.166   0.851  52.706  1.00  0.00     0.074 A 
HETATM    7  C4  UNL     1      27.275   1.579  53.113  1.00  0.00     0.025 A 
HETATM    8  C3  UNL     1      28.486   1.029  53.436  1.00  0.00     0.008 A 
HETATM    9  C2  UNL     1      28.648  -0.336  53.365  1.00  0.00    -0.062 A 
HETATM   10  C1  UNL     1      29.937  -0.993  53.703  1.00  0.00     0.048 C 
HETATM   11  C14 UNL     1      27.560  -1.083  52.964  1.00  0.00     0.008 A 
HETATM   12  C13 UNL     1      26.347  -0.512  52.642  1.00  0.00     0.025 A 
ENDBRANCH   3   6
ENDBRANCH   1   3
BRANCH   1  13
HETATM   13  C6  UNL     1      24.692   3.883  50.955  1.00  0.00     0.239 C 
BRANCH  13  14
HETATM   14  O3  UNL     1      23.394   4.284  50.567  1.00  0.00    -0.376 OA
HETATM   15  H8  UNL     1      23.520   5.165  50.124  1.00  0.00     0.212 HD
ENDBRANCH  13  14
BRANCH  13  16
HETATM   16  C7  UNL     1      25.716   4.524  50.055  1.00  0.00    -0.015 A 
HETATM   17  C8  UNL     1      25.464   5.887  49.894  1.00  0.00     0.013 A 
HETATM   18  C9  UNL     1      26.276   6.682  49.109  1.00  0.00     0.024 A 
HETATM   19  C10 UNL     1      27.360   6.058  48.484  1.00  0.00     0.034 A 
HETATM   20 CL1  UNL     1      28.437   7.012  47.468  1.00  0.00    -0.084 Cl
HETATM   21  C11 UNL     1      27.605   4.710  48.646  1.00  0.00     0.024 A 
HETATM   22  C12 UNL     1      26.789   3.923  49.432  1.00  0.00     0.013 A 
ENDBRANCH  13  16
ENDBRANCH   1  13
TORSDOF 5
ENDMDL
MODEL 5
REMARK VINA RESULT:      -7.3      6.036      9.523
REMARK  5 active torsions:
REMARK  status: ('A' for Active; 'I' for Inactive)
REMARK    1  A    between atoms: C5_5  and  S1_6 
REMARK    2  A    between atoms: S1_6  and  N1_9 
REMARK    3  A    between atoms: N1_9  and  C6_10 
REMARK    4  A    between atoms: C6_10  and  O3_11 
REMARK    5  A    between atoms: C6_10  and  C7_12 
ROOT
HETATM    1  N1  UNL     1      29.139   5.569  48.746  1.00  0.00    -0.184 NA
HETATM    2  H6  UNL     1      29.241   5.337  49.747  1.00  0.00     0.143 HD
ENDROOT
BRANCH   1   3
HETATM    3  S1  UNL     1      30.482   6.457  48.136  1.00  0.00     0.243 S 
HETATM    4  O1  UNL     1      31.016   7.367  49.200  1.00  0.00    -0.206 OA
HETATM    5  O2  UNL     1      29.978   7.322  47.013  1.00  0.00    -0.206 OA
BRANCH   3   6
HETATM    6  C5  UNL     1      31.746   5.444  47.518  1.00  0.00     0.074 A 
HETATM    7  C4  UNL     1      33.031   5.964  47.458  1.00  0.00     0.025 A 
HETATM    8  C3  UNL     1      34.122   5.280  46.995  1.00  0.00     0.008 A 
HETATM    9  C2  UNL     1      33.970   3.986  46.552  1.00  0.00    -0.062 A 
HETATM   10  C1  UNL     1      35.115   3.191  46.037  1.00  0.00     0.048 C 
HETATM   11  C14 UNL     1      32.702   3.445  46.600  1.00  0.00     0.008 A 
HETATM   12  C13 UNL     1      31.613   4.149  47.070  1.00  0.00     0.025 A 
ENDBRANCH   3   6
ENDBRANCH   1   3
BRANCH   1  13
HETATM   13  C6  UNL     1      27.934   6.296  48.428  1.00  0.00     0.239 C 
BRANCH  13  14
HETATM   14  O3  UNL     1      27.978   7.480  49.197  1.00  0.00    -0.376 OA
HETATM   15  H8  UNL     1      28.082   8.213  48.534  1.00  0.00     0.212 HD
ENDBRANCH  13  14
BRANCH  13  16
HETATM   16  C7  UNL     1      26.738   5.472  48.825  1.00  0.00    -0.015 A 
HETATM   17  C8  UNL     1      27.111   4.175  49.175  1.00  0.00     0.013 A 
HETATM   18  C9  UNL     1      26.176   3.239  49.574  1.00  0.00     0.024 A 
HETATM   19  C10 UNL     1      24.842   3.652  49.610  1.00  0.00     0.034 A 
HETATM   20 CL1  UNL     1      23.598   2.509  50.110  1.00  0.00    -0.084 Cl
HETATM   21  C11 UNL     1      24.477   4.936  49.263  1.00  0.00     0.024 A 
HETATM   22  C12 UNL     1      25.416   5.865  48.865  1.00  0.00     0.013 A 
ENDBRANCH  13  16
ENDBRANCH   1  13
TORSDOF 5
ENDMDL
MODEL 6
REMARK VINA RESULT:      -7.1      2.479      2.994
REMARK  5 active torsions:
REMARK  status: ('A' for Active; 'I' for Inactive)
REMARK    1  A    between atoms: C5_5  and  S1_6 
REMARK    2  A    between atoms: S1_6  and  N1_9 
REMARK    3  A    between atoms: N1_9  and  C6_10 
REMARK    4  A    between atoms: C6_10  and  O3_11 
REMARK    5  A    between atoms: C6_10  and  C7_12 
ROOT
HETATM    1  N1  UNL     1      25.129   2.971  51.006  1.00  0.00    -0.184 NA
HETATM    2  H6  UNL     1      24.773   3.834  51.447  1.00  0.00     0.143 HD
ENDROOT
BRANCH   1   3
HETATM    3  S1  UNL     1      25.436   1.724  52.153  1.00  0.00     0.243 S 
HETATM    4  O1  UNL     1      26.150   2.292  53.343  1.00  0.00    -0.206 OA
HETATM    5  O2  UNL     1      26.362   0.732  51.503  1.00  0.00    -0.206 OA
BRANCH   3   6
HETATM    6  C5  UNL     1      24.003   0.887  52.652  1.00  0.00     0.074 A 
HETATM    7  C4  UNL     1      22.831   1.119  51.948  1.00  0.00     0.025 A 
HETATM    8  C3  UNL     1      21.628   0.530  52.230  1.00  0.00     0.008 A 
HETATM    9  C2  UNL     1      21.541  -0.361  53.275  1.00  0.00    -0.062 A 
HETATM   10  C1  UNL     1      20.266  -1.035  53.631  1.00  0.00     0.048 C 
HETATM   11  C14 UNL     1      22.694  -0.610  53.992  1.00  0.00     0.008 A 
HETATM   12  C13 UNL     1      23.897  -0.007  53.694  1.00  0.00     0.025 A 
ENDBRANCH   3   6
ENDBRANCH   1   3
BRANCH   1  13
HETATM   13  C6  UNL     1      26.321   3.160  50.215  1.00  0.00     0.239 C 
BRANCH  13  14
HETATM   14  O3  UNL     1      27.395   3.204  51.130  1.00  0.00    -0.376 OA
HETATM   15  H8  UNL     1      27.336   4.101  51.553  1.00  0.00     0.212 HD
ENDBRANCH  13  14
BRANCH  13  16
HETATM   16  C7  UNL     1      26.224   4.470  49.477  1.00  0.00    -0.015 A 
HETATM   17  C8  UNL     1      27.462   4.853  48.962  1.00  0.00     0.013 A 
HETATM   18  C9  UNL     1      27.614   6.025  48.246  1.00  0.00     0.024 A 
HETATM   19  C10 UNL     1      26.470   6.807  48.062  1.00  0.00     0.034 A 
HETATM   20 CL1  UNL     1      26.593   8.314  47.158  1.00  0.00    -0.084 Cl
HETATM   21  C11 UNL     1      25.247   6.424  48.573  1.00  0.00     0.024 A 
HETATM   22  C12 UNL     1      25.104   5.253  49.287  1.00  0.00     0.013 A 
ENDBRANCH  13  16
ENDBRANCH   1  13
TORSDOF 5
ENDMDL
MODEL 7
REMARK VINA RESULT:      -7.0      3.642      4.592
REMARK  5 active torsions:
REMARK  status: ('A' for Active; 'I' for Inactive)
REMARK    1  A    between atoms: C5_5  and  S1_6 
REMARK    2  A    between atoms: S1_6  and  N1_9 
REMARK    3  A    between atoms: N1_9  and  C6_10 
REMARK    4  A    between atoms: C6_10  and  O3_11 
REMARK    5  A    between atoms: C6_10  and  C7_12 
ROOT
HETATM    1  N1  UNL     1      25.104   4.373  50.775  1.00  0.00    -0.184 NA
HETATM    2  H6  UNL     1      25.323   4.449  51.781  1.00  0.00     0.143 HD
ENDROOT
BRANCH   1   3
HETATM    3  S1  UNL     1      23.697   3.427  50.477  1.00  0.00     0.243 S 
HETATM    4  O1  UNL     1      23.731   2.889  49.078  1.00  0.00    -0.206 OA
HETATM    5  O2  UNL     1      22.507   4.344  50.578  1.00  0.00    -0.206 OA
BRANCH   3   6
HETATM    6  C5  UNL     1      23.489   2.136  51.614  1.00  0.00     0.074 A 
HETATM    7  C4  UNL     1      22.218   1.910  52.123  1.00  0.00     0.025 A 
HETATM    8  C3  UNL     1      21.908   0.929  53.025  1.00  0.00     0.008 A 
HETATM    9  C2  UNL     1      22.901   0.090  53.478  1.00  0.00    -0.062 A 
HETATM   10  C1  UNL     1      22.629  -0.994  54.457  1.00  0.00     0.048 C 
HETATM   11  C14 UNL     1      24.174   0.294  52.988  1.00  0.00     0.008 A 
HETATM   12  C13 UNL     1      24.468   1.288  52.079  1.00  0.00     0.025 A 
ENDBRANCH   3   6
ENDBRANCH   1   3
BRANCH   1  13
HETATM   13  C6  UNL     1      26.181   3.845  49.973  1.00  0.00     0.239 C 
BRANCH  13  14
HETATM   14  O3  UNL     1      27.136   3.341  50.885  1.00  0.00    -0.376 OA
HETATM   15  H8  UNL     1      26.647   2.661  51.419  1.00  0.00     0.212 HD
ENDBRANCH  13  14
BRANCH  13  16
HETATM   16  C7  UNL     1      26.788   4.958  49.161  1.00  0.00    -0.015 A 
HETATM   17  C8  UNL     1      25.876   5.996  48.965  1.00  0.00     0.013 A 
HETATM   18  C9  UNL     1      26.213   7.126  48.245  1.00  0.00     0.024 A 
HETATM   19  C10 UNL     1      27.509   7.181  47.724  1.00  0.00     0.034 A 
HETATM   20 CL1  UNL     1      28.006   8.594  46.796  1.00  0.00    -0.084 Cl
HETATM   21  C11 UNL     1      28.408   6.153  47.920  1.00  0.00     0.024 A 
HETATM   22  C12 UNL     1      28.063   5.028  48.639  1.00  0.00     0.013 A 
ENDBRANCH  13  16
ENDBRANCH   1  13
TORSDOF 5
ENDMDL
MODEL 8
REMARK VINA RESULT:      -6.7      4.040      4.706
REMARK  5 active torsions:
REMARK  status: ('A' for Active; 'I' for Inactive)
REMARK    1  A    between atoms: C5_5  and  S1_6 
REMARK    2  A    between atoms: S1_6  and  N1_9 
REMARK    3  A    between atoms: N1_9  and  C6_10 
REMARK    4  A    between atoms: C6_10  and  O3_11 
REMARK    5  A    between atoms: C6_10  and  C7_12 
ROOT
HETATM    1  N1  UNL     1      23.250   3.079  50.316  1.00  0.00    -0.184 NA
HETATM    2  H6  UNL     1      23.393   2.456  49.505  1.00  0.00     0.143 HD
ENDROOT
BRANCH   1   3
HETATM    3  S1  UNL     1      21.774   2.757  51.142  1.00  0.00     0.243 S 
HETATM    4  O1  UNL     1      20.710   2.383  50.154  1.00  0.00    -0.206 OA
HETATM    5  O2  UNL     1      21.342   4.036  51.808  1.00  0.00    -0.206 OA
BRANCH   3   6
HETATM    6  C5  UNL     1      21.925   1.533  52.358  1.00  0.00     0.074 A 
HETATM    7  C4  UNL     1      23.133   0.859  52.464  1.00  0.00     0.025 A 
HETATM    8  C3  UNL     1      23.393  -0.128  53.375  1.00  0.00     0.008 A 
HETATM    9  C2  UNL     1      22.411  -0.502  54.264  1.00  0.00    -0.062 A 
HETATM   10  C1  UNL     1      22.631  -1.565  55.278  1.00  0.00     0.048 C 
HETATM   11  C14 UNL     1      21.200   0.153  54.181  1.00  0.00     0.008 A 
HETATM   12  C13 UNL     1      20.955   1.146  53.256  1.00  0.00     0.025 A 
ENDBRANCH   3   6
ENDBRANCH   1   3
BRANCH   1  13
HETATM   13  C6  UNL     1      23.292   4.485  49.995  1.00  0.00     0.239 C 
BRANCH  13  14
HETATM   14  O3  UNL     1      22.345   4.679  48.965  1.00  0.00    -0.376 OA
HETATM   15  H8  UNL     1      22.332   3.821  48.464  1.00  0.00     0.212 HD
ENDBRANCH  13  14
BRANCH  13  16
HETATM   16  C7  UNL     1      24.668   4.841  49.499  1.00  0.00    -0.015 A 
HETATM   17  C8  UNL     1      25.558   3.779  49.670  1.00  0.00     0.013 A 
HETATM   18  C9  UNL     1      26.881   3.878  49.286  1.00  0.00     0.024 A 
HETATM   19  C10 UNL     1      27.287   5.089  48.719  1.00  0.00     0.034 A 
HETATM   20 CL1  UNL     1      28.961   5.284  48.207  1.00  0.00    -0.084 Cl
HETATM   21  C11 UNL     1      26.405   6.137  48.551  1.00  0.00     0.024 A 
HETATM   22  C12 UNL     1      25.085   6.030  48.938  1.00  0.00     0.013 A 
ENDBRANCH  13  16
ENDBRANCH   1  13
TORSDOF 5
ENDMDL
MODEL 9
REMARK VINA RESULT:      -6.7      4.916      7.021
REMARK  5 active torsions:
REMARK  status: ('A' for Active; 'I' for Inactive)
REMARK    1  A    between atoms: C5_5  and  S1_6 
REMARK    2  A    between atoms: S1_6  and  N1_9 
REMARK    3  A    between atoms: N1_9  and  C6_10 
REMARK    4  A    between atoms: C6_10  and  O3_11 
REMARK    5  A    between atoms: C6_10  and  C7_12 
ROOT
HETATM    1  N1  UNL     1      20.420  -0.663  52.784  1.00  0.00    -0.184 NA
HETATM    2  H6  UNL     1      20.572  -1.440  52.121  1.00  0.00     0.143 HD
ENDROOT
BRANCH   1   3
HETATM    3  S1  UNL     1      21.565  -0.660  54.070  1.00  0.00     0.243 S 
HETATM    4  O1  UNL     1      21.614  -2.014  54.711  1.00  0.00    -0.206 OA
HETATM    5  O2  UNL     1      21.074   0.314  55.107  1.00  0.00    -0.206 OA
BRANCH   3   6
HETATM    6  C5  UNL     1      23.151  -0.171  53.570  1.00  0.00     0.074 A 
HETATM    7  C4  UNL     1      23.258   0.750  52.539  1.00  0.00     0.025 A 
HETATM    8  C3  UNL     1      24.442   1.225  52.043  1.00  0.00     0.008 A 
HETATM    9  C2  UNL     1      25.627   0.779  52.584  1.00  0.00    -0.062 A 
HETATM   10  C1  UNL     1      26.945   1.255  52.091  1.00  0.00     0.048 C 
HETATM   11  C14 UNL     1      25.548  -0.138  53.612  1.00  0.00     0.008 A 
HETATM   12  C13 UNL     1      24.346  -0.605  54.098  1.00  0.00     0.025 A 
ENDBRANCH   3   6
ENDBRANCH   1   3
BRANCH   1  13
HETATM   13  C6  UNL     1      19.096  -0.626  53.357  1.00  0.00     0.239 C 
BRANCH  13  14
HETATM   14  O3  UNL     1      18.949  -1.832  54.077  1.00  0.00    -0.376 OA
HETATM   15  H8  UNL     1      18.200  -1.664  54.709  1.00  0.00     0.212 HD
ENDBRANCH  13  14
BRANCH  13  16
HETATM   16  C7  UNL     1      18.077  -0.563  52.250  1.00  0.00    -0.015 A 
HETATM   17  C8  UNL     1      18.547   0.187  51.172  1.00  0.00     0.013 A 
HETATM   18  C9  UNL     1      17.780   0.381  50.039  1.00  0.00     0.024 A 
HETATM   19  C10 UNL     1      16.513  -0.209  50.024  1.00  0.00     0.034 A 
HETATM   20 CL1  UNL     1      15.482  -0.002  48.611  1.00  0.00    -0.084 Cl
HETATM   21  C11 UNL     1      16.052  -0.950  51.092  1.00  0.00     0.024 A 
HETATM   22  C12 UNL     1      16.824  -1.139  52.220  1.00  0.00     0.013 A 
ENDBRANCH  13  16
ENDBRANCH   1  13
TORSDOF 5
ENDMDL
