MODEL 1
REMARK VINA RESULT:      -8.0      0.000      0.000
REMARK  5 active torsions:
REMARK  status: ('A' for Active; 'I' for Inactive)
REMARK    1  A    between atoms: O1_2  and  C2_3 
REMARK    2  A    between atoms: C2_3  and  O2_4 
REMARK    3  A    between atoms: O2_4  and  C3_5 
REMARK    4  A    between atoms: C8_12  and  N3_13 
REMARK    5  A    between atoms: N3_13  and  C9_14 
ROOT
HETATM    1  C3  UNL     1      24.438  -0.324  53.793  1.00  0.00     0.072 A 
HETATM    2  C4  UNL     1      25.138  -0.580  54.955  1.00  0.00     0.039 A 
HETATM    3  C5  UNL     1      26.362   0.009  55.128  1.00  0.00     0.035 A 
HETATM    4  C6  UNL     1      26.871   0.836  54.154  1.00  0.00     0.072 A 
HETATM    5  N1  UNL     1      28.076   1.367  54.412  1.00  0.00    -0.241 NA
HETATM    6  C7  UNL     1      28.623   2.174  53.512  1.00  0.00     0.236 A 
HETATM    7  N2  UNL     1      27.963   2.435  52.383  1.00  0.00    -0.224 NA
HETATM    8  C8  UNL     1      26.767   1.966  52.021  1.00  0.00     0.142 A 
HETATM    9  C16 UNL     1      26.226   1.132  52.973  1.00  0.00     0.041 A 
HETATM   10  C17 UNL     1      25.003   0.514  52.855  1.00  0.00     0.054 A 
ENDROOT
BRANCH   8  11
HETATM   11  N3  UNL     1      26.058   2.223  50.848  1.00  0.00    -0.340 N 
HETATM   12  H9  UNL     1      25.530   1.507  50.359  1.00  0.00     0.167 HD
BRANCH  11  13
HETATM   13  C9  UNL     1      25.944   3.457  50.154  1.00  0.00     0.034 A 
HETATM   14  C10 UNL     1      24.755   4.138  50.041  1.00  0.00     0.029 A 
HETATM   15  C11 UNL     1      24.605   5.338  49.381  1.00  0.00     0.003 A 
HETATM   16  C12 UNL     1      25.689   5.935  48.778  1.00  0.00     0.007 A 
HETATM   17  C13 UNL     1      26.894   5.301  48.860  1.00  0.00    -0.060 A 
HETATM   18  C14 UNL     1      28.108   5.886  48.234  1.00  0.00     0.048 C 
HETATM   19  C15 UNL     1      26.987   4.104  49.531  1.00  0.00     0.036 A 
ENDBRANCH  11  13
ENDBRANCH   8  11
BRANCH   1  20
HETATM   20  O2  UNL     1      23.206  -0.919  53.624  1.00  0.00    -0.326 OA
BRANCH  20  21
HETATM   21  C2  UNL     1      22.523  -1.354  54.787  1.00  0.00     0.344 C 
BRANCH  21  22
HETATM   22  O1  UNL     1      21.176  -1.171  54.595  1.00  0.00    -0.371 OA
HETATM   23  C1  UNL     1      20.853   0.148  54.274  1.00  0.00     0.204 C 
ENDBRANCH  21  22
ENDBRANCH  20  21
ENDBRANCH   1  20
TORSDOF 5
ENDMDL
MODEL 2
REMARK VINA RESULT:      -7.8      2.067      5.155
REMARK  5 active torsions:
REMARK  status: ('A' for Active; 'I' for Inactive)
REMARK    1  A    between atoms: O1_2  and  C2_3 
REMARK    2  A    between atoms: C2_3  and  O2_4 
REMARK    3  A    between atoms: O2_4  and  C3_5 
REMARK    4  A    between atoms: C8_12  and  N3_13 
REMARK    5  A    between atoms: N3_13  and  C9_14 
ROOT
HETATM    1  C3  UNL     1      22.279   1.008  52.838  1.00  0.00     0.072 A 
HETATM    2  C4  UNL     1      21.476   1.218  51.735  1.00  0.00     0.039 A 
HETATM    3  C5  UNL     1      22.002   1.876  50.656  1.00  0.00     0.035 A 
HETATM    4  C6  UNL     1      23.306   2.314  50.687  1.00  0.00     0.072 A 
HETATM    5  N1  UNL     1      23.733   2.948  49.583  1.00  0.00    -0.241 NA
HETATM    6  C7  UNL     1      24.982   3.396  49.549  1.00  0.00     0.236 A 
HETATM    7  N2  UNL     1      25.773   3.203  50.604  1.00  0.00    -0.224 NA
HETATM    8  C8  UNL     1      25.458   2.591  51.748  1.00  0.00     0.142 A 
HETATM    9  C16 UNL     1      24.159   2.139  51.753  1.00  0.00     0.041 A 
HETATM   10  C17 UNL     1      23.576   1.472  52.807  1.00  0.00     0.054 A 
ENDROOT
BRANCH   8  11
HETATM   11  N3  UNL     1      26.267   2.378  52.864  1.00  0.00    -0.340 N 
HETATM   12  H9  UNL     1      26.250   2.986  53.677  1.00  0.00     0.167 HD
BRANCH  11  13
HETATM   13  C9  UNL     1      27.211   1.336  53.067  1.00  0.00     0.034 A 
HETATM   14  C10 UNL     1      28.474   1.564  53.560  1.00  0.00     0.029 A 
HETATM   15  C11 UNL     1      29.414   0.581  53.775  1.00  0.00     0.003 A 
HETATM   16  C12 UNL     1      29.117  -0.733  53.493  1.00  0.00     0.007 A 
HETATM   17  C13 UNL     1      27.877  -1.015  53.000  1.00  0.00    -0.060 A 
HETATM   18  C14 UNL     1      27.485  -2.411  52.673  1.00  0.00     0.048 C 
HETATM   19  C15 UNL     1      26.976   0.005  52.805  1.00  0.00     0.036 A 
ENDBRANCH  11  13
ENDBRANCH   8  11
BRANCH   1  20
HETATM   20  O2  UNL     1      21.744   0.344  53.923  1.00  0.00    -0.326 OA
BRANCH  20  21
HETATM   21  C2  UNL     1      21.601  -1.062  53.825  1.00  0.00     0.344 C 
BRANCH  21  22
HETATM   22  O1  UNL     1      21.826  -1.610  55.063  1.00  0.00    -0.371 OA
HETATM   23  C1  UNL     1      23.138  -1.428  55.502  1.00  0.00     0.204 C 
ENDBRANCH  21  22
ENDBRANCH  20  21
ENDBRANCH   1  20
TORSDOF 5
ENDMDL
MODEL 3
REMARK VINA RESULT:      -7.8      2.940      5.655
REMARK  5 active torsions:
REMARK  status: ('A' for Active; 'I' for Inactive)
REMARK    1  A    between atoms: O1_2  and  C2_3 
REMARK    2  A    between atoms: C2_3  and  O2_4 
REMARK    3  A    between atoms: O2_4  and  C3_5 
REMARK    4  A    between atoms: C8_12  and  N3_13 
REMARK    5  A    between atoms: N3_13  and  C9_14 
ROOT
HETATM    1  C3  UNL     1      21.138   0.467  51.790  1.00  0.00     0.072 A 
HETATM    2  C4  UNL     1      20.169   0.000  52.654  1.00  0.00     0.039 A 
HETATM    3  C5  UNL     1      20.563  -0.587  53.826  1.00  0.00     0.035 A 
HETATM    4  C6  UNL     1      21.901  -0.704  54.122  1.00  0.00     0.072 A 
HETATM    5  N1  UNL     1      22.190  -1.292  55.293  1.00  0.00    -0.241 NA
HETATM    6  C7  UNL     1      23.464  -1.435  55.638  1.00  0.00     0.236 A 
HETATM    7  N2  UNL     1      24.415  -0.990  54.816  1.00  0.00    -0.224 NA
HETATM    8  C8  UNL     1      24.247  -0.393  53.635  1.00  0.00     0.142 A 
HETATM    9  C16 UNL     1      22.917  -0.261  53.305  1.00  0.00     0.041 A 
HETATM   10  C17 UNL     1      22.463   0.320  52.144  1.00  0.00     0.054 A 
ENDROOT
BRANCH   8  11
HETATM   11  N3  UNL     1      25.225   0.079  52.759  1.00  0.00    -0.340 N 
HETATM   12  H9  UNL     1      25.063   0.184  51.762  1.00  0.00     0.167 HD
BRANCH  11  13
HETATM   13  C9  UNL     1      26.550   0.480  53.072  1.00  0.00     0.034 A 
HETATM   14  C10 UNL     1      26.909   1.798  53.233  1.00  0.00     0.029 A 
HETATM   15  C11 UNL     1      28.181   2.226  53.540  1.00  0.00     0.003 A 
HETATM   16  C12 UNL     1      29.197   1.312  53.707  1.00  0.00     0.007 A 
HETATM   17  C13 UNL     1      28.896  -0.010  53.558  1.00  0.00    -0.060 A 
HETATM   18  C14 UNL     1      29.939  -1.054  53.724  1.00  0.00     0.048 C 
HETATM   19  C15 UNL     1      27.608  -0.383  53.251  1.00  0.00     0.036 A 
ENDBRANCH  11  13
ENDBRANCH   8  11
BRANCH   1  20
HETATM   20  O2  UNL     1      20.737   1.058  50.610  1.00  0.00    -0.326 OA
BRANCH  20  21
HETATM   21  C2  UNL     1      21.744   1.423  49.684  1.00  0.00     0.344 C 
BRANCH  21  22
HETATM   22  O1  UNL     1      21.870   2.789  49.693  1.00  0.00    -0.371 OA
HETATM   23  C1  UNL     1      23.197   3.207  49.808  1.00  0.00     0.204 C 
ENDBRANCH  21  22
ENDBRANCH  20  21
ENDBRANCH   1  20
TORSDOF 5
ENDMDL
MODEL 4
REMARK VINA RESULT:      -7.6      2.574      4.479
REMARK  5 active torsions:
REMARK  status: ('A' for Active; 'I' for Inactive)
REMARK    1  A    between atoms: O1_2  and  C2_3 
REMARK    2  A    between atoms: C2_3  and  O2_4 
REMARK    3  A    between atoms: O2_4  and  C3_5 
REMARK    4  A    between atoms: C8_12  and  N3_13 
REMARK    5  A    between atoms: N3_13  and  C9_14 
ROOT
HETATM    1  C3  UNL     1      24.341  -0.727  54.542  1.00  0.00     0.072 A 
HETATM    2  C4  UNL     1      23.306  -1.233  55.302  1.00  0.00     0.039 A 
HETATM    3  C5  UNL     1      22.019  -0.996  54.899  1.00  0.00     0.035 A 
HETATM    4  C6  UNL     1      21.779  -0.265  53.759  1.00  0.00     0.072 A 
HETATM    5  N1  UNL     1      20.486  -0.085  53.443  1.00  0.00    -0.241 NA
HETATM    6  C7  UNL     1      20.187   0.612  52.354  1.00  0.00     0.236 A 
HETATM    7  N2  UNL     1      21.173   1.109  51.607  1.00  0.00    -0.224 NA
HETATM    8  C8  UNL     1      22.485   0.994  51.822  1.00  0.00     0.142 A 
HETATM    9  C16 UNL     1      22.763   0.268  52.957  1.00  0.00     0.041 A 
HETATM   10  C17 UNL     1      24.034  -0.002  53.410  1.00  0.00     0.054 A 
ENDROOT
BRANCH   8  11
HETATM   11  N3  UNL     1      23.533   1.505  51.056  1.00  0.00    -0.340 N 
HETATM   12  H9  UNL     1      24.151   0.913  50.510  1.00  0.00     0.167 HD
BRANCH  11  13
HETATM   13  C9  UNL     1      23.913   2.865  50.900  1.00  0.00     0.034 A 
HETATM   14  C10 UNL     1      23.266   3.894  51.540  1.00  0.00     0.029 A 
HETATM   15  C11 UNL     1      23.607   5.223  51.418  1.00  0.00     0.003 A 
HETATM   16  C12 UNL     1      24.658   5.596  50.611  1.00  0.00     0.007 A 
HETATM   17  C13 UNL     1      25.335   4.612  49.951  1.00  0.00    -0.060 A 
HETATM   18  C14 UNL     1      26.481   4.938  49.063  1.00  0.00     0.048 C 
HETATM   19  C15 UNL     1      24.952   3.301  50.109  1.00  0.00     0.036 A 
ENDBRANCH  11  13
ENDBRANCH   8  11
BRANCH   1  20
HETATM   20  O2  UNL     1      25.635  -0.969  54.951  1.00  0.00    -0.326 OA
BRANCH  20  21
HETATM   21  C2  UNL     1      26.538   0.123  54.950  1.00  0.00     0.344 C 
BRANCH  21  22
HETATM   22  O1  UNL     1      27.813  -0.366  55.085  1.00  0.00    -0.371 OA
HETATM   23  C1  UNL     1      28.682   0.121  54.107  1.00  0.00     0.204 C 
ENDBRANCH  21  22
ENDBRANCH  20  21
ENDBRANCH   1  20
TORSDOF 5
ENDMDL
MODEL 5
REMARK VINA RESULT:      -7.6      2.206      4.101
REMARK  5 active torsions:
REMARK  status: ('A' for Active; 'I' for Inactive)
REMARK    1  A    between atoms: O1_2  and  C2_3 
REMARK    2  A    between atoms: C2_3  and  O2_4 
REMARK    3  A    between atoms: O2_4  and  C3_5 
REMARK    4  A    between atoms: C8_12  and  N3_13 
REMARK    5  A    between atoms: N3_13  and  C9_14 
ROOT
HETATM    1  C3  UNL     1      24.574  -0.254  53.934  1.00  0.00     0.072 A 
HETATM    2  C4  UNL     1      23.301  -0.771  54.067  1.00  0.00     0.039 A 
HETATM    3  C5  UNL     1      22.322  -0.329  53.219  1.00  0.00     0.035 A 
HETATM    4  C6  UNL     1      22.616   0.612  52.259  1.00  0.00     0.072 A 
HETATM    5  N1  UNL     1      21.592   0.983  51.474  1.00  0.00    -0.241 NA
HETATM    6  C7  UNL     1      21.810   1.888  50.528  1.00  0.00     0.236 A 
HETATM    7  N2  UNL     1      23.032   2.399  50.384  1.00  0.00    -0.224 NA
HETATM    8  C8  UNL     1      24.119   2.107  51.102  1.00  0.00     0.142 A 
HETATM    9  C16 UNL     1      23.862   1.168  52.074  1.00  0.00     0.041 A 
HETATM   10  C17 UNL     1      24.804   0.687  52.953  1.00  0.00     0.054 A 
ENDROOT
BRANCH   8  11
HETATM   11  N3  UNL     1      25.406   2.628  50.969  1.00  0.00    -0.340 N 
HETATM   12  H9  UNL     1      26.223   2.179  51.373  1.00  0.00     0.167 HD
BRANCH  11  13
HETATM   13  C9  UNL     1      25.799   3.811  50.288  1.00  0.00     0.034 A 
HETATM   14  C10 UNL     1      26.847   3.841  49.399  1.00  0.00     0.029 A 
HETATM   15  C11 UNL     1      27.256   4.966  48.717  1.00  0.00     0.003 A 
HETATM   16  C12 UNL     1      26.603   6.163  48.903  1.00  0.00     0.007 A 
HETATM   17  C13 UNL     1      25.555   6.189  49.776  1.00  0.00    -0.060 A 
HETATM   18  C14 UNL     1      24.802   7.445  50.028  1.00  0.00     0.048 C 
HETATM   19  C15 UNL     1      25.189   5.037  50.432  1.00  0.00     0.036 A 
ENDBRANCH  11  13
ENDBRANCH   8  11
BRANCH   1  20
HETATM   20  O2  UNL     1      25.558  -0.702  54.791  1.00  0.00    -0.326 OA
BRANCH  20  21
HETATM   21  C2  UNL     1      26.676   0.141  55.003  1.00  0.00     0.344 C 
BRANCH  21  22
HETATM   22  O1  UNL     1      27.804  -0.518  54.583  1.00  0.00    -0.371 OA
HETATM   23  C1  UNL     1      28.919   0.319  54.510  1.00  0.00     0.204 C 
ENDBRANCH  21  22
ENDBRANCH  20  21
ENDBRANCH   1  20
TORSDOF 5
ENDMDL
MODEL 6
REMARK VINA RESULT:      -7.5      3.061      6.704
REMARK  5 active torsions:
REMARK  status: ('A' for Active; 'I' for Inactive)
REMARK    1  A    between atoms: O1_2  and  C2_3 
REMARK    2  A    between atoms: C2_3  and  O2_4 
REMARK    3  A    between atoms: O2_4  and  C3_5 
REMARK    4  A    between atoms: C8_12  and  N3_13 
REMARK    5  A    between atoms: N3_13  and  C9_14 
ROOT
HETATM    1  C3  UNL     1      26.178   1.979  53.163  1.00  0.00     0.072 A 
HETATM    2  C4  UNL     1      26.974   2.253  52.069  1.00  0.00     0.039 A 
HETATM    3  C5  UNL     1      26.372   2.600  50.890  1.00  0.00     0.035 A 
HETATM    4  C6  UNL     1      25.000   2.669  50.812  1.00  0.00     0.072 A 
HETATM    5  N1  UNL     1      24.501   3.018  49.615  1.00  0.00    -0.241 NA
HETATM    6  C7  UNL     1      23.185   3.103  49.474  1.00  0.00     0.236 A 
HETATM    7  N2  UNL     1      22.398   2.843  50.519  1.00  0.00    -0.224 NA
HETATM    8  C8  UNL     1      22.780   2.489  51.748  1.00  0.00     0.142 A 
HETATM    9  C16 UNL     1      24.149   2.408  51.863  1.00  0.00     0.041 A 
HETATM   10  C17 UNL     1      24.809   2.065  53.020  1.00  0.00     0.054 A 
ENDROOT
BRANCH   8  11
HETATM   11  N3  UNL     1      21.978   2.211  52.854  1.00  0.00    -0.340 N 
HETATM   12  H9  UNL     1      21.738   2.914  53.547  1.00  0.00     0.167 HD
BRANCH  11  13
HETATM   13  C9  UNL     1      21.378   0.973  53.204  1.00  0.00     0.034 A 
HETATM   14  C10 UNL     1      22.022   0.023  53.960  1.00  0.00     0.029 A 
HETATM   15  C11 UNL     1      21.473  -1.187  54.323  1.00  0.00     0.003 A 
HETATM   16  C12 UNL     1      20.196  -1.513  53.926  1.00  0.00     0.007 A 
HETATM   17  C13 UNL     1      19.511  -0.606  53.173  1.00  0.00    -0.060 A 
HETATM   18  C14 UNL     1      18.128  -0.887  52.709  1.00  0.00     0.048 C 
HETATM   19  C15 UNL     1      20.107   0.588  52.839  1.00  0.00     0.036 A 
ENDBRANCH  11  13
ENDBRANCH   8  11
BRANCH   1  20
HETATM   20  O2  UNL     1      26.789   1.630  54.349  1.00  0.00    -0.326 OA
BRANCH  20  21
HETATM   21  C2  UNL     1      26.467   0.367  54.905  1.00  0.00     0.344 C 
BRANCH  21  22
HETATM   22  O1  UNL     1      27.531  -0.478  54.710  1.00  0.00    -0.371 OA
HETATM   23  C1  UNL     1      28.761   0.175  54.801  1.00  0.00     0.204 C 
ENDBRANCH  21  22
ENDBRANCH  20  21
ENDBRANCH   1  20
TORSDOF 5
ENDMDL
MODEL 7
REMARK VINA RESULT:      -7.1      1.763      2.728
REMARK  5 active torsions:
REMARK  status: ('A' for Active; 'I' for Inactive)
REMARK    1  A    between atoms: O1_2  and  C2_3 
REMARK    2  A    between atoms: C2_3  and  O2_4 
REMARK    3  A    between atoms: O2_4  and  C3_5 
REMARK    4  A    between atoms: C8_12  and  N3_13 
REMARK    5  A    between atoms: N3_13  and  C9_14 
ROOT
HETATM    1  C3  UNL     1      21.880  -0.049  54.175  1.00  0.00     0.072 A 
HETATM    2  C4  UNL     1      22.427  -0.912  55.103  1.00  0.00     0.039 A 
HETATM    3  C5  UNL     1      23.772  -1.162  55.053  1.00  0.00     0.035 A 
HETATM    4  C6  UNL     1      24.549  -0.558  54.092  1.00  0.00     0.072 A 
HETATM    5  N1  UNL     1      25.856  -0.863  54.122  1.00  0.00    -0.241 NA
HETATM    6  C7  UNL     1      26.660  -0.313  53.221  1.00  0.00     0.236 A 
HETATM    7  N2  UNL     1      26.150   0.524  52.316  1.00  0.00    -0.224 NA
HETATM    8  C8  UNL     1      24.875   0.898  52.191  1.00  0.00     0.142 A 
HETATM    9  C16 UNL     1      24.067   0.311  53.138  1.00  0.00     0.041 A 
HETATM   10  C17 UNL     1      22.712   0.524  53.237  1.00  0.00     0.054 A 
ENDROOT
BRANCH   8  11
HETATM   11  N3  UNL     1      24.320   1.769  51.255  1.00  0.00    -0.340 N 
HETATM   12  H9  UNL     1      23.397   1.627  50.854  1.00  0.00     0.167 HD
BRANCH  11  13
HETATM   13  C9  UNL     1      24.898   2.949  50.715  1.00  0.00     0.034 A 
HETATM   14  C10 UNL     1      26.023   2.930  49.926  1.00  0.00     0.029 A 
HETATM   15  C11 UNL     1      26.610   4.051  49.381  1.00  0.00     0.003 A 
HETATM   16  C12 UNL     1      26.072   5.296  49.615  1.00  0.00     0.007 A 
HETATM   17  C13 UNL     1      24.955   5.372  50.394  1.00  0.00    -0.060 A 
HETATM   18  C14 UNL     1      24.318   6.681  50.689  1.00  0.00     0.048 C 
HETATM   19  C15 UNL     1      24.409   4.221  50.913  1.00  0.00     0.036 A 
ENDBRANCH  11  13
ENDBRANCH   8  11
BRANCH   1  20
HETATM   20  O2  UNL     1      20.524   0.200  54.229  1.00  0.00    -0.326 OA
BRANCH  20  21
HETATM   21  C2  UNL     1      19.738  -0.214  53.126  1.00  0.00     0.344 C 
BRANCH  21  22
HETATM   22  O1  UNL     1      18.925  -1.243  53.533  1.00  0.00    -0.371 OA
HETATM   23  C1  UNL     1      17.677  -1.221  52.907  1.00  0.00     0.204 C 
ENDBRANCH  21  22
ENDBRANCH  20  21
ENDBRANCH   1  20
TORSDOF 5
ENDMDL
MODEL 8
REMARK VINA RESULT:      -7.1      2.845      4.359
REMARK  5 active torsions:
REMARK  status: ('A' for Active; 'I' for Inactive)
REMARK    1  A    between atoms: O1_2  and  C2_3 
REMARK    2  A    between atoms: C2_3  and  O2_4 
REMARK    3  A    between atoms: O2_4  and  C3_5 
REMARK    4  A    between atoms: C8_12  and  N3_13 
REMARK    5  A    between atoms: N3_13  and  C9_14 
ROOT
HETATM    1  C3  UNL     1      26.362   1.466  52.719  1.00  0.00     0.072 A 
HETATM    2  C4  UNL     1      25.101   1.192  53.209  1.00  0.00     0.039 A 
HETATM    3  C5  UNL     1      24.015   1.689  52.541  1.00  0.00     0.035 A 
HETATM    4  C6  UNL     1      24.192   2.445  51.405  1.00  0.00     0.072 A 
HETATM    5  N1  UNL     1      23.069   2.888  50.819  1.00  0.00    -0.241 NA
HETATM    6  C7  UNL     1      23.172   3.623  49.719  1.00  0.00     0.236 A 
HETATM    7  N2  UNL     1      24.381   3.899  49.229  1.00  0.00    -0.224 NA
HETATM    8  C8  UNL     1      25.560   3.515  49.725  1.00  0.00     0.142 A 
HETATM    9  C16 UNL     1      25.420   2.755  50.864  1.00  0.00     0.041 A 
HETATM   10  C17 UNL     1      26.473   2.230  51.577  1.00  0.00     0.054 A 
ENDROOT
BRANCH   8  11
HETATM   11  N3  UNL     1      26.835   3.790  49.232  1.00  0.00    -0.340 N 
HETATM   12  H9  UNL     1      27.573   3.094  49.204  1.00  0.00     0.167 HD
BRANCH  11  13
HETATM   13  C9  UNL     1      27.316   5.018  48.705  1.00  0.00     0.034 A 
HETATM   14  C10 UNL     1      26.509   6.115  48.523  1.00  0.00     0.029 A 
HETATM   15  C11 UNL     1      26.939   7.323  48.020  1.00  0.00     0.003 A 
HETATM   16  C12 UNL     1      28.256   7.492  47.660  1.00  0.00     0.007 A 
HETATM   17  C13 UNL     1      29.102   6.433  47.819  1.00  0.00    -0.060 A 
HETATM   18  C14 UNL     1      30.538   6.542  47.454  1.00  0.00     0.048 C 
HETATM   19  C15 UNL     1      28.620   5.250  48.326  1.00  0.00     0.036 A 
ENDBRANCH  11  13
ENDBRANCH   8  11
BRANCH   1  20
HETATM   20  O2  UNL     1      27.453   0.962  53.395  1.00  0.00    -0.326 OA
BRANCH  20  21
HETATM   21  C2  UNL     1      27.233  -0.125  54.277  1.00  0.00     0.344 C 
BRANCH  21  22
HETATM   22  O1  UNL     1      28.450  -0.590  54.707  1.00  0.00    -0.371 OA
HETATM   23  C1  UNL     1      29.514  -0.087  53.957  1.00  0.00     0.204 C 
ENDBRANCH  21  22
ENDBRANCH  20  21
ENDBRANCH   1  20
TORSDOF 5
ENDMDL
MODEL 9
REMARK VINA RESULT:      -7.0      2.263      4.169
REMARK  5 active torsions:
REMARK  status: ('A' for Active; 'I' for Inactive)
REMARK    1  A    between atoms: O1_2  and  C2_3 
REMARK    2  A    between atoms: C2_3  and  O2_4 
REMARK    3  A    between atoms: O2_4  and  C3_5 
REMARK    4  A    between atoms: C8_12  and  N3_13 
REMARK    5  A    between atoms: N3_13  and  C9_14 
ROOT
HETATM    1  C3  UNL     1      24.095   0.550  53.052  1.00  0.00     0.072 A 
HETATM    2  C4  UNL     1      22.757   0.264  53.236  1.00  0.00     0.039 A 
HETATM    3  C5  UNL     1      21.845   0.810  52.372  1.00  0.00     0.035 A 
HETATM    4  C6  UNL     1      22.269   1.625  51.348  1.00  0.00     0.072 A 
HETATM    5  N1  UNL     1      21.303   2.113  50.553  1.00  0.00    -0.241 NA
HETATM    6  C7  UNL     1      21.647   2.906  49.547  1.00  0.00     0.236 A 
HETATM    7  N2  UNL     1      22.934   3.195  49.353  1.00  0.00    -0.224 NA
HETATM    8  C8  UNL     1      23.973   2.770  50.075  1.00  0.00     0.142 A 
HETATM    9  C16 UNL     1      23.586   1.951  51.111  1.00  0.00     0.041 A 
HETATM   10  C17 UNL     1      24.455   1.375  52.008  1.00  0.00     0.054 A 
ENDROOT
BRANCH   8  11
HETATM   11  N3  UNL     1      25.326   3.058  49.892  1.00  0.00    -0.340 N 
HETATM   12  H9  UNL     1      26.063   2.403  50.137  1.00  0.00     0.167 HD
BRANCH  11  13
HETATM   13  C9  UNL     1      25.898   4.244  49.363  1.00  0.00     0.034 A 
HETATM   14  C10 UNL     1      25.169   5.392  49.156  1.00  0.00     0.029 A 
HETATM   15  C11 UNL     1      25.689   6.562  48.649  1.00  0.00     0.003 A 
HETATM   16  C12 UNL     1      27.021   6.638  48.310  1.00  0.00     0.007 A 
HETATM   17  C13 UNL     1      27.790   5.527  48.494  1.00  0.00    -0.060 A 
HETATM   18  C14 UNL     1      29.235   5.534  48.152  1.00  0.00     0.048 C 
HETATM   19  C15 UNL     1      27.220   4.384  49.004  1.00  0.00     0.036 A 
ENDBRANCH  11  13
ENDBRANCH   8  11
BRANCH   1  20
HETATM   20  O2  UNL     1      25.009  -0.002  53.924  1.00  0.00    -0.326 OA
BRANCH  20  21
HETATM   21  C2  UNL     1      26.266   0.639  54.047  1.00  0.00     0.344 C 
BRANCH  21  22
HETATM   22  O1  UNL     1      27.204  -0.303  54.391  1.00  0.00    -0.371 OA
HETATM   23  C1  UNL     1      28.001  -0.688  53.312  1.00  0.00     0.204 C 
ENDBRANCH  21  22
ENDBRANCH  20  21
ENDBRANCH   1  20
TORSDOF 5
ENDMDL
