MODEL 1
REMARK VINA RESULT:      -7.5      0.000      0.000
REMARK  3 active torsions:
REMARK  status: ('A' for Active; 'I' for Inactive)
REMARK    1  A    between atoms: N1_2  and  C2_3 
REMARK    2  A    between atoms: C3_5  and  N3_6 
REMARK    3  A    between atoms: N3_6  and  C4_7 
ROOT
HETATM    1  C2  UNL     1      25.801   2.661  52.787  1.00  0.00     0.105 C 
HETATM    2  N2  UNL     1      26.275   2.667  51.565  1.00  0.00    -0.246 NA
HETATM    3  C3  UNL     1      25.353   2.743  50.424  1.00  0.00     0.238 C 
HETATM    4  C7  UNL     1      23.943   2.753  50.953  1.00  0.00    -0.020 C 
HETATM    5  C8  UNL     1      23.110   1.928  50.342  1.00  0.00     0.089 C 
HETATM    6  N4  UNL     1      21.938   1.294  50.833  1.00  0.00    -0.398 N 
HETATM    7  C9  UNL     1      21.336   1.296  52.168  1.00  0.00     0.132 C 
HETATM    8  C10 UNL     1      22.288   0.952  53.259  1.00  0.00     0.055 A 
HETATM    9  C11 UNL     1      22.511  -0.529  53.246  1.00  0.00    -0.016 A 
HETATM   10  C12 UNL     1      23.814  -0.745  53.230  1.00  0.00    -0.003 A 
HETATM   11  C13 UNL     1      24.444   0.564  53.233  1.00  0.00     0.004 A 
HETATM   12  C14 UNL     1      23.596   1.595  53.251  1.00  0.00    -0.059 A 
HETATM   13  C15 UNL     1      24.380   2.858  53.264  1.00  0.00     0.088 C 
HETATM   14  C16 UNL     1      23.788   3.712  52.118  1.00  0.00     0.056 C 
HETATM   15  H12 UNL     1      21.551   0.776  49.988  1.00  0.00     0.158 HD
ENDROOT
BRANCH   3  16
HETATM   16  N3  UNL     1      25.607   3.886  49.596  1.00  0.00    -0.372 N 
HETATM   17  H6  UNL     1      25.013   4.645  49.181  1.00  0.00     0.161 HD
BRANCH  16  18
HETATM   18  C4  UNL     1      26.982   4.038  49.248  1.00  0.00     0.099 C 
HETATM   19  C5  UNL     1      27.234   5.234  48.762  1.00  0.00    -0.000 C 
HETATM   20  C6  UNL     1      26.130   6.223  48.640  1.00  0.00     0.058 C 
HETATM   21 BR1  UNL     1      29.003   5.710  48.212  1.00  0.00    -0.055 Br
ENDBRANCH  16  18
ENDBRANCH   3  16
BRANCH   1  22
HETATM   22  N1  UNL     1      26.867   2.428  53.736  1.00  0.00    -0.382 N 
HETATM   23  C1  UNL     1      28.260   2.327  53.400  1.00  0.00     0.147 C 
HETATM   24  H4  UNL     1      26.646   2.319  54.754  1.00  0.00     0.160 HD
ENDBRANCH   1  22
TORSDOF 3
ENDMDL
MODEL 2
REMARK VINA RESULT:      -7.3      2.596      5.252
REMARK  3 active torsions:
REMARK  status: ('A' for Active; 'I' for Inactive)
REMARK    1  A    between atoms: N1_2  and  C2_3 
REMARK    2  A    between atoms: C3_5  and  N3_6 
REMARK    3  A    between atoms: N3_6  and  C4_7 
ROOT
HETATM    1  C2  UNL     1      22.996   1.337  52.846  1.00  0.00     0.105 C 
HETATM    2  N2  UNL     1      23.784   0.290  52.904  1.00  0.00    -0.246 NA
HETATM    3  C3  UNL     1      25.220   0.441  52.634  1.00  0.00     0.238 C 
HETATM    4  C7  UNL     1      25.488   1.879  52.279  1.00  0.00    -0.020 C 
HETATM    5  C8  UNL     1      26.246   2.060  51.211  1.00  0.00     0.089 C 
HETATM    6  N4  UNL     1      26.290   3.152  50.304  1.00  0.00    -0.398 N 
HETATM    7  C9  UNL     1      25.475   4.366  50.226  1.00  0.00     0.132 C 
HETATM    8  C10 UNL     1      24.009   4.109  50.244  1.00  0.00     0.055 A 
HETATM    9  C11 UNL     1      23.596   3.616  48.891  1.00  0.00    -0.016 A 
HETATM   10  C12 UNL     1      22.909   2.502  49.055  1.00  0.00    -0.003 A 
HETATM   11  C13 UNL     1      22.864   2.257  50.485  1.00  0.00     0.004 A 
HETATM   12  C14 UNL     1      23.492   3.169  51.231  1.00  0.00    -0.059 A 
HETATM   13  C15 UNL     1      23.353   2.794  52.663  1.00  0.00     0.088 C 
HETATM   14  C16 UNL     1      24.790   2.832  53.231  1.00  0.00     0.056 C 
HETATM   15  H12 UNL     1      27.084   2.905  49.641  1.00  0.00     0.158 HD
ENDROOT
BRANCH   3  16
HETATM   16  N3  UNL     1      26.027   0.020  53.743  1.00  0.00    -0.372 N 
HETATM   17  H6  UNL     1      26.015   0.201  54.777  1.00  0.00     0.161 HD
BRANCH  16  18
HETATM   18  C4  UNL     1      27.097  -0.845  53.368  1.00  0.00     0.099 C 
HETATM   19  C5  UNL     1      28.257  -0.404  53.802  1.00  0.00    -0.000 C 
HETATM   20  C6  UNL     1      28.315   0.860  54.583  1.00  0.00     0.058 C 
HETATM   21 BR1  UNL     1      29.867  -1.372  53.439  1.00  0.00    -0.055 Br
ENDBRANCH  16  18
ENDBRANCH   3  16
BRANCH   1  22
HETATM   22  N1  UNL     1      21.616   0.933  52.993  1.00  0.00    -0.382 N 
HETATM   23  C1  UNL     1      21.088   0.197  54.108  1.00  0.00     0.147 C 
HETATM   24  H4  UNL     1      20.918   1.176  52.251  1.00  0.00     0.160 HD
ENDBRANCH   1  22
TORSDOF 3
ENDMDL
MODEL 3
REMARK VINA RESULT:      -7.2      3.106      4.661
REMARK  3 active torsions:
REMARK  status: ('A' for Active; 'I' for Inactive)
REMARK    1  A    between atoms: N1_2  and  C2_3 
REMARK    2  A    between atoms: C3_5  and  N3_6 
REMARK    3  A    between atoms: N3_6  and  C4_7 
ROOT
HETATM    1  C2  UNL     1      25.416   2.905  51.386  1.00  0.00     0.105 C 
HETATM    2  N2  UNL     1      24.474   2.790  50.481  1.00  0.00    -0.246 NA
HETATM    3  C3  UNL     1      23.239   2.063  50.800  1.00  0.00     0.238 C 
HETATM    4  C7  UNL     1      23.354   1.525  52.202  1.00  0.00    -0.020 C 
HETATM    5  C8  UNL     1      23.000   0.259  52.346  1.00  0.00     0.089 C 
HETATM    6  N4  UNL     1      23.429  -0.700  53.302  1.00  0.00    -0.398 N 
HETATM    7  C9  UNL     1      24.433  -0.609  54.364  1.00  0.00     0.132 C 
HETATM    8  C10 UNL     1      25.754  -0.101  53.903  1.00  0.00     0.055 A 
HETATM    9  C11 UNL     1      26.463  -1.205  53.180  1.00  0.00    -0.016 A 
HETATM   10  C12 UNL     1      26.857  -0.739  52.010  1.00  0.00    -0.003 A 
HETATM   11  C13 UNL     1      26.421   0.645  51.954  1.00  0.00     0.004 A 
HETATM   12  C14 UNL     1      25.770   1.073  53.038  1.00  0.00    -0.059 A 
HETATM   13  C15 UNL     1      25.399   2.499  52.842  1.00  0.00     0.088 C 
HETATM   14  C16 UNL     1      23.888   2.570  53.162  1.00  0.00     0.056 C 
HETATM   15  H12 UNL     1      22.843  -1.561  53.086  1.00  0.00     0.158 HD
ENDROOT
BRANCH   3  16
HETATM   16  N3  UNL     1      22.072   2.884  50.651  1.00  0.00    -0.372 N 
HETATM   17  H6  UNL     1      21.819   3.865  50.922  1.00  0.00     0.161 HD
BRANCH  16  18
HETATM   18  C4  UNL     1      20.998   2.225  49.982  1.00  0.00     0.099 C 
HETATM   19  C5  UNL     1      19.900   2.222  50.705  1.00  0.00    -0.000 C 
HETATM   20  C6  UNL     1      19.904   2.864  52.047  1.00  0.00     0.058 C 
HETATM   21 BR1  UNL     1      18.302   1.401  50.048  1.00  0.00    -0.055 Br
ENDBRANCH  16  18
ENDBRANCH   3  16
BRANCH   1  22
HETATM   22  N1  UNL     1      26.591   3.519  50.810  1.00  0.00    -0.382 N 
HETATM   23  C1  UNL     1      26.743   3.866  49.425  1.00  0.00     0.147 C 
HETATM   24  H4  UNL     1      27.415   3.743  51.417  1.00  0.00     0.160 HD
ENDBRANCH   1  22
TORSDOF 3
ENDMDL
MODEL 4
REMARK VINA RESULT:      -6.9      2.814      4.854
REMARK  3 active torsions:
REMARK  status: ('A' for Active; 'I' for Inactive)
REMARK    1  A    between atoms: N1_2  and  C2_3 
REMARK    2  A    between atoms: C3_5  and  N3_6 
REMARK    3  A    between atoms: N3_6  and  C4_7 
ROOT
HETATM    1  C2  UNL     1      19.949   1.295  51.715  1.00  0.00     0.105 C 
HETATM    2  N2  UNL     1      20.022   2.590  51.906  1.00  0.00    -0.246 NA
HETATM    3  C3  UNL     1      21.335   3.247  51.972  1.00  0.00     0.238 C 
HETATM    4  C7  UNL     1      22.400   2.191  51.837  1.00  0.00    -0.020 C 
HETATM    5  C8  UNL     1      23.384   2.274  52.716  1.00  0.00     0.089 C 
HETATM    6  N4  UNL     1      24.228   1.254  53.232  1.00  0.00    -0.398 N 
HETATM    7  C9  UNL     1      24.226  -0.193  53.011  1.00  0.00     0.132 C 
HETATM    8  C10 UNL     1      22.898  -0.833  53.219  1.00  0.00     0.055 A 
HETATM    9  C11 UNL     1      22.652  -0.949  54.693  1.00  0.00    -0.016 A 
HETATM   10  C12 UNL     1      21.466  -0.430  54.950  1.00  0.00    -0.003 A 
HETATM   11  C13 UNL     1      20.933   0.022  53.677  1.00  0.00     0.004 A 
HETATM   12  C14 UNL     1      21.731  -0.190  52.628  1.00  0.00    -0.059 A 
HETATM   13  C15 UNL     1      21.052   0.310  51.403  1.00  0.00     0.088 C 
HETATM   14  C16 UNL     1      22.091   1.223  50.711  1.00  0.00     0.056 C 
HETATM   15  H12 UNL     1      24.912   1.777  53.857  1.00  0.00     0.158 HD
ENDROOT
BRANCH   3  16
HETATM   16  N3  UNL     1      21.482   4.266  50.974  1.00  0.00    -0.372 N 
HETATM   17  H6  UNL     1      21.159   4.381  49.982  1.00  0.00     0.161 HD
BRANCH  16  18
HETATM   18  C4  UNL     1      22.242   5.388  51.419  1.00  0.00     0.099 C 
HETATM   19  C5  UNL     1      23.202   5.694  50.573  1.00  0.00    -0.000 C 
HETATM   20  C6  UNL     1      23.372   4.889  49.334  1.00  0.00     0.058 C 
HETATM   21 BR1  UNL     1      24.379   7.160  50.923  1.00  0.00    -0.055 Br
ENDBRANCH  16  18
ENDBRANCH   3  16
BRANCH   1  22
HETATM   22  N1  UNL     1      18.580   0.848  51.839  1.00  0.00    -0.382 N 
HETATM   23  C1  UNL     1      17.945  -0.107  50.975  1.00  0.00     0.147 C 
HETATM   24  H4  UNL     1      17.973   1.227  52.604  1.00  0.00     0.160 HD
ENDBRANCH   1  22
TORSDOF 3
ENDMDL
MODEL 5
REMARK VINA RESULT:      -6.8      1.841      2.291
REMARK  3 active torsions:
REMARK  status: ('A' for Active; 'I' for Inactive)
REMARK    1  A    between atoms: N1_2  and  C2_3 
REMARK    2  A    between atoms: C3_5  and  N3_6 
REMARK    3  A    between atoms: N3_6  and  C4_7 
ROOT
HETATM    1  C2  UNL     1      24.925   1.670  52.085  1.00  0.00     0.105 C 
HETATM    2  N2  UNL     1      25.469   2.267  51.052  1.00  0.00    -0.246 NA
HETATM    3  C3  UNL     1      24.897   3.522  50.548  1.00  0.00     0.238 C 
HETATM    4  C7  UNL     1      23.681   3.854  51.372  1.00  0.00    -0.020 C 
HETATM    5  C8  UNL     1      22.613   4.206  50.677  1.00  0.00     0.089 C 
HETATM    6  N4  UNL     1      21.237   4.087  51.005  1.00  0.00    -0.398 N 
HETATM    7  C9  UNL     1      20.578   3.481  52.165  1.00  0.00     0.132 C 
HETATM    8  C10 UNL     1      21.031   2.094  52.459  1.00  0.00     0.055 A 
HETATM    9  C11 UNL     1      20.389   1.166  51.474  1.00  0.00    -0.016 A 
HETATM   10  C12 UNL     1      21.338   0.426  50.933  1.00  0.00    -0.003 A 
HETATM   11  C13 UNL     1      22.585   0.852  51.543  1.00  0.00     0.004 A 
HETATM   12  C14 UNL     1      22.464   1.827  52.446  1.00  0.00    -0.059 A 
HETATM   13  C15 UNL     1      23.811   2.147  52.988  1.00  0.00     0.088 C 
HETATM   14  C16 UNL     1      23.945   3.682  52.856  1.00  0.00     0.056 C 
HETATM   15  H12 UNL     1      20.735   4.552  50.190  1.00  0.00     0.158 HD
ENDROOT
BRANCH   3  16
HETATM   16  N3  UNL     1      25.847   4.597  50.566  1.00  0.00    -0.372 N 
HETATM   17  H6  UNL     1      26.437   5.049  51.306  1.00  0.00     0.161 HD
BRANCH  16  18
HETATM   18  C4  UNL     1      26.043   5.200  49.288  1.00  0.00     0.099 C 
HETATM   19  C5  UNL     1      25.763   6.484  49.306  1.00  0.00    -0.000 C 
HETATM   20  C6  UNL     1      25.305   7.118  50.571  1.00  0.00     0.058 C 
HETATM   21 BR1  UNL     1      25.938   7.542  47.722  1.00  0.00    -0.055 Br
ENDBRANCH  16  18
ENDBRANCH   3  16
BRANCH   1  22
HETATM   22  N1  UNL     1      25.551   0.386  52.308  1.00  0.00    -0.382 N 
HETATM   23  C1  UNL     1      25.495  -0.354  53.537  1.00  0.00     0.147 C 
HETATM   24  H4  UNL     1      26.096  -0.070  51.539  1.00  0.00     0.160 HD
ENDBRANCH   1  22
TORSDOF 3
ENDMDL
MODEL 6
REMARK VINA RESULT:      -6.7      3.415      5.855
REMARK  3 active torsions:
REMARK  status: ('A' for Active; 'I' for Inactive)
REMARK    1  A    between atoms: N1_2  and  C2_3 
REMARK    2  A    between atoms: C3_5  and  N3_6 
REMARK    3  A    between atoms: N3_6  and  C4_7 
ROOT
HETATM    1  C2  UNL     1      25.508   3.888  50.133  1.00  0.00     0.105 C 
HETATM    2  N2  UNL     1      25.373   3.145  51.205  1.00  0.00    -0.246 NA
HETATM    3  C3  UNL     1      24.031   2.790  51.684  1.00  0.00     0.238 C 
HETATM    4  C7  UNL     1      23.017   3.450  50.788  1.00  0.00    -0.020 C 
HETATM    5  C8  UNL     1      22.033   4.068  51.416  1.00  0.00     0.089 C 
HETATM    6  N4  UNL     1      21.239   5.170  50.998  1.00  0.00    -0.398 N 
HETATM    7  C9  UNL     1      21.310   5.997  49.792  1.00  0.00     0.132 C 
HETATM    8  C10 UNL     1      22.668   6.540  49.513  1.00  0.00     0.055 A 
HETATM    9  C11 UNL     1      22.923   7.686  50.444  1.00  0.00    -0.016 A 
HETATM   10  C12 UNL     1      24.083   7.479  51.037  1.00  0.00    -0.003 A 
HETATM   11  C13 UNL     1      24.590   6.223  50.514  1.00  0.00     0.004 A 
HETATM   12  C14 UNL     1      23.801   5.629  49.615  1.00  0.00    -0.059 A 
HETATM   13  C15 UNL     1      24.452   4.371  49.165  1.00  0.00     0.088 C 
HETATM   14  C16 UNL     1      23.369   3.278  49.322  1.00  0.00     0.056 C 
HETATM   15  H12 UNL     1      20.533   5.292  51.784  1.00  0.00     0.158 HD
ENDROOT
BRANCH   3  16
HETATM   16  N3  UNL     1      23.833   1.371  51.739  1.00  0.00    -0.372 N 
HETATM   17  H6  UNL     1      23.905   0.587  51.046  1.00  0.00     0.161 HD
BRANCH  16  18
HETATM   18  C4  UNL     1      23.447   0.903  53.031  1.00  0.00     0.099 C 
HETATM   19  C5  UNL     1      22.289   0.280  52.999  1.00  0.00    -0.000 C 
HETATM   20  C6  UNL     1      21.566   0.143  51.706  1.00  0.00     0.058 C 
HETATM   21 BR1  UNL     1      21.530  -0.450  54.595  1.00  0.00    -0.055 Br
ENDBRANCH  16  18
ENDBRANCH   3  16
BRANCH   1  22
HETATM   22  N1  UNL     1      26.897   4.236  49.936  1.00  0.00    -0.382 N 
HETATM   23  C1  UNL     1      27.450   4.763  48.720  1.00  0.00     0.147 C 
HETATM   24  H4  UNL     1      27.583   4.108  50.717  1.00  0.00     0.160 HD
ENDBRANCH   1  22
TORSDOF 3
ENDMDL
MODEL 7
REMARK VINA RESULT:      -6.7      2.863      4.628
REMARK  3 active torsions:
REMARK  status: ('A' for Active; 'I' for Inactive)
REMARK    1  A    between atoms: N1_2  and  C2_3 
REMARK    2  A    between atoms: C3_5  and  N3_6 
REMARK    3  A    between atoms: N3_6  and  C4_7 
ROOT
HETATM    1  C2  UNL     1      22.123   2.712  50.699  1.00  0.00     0.105 C 
HETATM    2  N2  UNL     1      21.666   3.731  51.386  1.00  0.00    -0.246 NA
HETATM    3  C3  UNL     1      22.568   4.480  52.271  1.00  0.00     0.238 C 
HETATM    4  C7  UNL     1      23.926   3.831  52.223  1.00  0.00    -0.020 C 
HETATM    5  C8  UNL     1      24.492   3.632  53.401  1.00  0.00     0.089 C 
HETATM    6  N4  UNL     1      25.441   2.652  53.797  1.00  0.00    -0.398 N 
HETATM    7  C9  UNL     1      26.024   1.530  53.059  1.00  0.00     0.132 C 
HETATM    8  C10 UNL     1      25.018   0.656  52.396  1.00  0.00     0.055 A 
HETATM    9  C11 UNL     1      24.388  -0.217  53.437  1.00  0.00    -0.016 A 
HETATM   10  C12 UNL     1      23.077  -0.107  53.324  1.00  0.00    -0.003 A 
HETATM   11  C13 UNL     1      22.840   0.820  52.232  1.00  0.00     0.004 A 
HETATM   12  C14 UNL     1      23.943   1.298  51.650  1.00  0.00    -0.059 A 
HETATM   13  C15 UNL     1      23.544   2.217  50.552  1.00  0.00     0.088 C 
HETATM   14  C16 UNL     1      24.347   3.515  50.801  1.00  0.00     0.056 C 
HETATM   15  H12 UNL     1      25.664   2.902  54.807  1.00  0.00     0.158 HD
ENDROOT
BRANCH   3  16
HETATM   16  N3  UNL     1      22.642   5.868  51.919  1.00  0.00    -0.372 N 
HETATM   17  H6  UNL     1      23.312   6.649  52.125  1.00  0.00     0.161 HD
BRANCH  16  18
HETATM   18  C4  UNL     1      21.557   6.302  51.100  1.00  0.00     0.099 C 
HETATM   19  C5  UNL     1      21.886   7.342  50.365  1.00  0.00    -0.000 C 
HETATM   20  C6  UNL     1      23.258   7.907  50.465  1.00  0.00     0.058 C 
HETATM   21 BR1  UNL     1      20.618   8.133  49.171  1.00  0.00    -0.055 Br
ENDBRANCH  16  18
ENDBRANCH   3  16
BRANCH   1  22
HETATM   22  N1  UNL     1      21.038   2.036  50.024  1.00  0.00    -0.382 N 
HETATM   23  C1  UNL     1      21.189   1.156  48.899  1.00  0.00     0.147 C 
HETATM   24  H4  UNL     1      20.052   2.175  50.350  1.00  0.00     0.160 HD
ENDBRANCH   1  22
TORSDOF 3
ENDMDL
MODEL 8
REMARK VINA RESULT:      -6.6      2.641      4.530
REMARK  3 active torsions:
REMARK  status: ('A' for Active; 'I' for Inactive)
REMARK    1  A    between atoms: N1_2  and  C2_3 
REMARK    2  A    between atoms: C3_5  and  N3_6 
REMARK    3  A    between atoms: N3_6  and  C4_7 
ROOT
HETATM    1  C2  UNL     1      23.538   4.085  51.944  1.00  0.00     0.105 C 
HETATM    2  N2  UNL     1      23.785   3.328  52.985  1.00  0.00    -0.246 NA
HETATM    3  C3  UNL     1      23.547   1.880  52.909  1.00  0.00     0.238 C 
HETATM    4  C7  UNL     1      22.982   1.563  51.550  1.00  0.00    -0.020 C 
HETATM    5  C8  UNL     1      21.927   0.767  51.555  1.00  0.00     0.089 C 
HETATM    6  N4  UNL     1      20.864   0.664  50.618  1.00  0.00    -0.398 N 
HETATM    7  C9  UNL     1      20.570   1.444  49.415  1.00  0.00     0.132 C 
HETATM    8  C10 UNL     1      20.575   2.916  49.634  1.00  0.00     0.055 A 
HETATM    9  C11 UNL     1      19.300   3.298  50.323  1.00  0.00    -0.016 A 
HETATM   10  C12 UNL     1      19.611   4.020  51.383  1.00  0.00    -0.003 A 
HETATM   11  C13 UNL     1      21.059   4.117  51.401  1.00  0.00     0.004 A 
HETATM   12  C14 UNL     1      21.677   3.489  50.397  1.00  0.00    -0.059 A 
HETATM   13  C15 UNL     1      23.143   3.684  50.541  1.00  0.00     0.088 C 
HETATM   14  C16 UNL     1      23.750   2.265  50.446  1.00  0.00     0.056 C 
HETATM   15  H12 UNL     1      20.276  -0.144  50.983  1.00  0.00     0.158 HD
ENDROOT
BRANCH   3  16
HETATM   16  N3  UNL     1      24.736   1.121  53.169  1.00  0.00    -0.372 N 
HETATM   17  H6  UNL     1      24.991   0.105  53.117  1.00  0.00     0.161 HD
BRANCH  16  18
HETATM   18  C4  UNL     1      25.835   1.922  53.602  1.00  0.00     0.099 C 
HETATM   19  C5  UNL     1      26.985   1.440  53.185  1.00  0.00    -0.000 C 
HETATM   20  C6  UNL     1      27.006   0.198  52.366  1.00  0.00     0.058 C 
HETATM   21 BR1  UNL     1      28.627   2.318  53.623  1.00  0.00    -0.055 Br
ENDBRANCH  16  18
ENDBRANCH   3  16
BRANCH   1  22
HETATM   22  N1  UNL     1      23.696   5.480  52.291  1.00  0.00    -0.382 N 
HETATM   23  C1  UNL     1      24.023   6.527  51.363  1.00  0.00     0.147 C 
HETATM   24  H4  UNL     1      23.571   5.789  53.284  1.00  0.00     0.160 HD
ENDBRANCH   1  22
TORSDOF 3
ENDMDL
MODEL 9
REMARK VINA RESULT:      -6.4      6.485     10.489
REMARK  3 active torsions:
REMARK  status: ('A' for Active; 'I' for Inactive)
REMARK    1  A    between atoms: N1_2  and  C2_3 
REMARK    2  A    between atoms: C3_5  and  N3_6 
REMARK    3  A    between atoms: N3_6  and  C4_7 
ROOT
HETATM    1  C2  UNL     1      32.665   7.355  46.882  1.00  0.00     0.105 C 
HETATM    2  N2  UNL     1      31.387   7.068  46.941  1.00  0.00    -0.246 NA
HETATM    3  C3  UNL     1      30.939   5.871  47.666  1.00  0.00     0.238 C 
HETATM    4  C7  UNL     1      32.154   5.152  48.190  1.00  0.00    -0.020 C 
HETATM    5  C8  UNL     1      32.165   3.847  47.980  1.00  0.00     0.089 C 
HETATM    6  N4  UNL     1      33.266   2.960  47.847  1.00  0.00    -0.398 N 
HETATM    7  C9  UNL     1      34.707   3.218  47.829  1.00  0.00     0.132 C 
HETATM    8  C10 UNL     1      35.117   4.278  46.868  1.00  0.00     0.055 A 
HETATM    9  C11 UNL     1      35.095   3.701  45.485  1.00  0.00    -0.016 A 
HETATM   10  C12 UNL     1      34.382   4.506  44.719  1.00  0.00    -0.003 A 
HETATM   11  C13 UNL     1      33.940   5.595  45.572  1.00  0.00     0.004 A 
HETATM   12  C14 UNL     1      34.343   5.513  46.842  1.00  0.00    -0.059 A 
HETATM   13  C15 UNL     1      33.827   6.693  47.584  1.00  0.00     0.088 C 
HETATM   14  C16 UNL     1      33.136   6.109  48.839  1.00  0.00     0.056 C 
HETATM   15  H12 UNL     1      32.815   2.001  47.754  1.00  0.00     0.158 HD
ENDROOT
BRANCH   3  16
HETATM   16  N3  UNL     1      30.025   6.190  48.724  1.00  0.00    -0.372 N 
HETATM   17  H6  UNL     1      29.935   5.913  49.732  1.00  0.00     0.161 HD
BRANCH  16  18
HETATM   18  C4  UNL     1      28.992   7.091  48.327  1.00  0.00     0.099 C 
HETATM   19  C5  UNL     1      27.818   6.500  48.283  1.00  0.00    -0.000 C 
HETATM   20  C6  UNL     1      27.710   5.057  48.629  1.00  0.00     0.058 C 
HETATM   21 BR1  UNL     1      26.253   7.476  47.778  1.00  0.00    -0.055 Br
ENDBRANCH  16  18
ENDBRANCH   3  16
BRANCH   1  22
HETATM   22  N1  UNL     1      32.885   8.477  45.997  1.00  0.00    -0.382 N 
HETATM   23  C1  UNL     1      34.059   9.303  45.993  1.00  0.00     0.147 C 
HETATM   24  H4  UNL     1      32.155   8.738  45.292  1.00  0.00     0.160 HD
ENDBRANCH   1  22
TORSDOF 3
ENDMDL
