MODEL 1
REMARK VINA RESULT:      -6.5      0.000      0.000
REMARK  11 active torsions:
REMARK  status: ('A' for Active; 'I' for Inactive)
REMARK    1  A    between atoms: C3_3  and  O1_4 
REMARK    2  A    between atoms: C3_3  and  C6_7 
REMARK    3  A    between atoms: O1_4  and  C4_5 
REMARK    4  A    between atoms: C6_7  and  N1_8 
REMARK    5  A    between atoms: C6_7  and  C7_9 
REMARK    6  A    between atoms: C7_9  and  C8_11 
REMARK    7  A    between atoms: C8_11  and  O3_12 
REMARK    8  A    between atoms: O3_12  and  C9_13 
REMARK    9  A    between atoms: C9_13  and  N2_14 
REMARK   10  A    between atoms: N2_14  and  C11_16 
REMARK   11  A    between atoms: C11_16  and  C12_17 
ROOT
HETATM    1  C8  UNL     1      27.011   1.970  51.919  1.00  0.00     0.251 C 
ENDROOT
BRANCH   1   2
HETATM    2  C7  UNL     1      28.050   2.149  52.961  1.00  0.00     0.189 C 
HETATM    3  O2  UNL     1      29.025   2.844  53.213  1.00  0.00    -0.293 OA
BRANCH   2   4
HETATM    4  C6  UNL     1      28.060   1.280  54.175  1.00  0.00     0.344 C 
BRANCH   4   5
HETATM    5  C3  UNL     1      28.131  -0.167  53.851  1.00  0.00     0.082 C 
HETATM    6  C2  UNL     1      29.164  -0.866  53.409  1.00  0.00     0.004 C 
HETATM    7  C1  UNL     1      28.911  -2.305  53.179  1.00  0.00     0.038 C 
BRANCH   5   8
HETATM    8  O1  UNL     1      26.948  -0.869  54.042  1.00  0.00    -0.353 OA
BRANCH   8   9
HETATM    9  C4  UNL     1      25.966  -0.299  54.882  1.00  0.00     0.171 C 
HETATM   10  C5  UNL     1      24.660  -1.055  54.768  1.00  0.00     0.034 C 
ENDBRANCH   8   9
ENDBRANCH   5   8
ENDBRANCH   4   5
BRANCH   4  11
HETATM   11  N1  UNL     1      29.194   1.687  54.985  1.00  0.00     0.096 N 
HETATM   12  H11 UNL     1      29.574   0.911  55.570  1.00  0.00     0.314 HD
HETATM   13  H12 UNL     1      29.960   2.023  54.376  1.00  0.00     0.314 HD
ENDBRANCH   4  11
ENDBRANCH   2   4
ENDBRANCH   1   2
BRANCH   1  14
HETATM   14  O3  UNL     1      27.060   3.008  51.019  1.00  0.00    -0.355 OA
BRANCH  14  15
HETATM   15  C9  UNL     1      26.064   2.890  50.084  1.00  0.00     0.440 C 
BRANCH  15  16
HETATM   16  N2  UNL     1      24.885   3.549  50.624  1.00  0.00     0.111 N 
HETATM   17  C10 UNL     1      24.935   4.978  50.440  1.00  0.00     0.313 C 
BRANCH  16  18
HETATM   18  C11 UNL     1      23.760   3.020  49.877  1.00  0.00     0.313 C 
BRANCH  18  19
HETATM   19  C12 UNL     1      23.028   2.087  50.770  1.00  0.00    -0.030 A 
HETATM   20  C13 UNL     1      22.056   1.263  50.190  1.00  0.00     0.012 A 
HETATM   21  C14 UNL     1      21.281   0.341  50.864  1.00  0.00     0.043 A 
HETATM   22  C15 UNL     1      21.481   0.223  52.223  1.00  0.00     0.116 A 
HETATM   23  F1  UNL     1      20.759  -0.661  52.961  1.00  0.00    -0.206 F 
HETATM   24  C16 UNL     1      22.430   1.016  52.834  1.00  0.00     0.043 A 
HETATM   25  C17 UNL     1      23.189   1.928  52.131  1.00  0.00     0.012 A 
ENDBRANCH  18  19
ENDBRANCH  16  18
ENDBRANCH  15  16
ENDBRANCH  14  15
ENDBRANCH   1  14
TORSDOF 11
ENDMDL
MODEL 2
REMARK VINA RESULT:      -6.2      3.275      7.031
REMARK  11 active torsions:
REMARK  status: ('A' for Active; 'I' for Inactive)
REMARK    1  A    between atoms: C3_3  and  O1_4 
REMARK    2  A    between atoms: C3_3  and  C6_7 
REMARK    3  A    between atoms: O1_4  and  C4_5 
REMARK    4  A    between atoms: C6_7  and  N1_8 
REMARK    5  A    between atoms: C6_7  and  C7_9 
REMARK    6  A    between atoms: C7_9  and  C8_11 
REMARK    7  A    between atoms: C8_11  and  O3_12 
REMARK    8  A    between atoms: O3_12  and  C9_13 
REMARK    9  A    between atoms: C9_13  and  N2_14 
REMARK   10  A    between atoms: N2_14  and  C11_16 
REMARK   11  A    between atoms: C11_16  and  C12_17 
ROOT
HETATM    1  C8  UNL     1      23.004   3.160  51.243  1.00  0.00     0.251 C 
ENDROOT
BRANCH   1   2
HETATM    2  C7  UNL     1      23.061   4.619  51.495  1.00  0.00     0.189 C 
HETATM    3  O2  UNL     1      22.360   5.535  51.905  1.00  0.00    -0.293 OA
BRANCH   2   4
HETATM    4  C6  UNL     1      24.311   5.387  51.213  1.00  0.00     0.344 C 
BRANCH   4   5
HETATM    5  C3  UNL     1      24.442   5.773  49.786  1.00  0.00     0.082 C 
HETATM    6  C2  UNL     1      24.052   6.890  49.192  1.00  0.00     0.004 C 
HETATM    7  C1  UNL     1      24.330   6.973  47.741  1.00  0.00     0.038 C 
BRANCH   5   8
HETATM    8  O1  UNL     1      25.059   4.828  48.978  1.00  0.00    -0.353 OA
BRANCH   8   9
HETATM    9  C4  UNL     1      26.325   4.341  49.372  1.00  0.00     0.171 C 
HETATM   10  C5  UNL     1      27.433   5.113  48.691  1.00  0.00     0.034 C 
ENDBRANCH   8   9
ENDBRANCH   5   8
ENDBRANCH   4   5
BRANCH   4  11
HETATM   11  N1  UNL     1      24.297   6.559  52.070  1.00  0.00     0.096 N 
HETATM   12  H11 UNL     1      24.915   6.458  52.904  1.00  0.00     0.314 HD
HETATM   13  H12 UNL     1      24.620   7.387  51.540  1.00  0.00     0.314 HD
ENDBRANCH   4  11
ENDBRANCH   2   4
ENDBRANCH   1   2
BRANCH   1  14
HETATM   14  O3  UNL     1      24.166   2.561  51.669  1.00  0.00    -0.355 OA
BRANCH  14  15
HETATM   15  C9  UNL     1      24.107   2.278  53.009  1.00  0.00     0.440 C 
BRANCH  15  16
HETATM   16  N2  UNL     1      24.733   0.979  53.203  1.00  0.00     0.111 N 
HETATM   17  C10 UNL     1      23.765  -0.091  53.203  1.00  0.00     0.313 C 
BRANCH  16  18
HETATM   18  C11 UNL     1      25.628   0.799  52.077  1.00  0.00     0.313 C 
BRANCH  18  19
HETATM   19  C12 UNL     1      26.949   0.388  52.615  1.00  0.00    -0.030 A 
HETATM   20  C13 UNL     1      27.236  -0.982  52.650  1.00  0.00     0.012 A 
HETATM   21  C14 UNL     1      28.407  -1.543  53.117  1.00  0.00     0.043 A 
HETATM   22  C15 UNL     1      29.375  -0.682  53.588  1.00  0.00     0.116 A 
HETATM   23  F1  UNL     1      30.558  -1.153  54.066  1.00  0.00    -0.206 F 
HETATM   24  C16 UNL     1      29.132   0.676  53.571  1.00  0.00     0.043 A 
HETATM   25  C17 UNL     1      27.950   1.205  53.097  1.00  0.00     0.012 A 
ENDBRANCH  18  19
ENDBRANCH  16  18
ENDBRANCH  15  16
ENDBRANCH  14  15
ENDBRANCH   1  14
TORSDOF 11
ENDMDL
MODEL 3
REMARK VINA RESULT:      -6.1      1.995      5.284
REMARK  11 active torsions:
REMARK  status: ('A' for Active; 'I' for Inactive)
REMARK    1  A    between atoms: C3_3  and  O1_4 
REMARK    2  A    between atoms: C3_3  and  C6_7 
REMARK    3  A    between atoms: O1_4  and  C4_5 
REMARK    4  A    between atoms: C6_7  and  N1_8 
REMARK    5  A    between atoms: C6_7  and  C7_9 
REMARK    6  A    between atoms: C7_9  and  C8_11 
REMARK    7  A    between atoms: C8_11  and  O3_12 
REMARK    8  A    between atoms: O3_12  and  C9_13 
REMARK    9  A    between atoms: C9_13  and  N2_14 
REMARK   10  A    between atoms: N2_14  and  C11_16 
REMARK   11  A    between atoms: C11_16  and  C12_17 
ROOT
HETATM    1  C8  UNL     1      26.266   2.504  51.737  1.00  0.00     0.251 C 
ENDROOT
BRANCH   1   2
HETATM    2  C7  UNL     1      26.119   3.108  50.392  1.00  0.00     0.189 C 
HETATM    3  O2  UNL     1      26.641   3.087  49.285  1.00  0.00    -0.293 OA
BRANCH   2   4
HETATM    4  C6  UNL     1      25.025   4.088  50.118  1.00  0.00     0.344 C 
BRANCH   4   5
HETATM    5  C3  UNL     1      23.739   3.711  50.756  1.00  0.00     0.082 C 
HETATM    6  C2  UNL     1      23.058   4.357  51.689  1.00  0.00     0.004 C 
HETATM    7  C1  UNL     1      21.797   3.713  52.120  1.00  0.00     0.038 C 
BRANCH   5   8
HETATM    8  O1  UNL     1      23.188   2.520  50.303  1.00  0.00    -0.353 OA
BRANCH   8   9
HETATM    9  C4  UNL     1      22.796   2.440  48.949  1.00  0.00     0.171 C 
HETATM   10  C5  UNL     1      21.665   1.451  48.775  1.00  0.00     0.034 C 
ENDBRANCH   8   9
ENDBRANCH   5   8
ENDBRANCH   4   5
BRANCH   4  11
HETATM   11  N1  UNL     1      25.480   5.383  50.592  1.00  0.00     0.096 N 
HETATM   12  H11 UNL     1      24.929   6.175  50.196  1.00  0.00     0.314 HD
HETATM   13  H12 UNL     1      25.400   5.430  51.623  1.00  0.00     0.314 HD
ENDBRANCH   4  11
ENDBRANCH   2   4
ENDBRANCH   1   2
BRANCH   1  14
HETATM   14  O3  UNL     1      26.795   1.240  51.632  1.00  0.00    -0.355 OA
BRANCH  14  15
HETATM   15  C9  UNL     1      26.881   0.644  52.864  1.00  0.00     0.440 C 
BRANCH  15  16
HETATM   16  N2  UNL     1      25.951  -0.475  52.868  1.00  0.00     0.111 N 
HETATM   17  C10 UNL     1      26.623  -1.735  52.658  1.00  0.00     0.313 C 
BRANCH  16  18
HETATM   18  C11 UNL     1      25.346  -0.482  54.185  1.00  0.00     0.313 C 
BRANCH  18  19
HETATM   19  C12 UNL     1      23.875  -0.562  54.002  1.00  0.00    -0.030 A 
HETATM   20  C13 UNL     1      23.332   0.020  52.850  1.00  0.00     0.012 A 
HETATM   21  C14 UNL     1      21.993   0.041  52.519  1.00  0.00     0.043 A 
HETATM   22  C15 UNL     1      21.116  -0.560  53.396  1.00  0.00     0.116 A 
HETATM   23  F1  UNL     1      19.780  -0.582  53.145  1.00  0.00    -0.206 F 
HETATM   24  C16 UNL     1      21.610  -1.145  54.544  1.00  0.00     0.043 A 
HETATM   25  C17 UNL     1      22.955  -1.150  54.846  1.00  0.00     0.012 A 
ENDBRANCH  18  19
ENDBRANCH  16  18
ENDBRANCH  15  16
ENDBRANCH  14  15
ENDBRANCH   1  14
TORSDOF 11
ENDMDL
MODEL 4
REMARK VINA RESULT:      -6.0      3.057      6.276
REMARK  11 active torsions:
REMARK  status: ('A' for Active; 'I' for Inactive)
REMARK    1  A    between atoms: C3_3  and  O1_4 
REMARK    2  A    between atoms: C3_3  and  C6_7 
REMARK    3  A    between atoms: O1_4  and  C4_5 
REMARK    4  A    between atoms: C6_7  and  N1_8 
REMARK    5  A    between atoms: C6_7  and  C7_9 
REMARK    6  A    between atoms: C7_9  and  C8_11 
REMARK    7  A    between atoms: C8_11  and  O3_12 
REMARK    8  A    between atoms: O3_12  and  C9_13 
REMARK    9  A    between atoms: C9_13  and  N2_14 
REMARK   10  A    between atoms: N2_14  and  C11_16 
REMARK   11  A    between atoms: C11_16  and  C12_17 
ROOT
HETATM    1  C8  UNL     1      21.757   2.894  51.599  1.00  0.00     0.251 C 
ENDROOT
BRANCH   1   2
HETATM    2  C7  UNL     1      22.651   4.010  51.209  1.00  0.00     0.189 C 
HETATM    3  O2  UNL     1      22.906   5.168  51.514  1.00  0.00    -0.293 OA
BRANCH   2   4
HETATM    4  C6  UNL     1      23.632   3.838  50.096  1.00  0.00     0.344 C 
BRANCH   4   5
HETATM    5  C3  UNL     1      25.004   3.535  50.575  1.00  0.00     0.082 C 
HETATM    6  C2  UNL     1      25.460   2.424  51.132  1.00  0.00     0.004 C 
HETATM    7  C1  UNL     1      26.892   2.436  51.503  1.00  0.00     0.038 C 
BRANCH   5   8
HETATM    8  O1  UNL     1      25.922   4.564  50.411  1.00  0.00    -0.353 OA
BRANCH   8   9
HETATM    9  C4  UNL     1      26.122   5.076  49.110  1.00  0.00     0.171 C 
HETATM   10  C5  UNL     1      27.545   4.842  48.655  1.00  0.00     0.034 C 
ENDBRANCH   8   9
ENDBRANCH   5   8
ENDBRANCH   4   5
BRANCH   4  11
HETATM   11  N1  UNL     1      23.133   2.774  49.243  1.00  0.00     0.096 N 
HETATM   12  H11 UNL     1      23.783   1.960  49.188  1.00  0.00     0.314 HD
HETATM   13  H12 UNL     1      22.228   2.427  49.606  1.00  0.00     0.314 HD
ENDBRANCH   4  11
ENDBRANCH   2   4
ENDBRANCH   1   2
BRANCH   1  14
HETATM   14  O3  UNL     1      22.264   2.243  52.698  1.00  0.00    -0.355 OA
BRANCH  14  15
HETATM   15  C9  UNL     1      22.538   0.932  52.405  1.00  0.00     0.440 C 
BRANCH  15  16
HETATM   16  N2  UNL     1      22.985   0.300  53.637  1.00  0.00     0.111 N 
HETATM   17  C10 UNL     1      21.877  -0.149  54.445  1.00  0.00     0.313 C 
BRANCH  16  18
HETATM   18  C11 UNL     1      23.764  -0.853  53.229  1.00  0.00     0.313 C 
BRANCH  18  19
HETATM   19  C12 UNL     1      25.185  -0.572  53.552  1.00  0.00    -0.030 A 
HETATM   20  C13 UNL     1      26.160  -1.101  52.698  1.00  0.00     0.012 A 
HETATM   21  C14 UNL     1      27.523  -0.943  52.844  1.00  0.00     0.043 A 
HETATM   22  C15 UNL     1      27.961  -0.201  53.921  1.00  0.00     0.116 A 
HETATM   23  F1  UNL     1      29.287   0.002  54.137  1.00  0.00    -0.206 F 
HETATM   24  C16 UNL     1      27.032   0.338  54.787  1.00  0.00     0.043 A 
HETATM   25  C17 UNL     1      25.675   0.162  54.612  1.00  0.00     0.012 A 
ENDBRANCH  18  19
ENDBRANCH  16  18
ENDBRANCH  15  16
ENDBRANCH  14  15
ENDBRANCH   1  14
TORSDOF 11
ENDMDL
MODEL 5
REMARK VINA RESULT:      -6.0      2.631      5.222
REMARK  11 active torsions:
REMARK  status: ('A' for Active; 'I' for Inactive)
REMARK    1  A    between atoms: C3_3  and  O1_4 
REMARK    2  A    between atoms: C3_3  and  C6_7 
REMARK    3  A    between atoms: O1_4  and  C4_5 
REMARK    4  A    between atoms: C6_7  and  N1_8 
REMARK    5  A    between atoms: C6_7  and  C7_9 
REMARK    6  A    between atoms: C7_9  and  C8_11 
REMARK    7  A    between atoms: C8_11  and  O3_12 
REMARK    8  A    between atoms: O3_12  and  C9_13 
REMARK    9  A    between atoms: C9_13  and  N2_14 
REMARK   10  A    between atoms: N2_14  and  C11_16 
REMARK   11  A    between atoms: C11_16  and  C12_17 
ROOT
HETATM    1  C8  UNL     1      22.138   4.257  50.895  1.00  0.00     0.251 C 
ENDROOT
BRANCH   1   2
HETATM    2  C7  UNL     1      23.269   3.329  50.665  1.00  0.00     0.189 C 
HETATM    3  O2  UNL     1      23.572   2.358  49.984  1.00  0.00    -0.293 OA
BRANCH   2   4
HETATM    4  C6  UNL     1      24.542   3.485  51.431  1.00  0.00     0.344 C 
BRANCH   4   5
HETATM    5  C3  UNL     1      25.708   3.783  50.562  1.00  0.00     0.082 C 
HETATM    6  C2  UNL     1      25.787   4.627  49.545  1.00  0.00     0.004 C 
HETATM    7  C1  UNL     1      27.104   4.697  48.875  1.00  0.00     0.038 C 
BRANCH   5   8
HETATM    8  O1  UNL     1      26.863   3.076  50.868  1.00  0.00    -0.353 OA
BRANCH   8   9
HETATM    9  C4  UNL     1      26.736   1.892  51.628  1.00  0.00     0.171 C 
HETATM   10  C5  UNL     1      27.662   1.921  52.823  1.00  0.00     0.034 C 
ENDBRANCH   8   9
ENDBRANCH   5   8
ENDBRANCH   4   5
BRANCH   4  11
HETATM   11  N1  UNL     1      24.333   4.545  52.402  1.00  0.00     0.096 N 
HETATM   12  H11 UNL     1      23.431   4.448  52.918  1.00  0.00     0.314 HD
HETATM   13  H12 UNL     1      25.096   4.539  53.100  1.00  0.00     0.314 HD
ENDBRANCH   4  11
ENDBRANCH   2   4
ENDBRANCH   1   2
BRANCH   1  14
HETATM   14  O3  UNL     1      20.960   3.555  50.980  1.00  0.00    -0.355 OA
BRANCH  14  15
HETATM   15  C9  UNL     1      20.708   3.179  52.274  1.00  0.00     0.440 C 
BRANCH  15  16
HETATM   16  N2  UNL     1      19.812   2.034  52.224  1.00  0.00     0.111 N 
HETATM   17  C10 UNL     1      18.629   2.309  51.445  1.00  0.00     0.313 C 
BRANCH  16  18
HETATM   18  C11 UNL     1      20.561   0.974  51.579  1.00  0.00     0.313 C 
BRANCH  18  19
HETATM   19  C12 UNL     1      21.379   0.304  52.621  1.00  0.00    -0.030 A 
HETATM   20  C13 UNL     1      20.701  -0.346  53.658  1.00  0.00     0.012 A 
HETATM   21  C14 UNL     1      21.296  -1.017  54.708  1.00  0.00     0.043 A 
HETATM   22  C15 UNL     1      22.674  -1.047  54.736  1.00  0.00     0.116 A 
HETATM   23  F1  UNL     1      23.338  -1.685  55.736  1.00  0.00    -0.206 F 
HETATM   24  C16 UNL     1      23.381  -0.418  53.733  1.00  0.00     0.043 A 
HETATM   25  C17 UNL     1      22.755   0.243  52.697  1.00  0.00     0.012 A 
ENDBRANCH  18  19
ENDBRANCH  16  18
ENDBRANCH  15  16
ENDBRANCH  14  15
ENDBRANCH   1  14
TORSDOF 11
ENDMDL
MODEL 6
REMARK VINA RESULT:      -6.0      3.202      7.010
REMARK  11 active torsions:
REMARK  status: ('A' for Active; 'I' for Inactive)
REMARK    1  A    between atoms: C3_3  and  O1_4 
REMARK    2  A    between atoms: C3_3  and  C6_7 
REMARK    3  A    between atoms: O1_4  and  C4_5 
REMARK    4  A    between atoms: C6_7  and  N1_8 
REMARK    5  A    between atoms: C6_7  and  C7_9 
REMARK    6  A    between atoms: C7_9  and  C8_11 
REMARK    7  A    between atoms: C8_11  and  O3_12 
REMARK    8  A    between atoms: O3_12  and  C9_13 
REMARK    9  A    between atoms: C9_13  and  N2_14 
REMARK   10  A    between atoms: N2_14  and  C11_16 
REMARK   11  A    between atoms: C11_16  and  C12_17 
ROOT
HETATM    1  C8  UNL     1      23.495   4.768  52.032  1.00  0.00     0.251 C 
ENDROOT
BRANCH   1   2
HETATM    2  C7  UNL     1      23.959   5.841  51.120  1.00  0.00     0.189 C 
HETATM    3  O2  UNL     1      24.369   6.994  51.149  1.00  0.00    -0.293 OA
BRANCH   2   4
HETATM    4  C6  UNL     1      24.008   5.610  49.645  1.00  0.00     0.344 C 
BRANCH   4   5
HETATM    5  C3  UNL     1      25.393   5.544  49.116  1.00  0.00     0.082 C 
HETATM    6  C2  UNL     1      26.317   4.622  49.330  1.00  0.00     0.004 C 
HETATM    7  C1  UNL     1      27.613   4.845  48.650  1.00  0.00     0.038 C 
BRANCH   5   8
HETATM    8  O1  UNL     1      25.753   6.597  48.286  1.00  0.00    -0.353 OA
BRANCH   8   9
HETATM    9  C4  UNL     1      24.723   7.321  47.645  1.00  0.00     0.171 C 
HETATM   10  C5  UNL     1      24.967   8.810  47.752  1.00  0.00     0.034 C 
ENDBRANCH   8   9
ENDBRANCH   5   8
ENDBRANCH   4   5
BRANCH   4  11
HETATM   11  N1  UNL     1      23.291   4.375  49.379  1.00  0.00     0.096 N 
HETATM   12  H11 UNL     1      22.263   4.519  49.271  1.00  0.00     0.314 HD
HETATM   13  H12 UNL     1      23.641   3.945  48.506  1.00  0.00     0.314 HD
ENDBRANCH   4  11
ENDBRANCH   2   4
ENDBRANCH   1   2
BRANCH   1  14
HETATM   14  O3  UNL     1      24.406   3.740  52.054  1.00  0.00    -0.355 OA
BRANCH  14  15
HETATM   15  C9  UNL     1      24.099   2.837  53.038  1.00  0.00     0.440 C 
BRANCH  15  16
HETATM   16  N2  UNL     1      24.281   1.507  52.476  1.00  0.00     0.111 N 
HETATM   17  C10 UNL     1      23.141   1.091  51.697  1.00  0.00     0.313 C 
BRANCH  16  18
HETATM   18  C11 UNL     1      25.435   1.602  51.603  1.00  0.00     0.313 C 
BRANCH  18  19
HETATM   19  C12 UNL     1      26.552   0.875  52.256  1.00  0.00    -0.030 A 
HETATM   20  C13 UNL     1      27.598   1.637  52.789  1.00  0.00     0.012 A 
HETATM   21  C14 UNL     1      28.713   1.132  53.427  1.00  0.00     0.043 A 
HETATM   22  C15 UNL     1      28.804  -0.238  53.548  1.00  0.00     0.116 A 
HETATM   23  F1  UNL     1      29.870  -0.816  54.162  1.00  0.00    -0.206 F 
HETATM   24  C16 UNL     1      27.794  -1.026  53.036  1.00  0.00     0.043 A 
HETATM   25  C17 UNL     1      26.692  -0.490  52.404  1.00  0.00     0.012 A 
ENDBRANCH  18  19
ENDBRANCH  16  18
ENDBRANCH  15  16
ENDBRANCH  14  15
ENDBRANCH   1  14
TORSDOF 11
ENDMDL
MODEL 7
REMARK VINA RESULT:      -5.8      3.673      5.779
REMARK  11 active torsions:
REMARK  status: ('A' for Active; 'I' for Inactive)
REMARK    1  A    between atoms: C3_3  and  O1_4 
REMARK    2  A    between atoms: C3_3  and  C6_7 
REMARK    3  A    between atoms: O1_4  and  C4_5 
REMARK    4  A    between atoms: C6_7  and  N1_8 
REMARK    5  A    between atoms: C6_7  and  C7_9 
REMARK    6  A    between atoms: C7_9  and  C8_11 
REMARK    7  A    between atoms: C8_11  and  O3_12 
REMARK    8  A    between atoms: O3_12  and  C9_13 
REMARK    9  A    between atoms: C9_13  and  N2_14 
REMARK   10  A    between atoms: N2_14  and  C11_16 
REMARK   11  A    between atoms: C11_16  and  C12_17 
ROOT
HETATM    1  C8  UNL     1      22.403   3.632  52.142  1.00  0.00     0.251 C 
ENDROOT
BRANCH   1   2
HETATM    2  C7  UNL     1      23.580   2.887  52.646  1.00  0.00     0.189 C 
HETATM    3  O2  UNL     1      24.516   3.012  53.425  1.00  0.00    -0.293 OA
BRANCH   2   4
HETATM    4  C6  UNL     1      23.873   1.510  52.146  1.00  0.00     0.344 C 
BRANCH   4   5
HETATM    5  C3  UNL     1      23.472   0.449  53.104  1.00  0.00     0.082 C 
HETATM    6  C2  UNL     1      22.318   0.296  53.733  1.00  0.00     0.004 C 
HETATM    7  C1  UNL     1      22.231  -0.876  54.632  1.00  0.00     0.038 C 
BRANCH   5   8
HETATM    8  O1  UNL     1      24.448  -0.504  53.364  1.00  0.00    -0.353 OA
BRANCH   8   9
HETATM    9  C4  UNL     1      25.801  -0.103  53.308  1.00  0.00     0.171 C 
HETATM   10  C5  UNL     1      26.614  -1.075  52.482  1.00  0.00     0.034 C 
ENDBRANCH   8   9
ENDBRANCH   5   8
ENDBRANCH   4   5
BRANCH   4  11
HETATM   11  N1  UNL     1      23.180   1.356  50.879  1.00  0.00     0.096 N 
HETATM   12  H11 UNL     1      22.313   0.781  50.959  1.00  0.00     0.314 HD
HETATM   13  H12 UNL     1      22.906   2.284  50.512  1.00  0.00     0.314 HD
ENDBRANCH   4  11
ENDBRANCH   2   4
ENDBRANCH   1   2
BRANCH   1  14
HETATM   14  O3  UNL     1      22.754   4.928  51.847  1.00  0.00    -0.355 OA
BRANCH  14  15
HETATM   15  C9  UNL     1      22.109   5.364  50.719  1.00  0.00     0.440 C 
BRANCH  15  16
HETATM   16  N2  UNL     1      23.126   5.620  49.711  1.00  0.00     0.111 N 
HETATM   17  C10 UNL     1      22.621   6.430  48.629  1.00  0.00     0.313 C 
BRANCH  16  18
HETATM   18  C11 UNL     1      24.179   6.350  50.389  1.00  0.00     0.313 C 
BRANCH  18  19
HETATM   19  C12 UNL     1      25.462   6.006  49.725  1.00  0.00    -0.030 A 
HETATM   20  C13 UNL     1      25.857   4.663  49.735  1.00  0.00     0.012 A 
HETATM   21  C14 UNL     1      27.013   4.164  49.171  1.00  0.00     0.043 A 
HETATM   22  C15 UNL     1      27.850   5.065  48.546  1.00  0.00     0.116 A 
HETATM   23  F1  UNL     1      29.009   4.656  47.966  1.00  0.00    -0.206 F 
HETATM   24  C16 UNL     1      27.498   6.398  48.515  1.00  0.00     0.043 A 
HETATM   25  C17 UNL     1      26.333   6.864  49.088  1.00  0.00     0.012 A 
ENDBRANCH  18  19
ENDBRANCH  16  18
ENDBRANCH  15  16
ENDBRANCH  14  15
ENDBRANCH   1  14
TORSDOF 11
ENDMDL
MODEL 8
REMARK VINA RESULT:      -5.8      3.012      4.996
REMARK  11 active torsions:
REMARK  status: ('A' for Active; 'I' for Inactive)
REMARK    1  A    between atoms: C3_3  and  O1_4 
REMARK    2  A    between atoms: C3_3  and  C6_7 
REMARK    3  A    between atoms: O1_4  and  C4_5 
REMARK    4  A    between atoms: C6_7  and  N1_8 
REMARK    5  A    between atoms: C6_7  and  C7_9 
REMARK    6  A    between atoms: C7_9  and  C8_11 
REMARK    7  A    between atoms: C8_11  and  O3_12 
REMARK    8  A    between atoms: O3_12  and  C9_13 
REMARK    9  A    between atoms: C9_13  and  N2_14 
REMARK   10  A    between atoms: N2_14  and  C11_16 
REMARK   11  A    between atoms: C11_16  and  C12_17 
ROOT
HETATM    1  C8  UNL     1      22.599  -0.626  53.345  1.00  0.00     0.251 C 
ENDROOT
BRANCH   1   2
HETATM    2  C7  UNL     1      23.265  -1.065  54.594  1.00  0.00     0.189 C 
HETATM    3  O2  UNL     1      22.998  -1.402  55.740  1.00  0.00    -0.293 OA
BRANCH   2   4
HETATM    4  C6  UNL     1      24.752  -1.195  54.652  1.00  0.00     0.344 C 
BRANCH   4   5
HETATM    5  C3  UNL     1      25.457  -0.105  53.933  1.00  0.00     0.082 C 
HETATM    6  C2  UNL     1      25.604   1.161  54.289  1.00  0.00     0.004 C 
HETATM    7  C1  UNL     1      26.369   2.006  53.345  1.00  0.00     0.038 C 
BRANCH   5   8
HETATM    8  O1  UNL     1      26.035  -0.477  52.726  1.00  0.00    -0.353 OA
BRANCH   8   9
HETATM    9  C4  UNL     1      26.874  -1.613  52.714  1.00  0.00     0.171 C 
HETATM   10  C5  UNL     1      28.276  -1.249  53.149  1.00  0.00     0.034 C 
ENDBRANCH   8   9
ENDBRANCH   5   8
ENDBRANCH   4   5
BRANCH   4  11
HETATM   11  N1  UNL     1      25.127  -1.219  56.055  1.00  0.00     0.096 N 
HETATM   12  H11 UNL     1      25.501  -2.144  56.359  1.00  0.00     0.314 HD
HETATM   13  H12 UNL     1      25.859  -0.511  56.236  1.00  0.00     0.314 HD
ENDBRANCH   4  11
ENDBRANCH   2   4
ENDBRANCH   1   2
BRANCH   1  14
HETATM   14  O3  UNL     1      21.236  -0.752  53.468  1.00  0.00    -0.355 OA
BRANCH  14  15
HETATM   15  C9  UNL     1      20.643   0.476  53.604  1.00  0.00     0.440 C 
BRANCH  15  16
HETATM   16  N2  UNL     1      20.468   1.021  52.266  1.00  0.00     0.111 N 
HETATM   17  C10 UNL     1      19.173   0.700  51.719  1.00  0.00     0.313 C 
BRANCH  16  18
HETATM   18  C11 UNL     1      20.571   2.461  52.409  1.00  0.00     0.313 C 
BRANCH  18  19
HETATM   19  C12 UNL     1      21.893   2.871  51.873  1.00  0.00    -0.030 A 
HETATM   20  C13 UNL     1      22.414   4.097  52.303  1.00  0.00     0.012 A 
HETATM   21  C14 UNL     1      23.623   4.636  51.910  1.00  0.00     0.043 A 
HETATM   22  C15 UNL     1      24.379   3.905  51.019  1.00  0.00     0.116 A 
HETATM   23  F1  UNL     1      25.581   4.364  50.580  1.00  0.00    -0.206 F 
HETATM   24  C16 UNL     1      23.901   2.690  50.570  1.00  0.00     0.043 A 
HETATM   25  C17 UNL     1      22.689   2.180  50.983  1.00  0.00     0.012 A 
ENDBRANCH  18  19
ENDBRANCH  16  18
ENDBRANCH  15  16
ENDBRANCH  14  15
ENDBRANCH   1  14
TORSDOF 11
ENDMDL
MODEL 9
REMARK VINA RESULT:      -5.8      3.690      6.316
REMARK  11 active torsions:
REMARK  status: ('A' for Active; 'I' for Inactive)
REMARK    1  A    between atoms: C3_3  and  O1_4 
REMARK    2  A    between atoms: C3_3  and  C6_7 
REMARK    3  A    between atoms: O1_4  and  C4_5 
REMARK    4  A    between atoms: C6_7  and  N1_8 
REMARK    5  A    between atoms: C6_7  and  C7_9 
REMARK    6  A    between atoms: C7_9  and  C8_11 
REMARK    7  A    between atoms: C8_11  and  O3_12 
REMARK    8  A    between atoms: O3_12  and  C9_13 
REMARK    9  A    between atoms: C9_13  and  N2_14 
REMARK   10  A    between atoms: N2_14  and  C11_16 
REMARK   11  A    between atoms: C11_16  and  C12_17 
ROOT
HETATM    1  C8  UNL     1      20.407   2.874  50.326  1.00  0.00     0.251 C 
ENDROOT
BRANCH   1   2
HETATM    2  C7  UNL     1      20.363   2.337  51.707  1.00  0.00     0.189 C 
HETATM    3  O2  UNL     1      20.105   2.689  52.850  1.00  0.00    -0.293 OA
BRANCH   2   4
HETATM    4  C6  UNL     1      20.718   0.911  51.974  1.00  0.00     0.344 C 
BRANCH   4   5
HETATM    5  C3  UNL     1      19.555   0.096  52.406  1.00  0.00     0.082 C 
HETATM    6  C2  UNL     1      18.436  -0.162  51.748  1.00  0.00     0.004 C 
HETATM    7  C1  UNL     1      17.459  -1.017  52.459  1.00  0.00     0.038 C 
BRANCH   5   8
HETATM    8  O1  UNL     1      19.670  -0.465  53.671  1.00  0.00    -0.353 OA
BRANCH   8   9
HETATM    9  C4  UNL     1      20.791  -1.281  53.937  1.00  0.00     0.171 C 
HETATM   10  C5  UNL     1      21.671  -0.654  54.996  1.00  0.00     0.034 C 
ENDBRANCH   8   9
ENDBRANCH   5   8
ENDBRANCH   4   5
BRANCH   4  11
HETATM   11  N1  UNL     1      21.303   0.378  50.756  1.00  0.00     0.096 N 
HETATM   12  H11 UNL     1      20.975  -0.588  50.539  1.00  0.00     0.314 HD
HETATM   13  H12 UNL     1      21.054   0.981  49.953  1.00  0.00     0.314 HD
ENDBRANCH   4  11
ENDBRANCH   2   4
ENDBRANCH   1   2
BRANCH   1  14
HETATM   14  O3  UNL     1      21.711   3.032  49.922  1.00  0.00    -0.355 OA
BRANCH  14  15
HETATM   15  C9  UNL     1      22.340   3.995  50.669  1.00  0.00     0.440 C 
BRANCH  15  16
HETATM   16  N2  UNL     1      23.758   3.670  50.685  1.00  0.00     0.111 N 
HETATM   17  C10 UNL     1      24.561   4.740  50.145  1.00  0.00     0.313 C 
BRANCH  16  18
HETATM   18  C11 UNL     1      24.105   3.484  52.080  1.00  0.00     0.313 C 
BRANCH  18  19
HETATM   19  C12 UNL     1      24.845   2.202  52.191  1.00  0.00    -0.030 A 
HETATM   20  C13 UNL     1      24.244   1.167  52.917  1.00  0.00     0.012 A 
HETATM   21  C14 UNL     1      24.785  -0.085  53.124  1.00  0.00     0.043 A 
HETATM   22  C15 UNL     1      26.021  -0.338  52.569  1.00  0.00     0.116 A 
HETATM   23  F1  UNL     1      26.625  -1.546  52.726  1.00  0.00    -0.206 F 
HETATM   24  C16 UNL     1      26.649   0.656  51.845  1.00  0.00     0.043 A 
HETATM   25  C17 UNL     1      26.080   1.898  51.657  1.00  0.00     0.012 A 
ENDBRANCH  18  19
ENDBRANCH  16  18
ENDBRANCH  15  16
ENDBRANCH  14  15
ENDBRANCH   1  14
TORSDOF 11
ENDMDL
