MODEL 1
REMARK VINA RESULT:      -6.2      0.000      0.000
REMARK  10 active torsions:
REMARK  status: ('A' for Active; 'I' for Inactive)
REMARK    1  A    between atoms: C2_2  and  N1_3 
REMARK    2  A    between atoms: N1_3  and  C3_4 
REMARK    3  A    between atoms: N1_3  and  C5_7 
REMARK    4  A    between atoms: C3_4  and  C4_5 
REMARK    5  A    between atoms: C5_7  and  C6_8 
REMARK    6  A    between atoms: C7_9  and  O2_10 
REMARK    7  A    between atoms: O2_10  and  C8_11 
REMARK    8  A    between atoms: C9_12  and  C10_13 
REMARK    9  A    between atoms: C14_18  and  C15_19 
REMARK   10  A    between atoms: C16_20  and  O3_21 
ROOT
HETATM    1  C8  UNL     1      23.976   1.766  51.322  1.00  0.00     0.142 C 
HETATM    2  C9  UNL     1      24.812   2.751  51.213  1.00  0.00     0.038 C 
ENDROOT
BRANCH   1   3
HETATM    3  O2  UNL     1      23.476   0.797  52.170  1.00  0.00    -0.335 OA
BRANCH   3   4
HETATM    4  C7  UNL     1      24.185   0.016  53.037  1.00  0.00     0.139 C 
HETATM    5  C6  UNL     1      25.214  -0.527  53.658  1.00  0.00     0.027 C 
BRANCH   5   6
HETATM    6  C5  UNL     1      26.670  -0.509  53.689  1.00  0.00     0.302 C 
BRANCH   6   7
HETATM    7  N1  UNL     1      27.240   0.542  54.531  1.00  0.00     0.097 N 
BRANCH   7   8
HETATM    8  C2  UNL     1      27.143   1.757  53.732  1.00  0.00     0.268 C 
HETATM    9  C1  UNL     1      28.434   2.473  53.543  1.00  0.00     0.037 C 
ENDBRANCH   7   8
BRANCH   7  10
HETATM   10  C3  UNL     1      28.632   0.229  54.811  1.00  0.00     0.341 C 
BRANCH  10  11
HETATM   11  C4  UNL     1      29.038  -0.867  53.881  1.00  0.00     0.261 C 
HETATM   12  O1  UNL     1      30.138  -0.915  53.333  1.00  0.00    -0.305 OA
ENDBRANCH  10  11
ENDBRANCH   7  10
ENDBRANCH   6   7
ENDBRANCH   5   6
ENDBRANCH   3   4
ENDBRANCH   1   3
BRANCH   2  13
HETATM   13  C10 UNL     1      25.358   3.773  50.364  1.00  0.00    -0.005 A 
HETATM   14  C11 UNL     1      26.596   3.487  49.830  1.00  0.00     0.015 A 
HETATM   15  C12 UNL     1      27.196   4.403  49.005  1.00  0.00     0.020 A 
HETATM   16  C13 UNL     1      26.469   5.553  48.792  1.00  0.00     0.117 A 
HETATM   17  N2  UNL     1      25.261   5.817  49.322  1.00  0.00    -0.260 NA
HETATM   18  C14 UNL     1      24.657   4.933  50.132  1.00  0.00     0.068 A 
BRANCH  18  19
HETATM   19  C15 UNL     1      23.354   5.224  50.700  1.00  0.00     0.056 C 
HETATM   20  C16 UNL     1      23.288   6.155  51.635  1.00  0.00     0.133 C 
BRANCH  20  21
HETATM   21  O3  UNL     1      24.506   6.755  51.966  1.00  0.00    -0.373 OA
HETATM   22  H20 UNL     1      24.630   7.717  52.200  1.00  0.00     0.216 HD
ENDBRANCH  20  21
ENDBRANCH  18  19
ENDBRANCH   2  13
TORSDOF 10
ENDMDL
MODEL 2
REMARK VINA RESULT:      -6.2      2.132      3.094
REMARK  10 active torsions:
REMARK  status: ('A' for Active; 'I' for Inactive)
REMARK    1  A    between atoms: C2_2  and  N1_3 
REMARK    2  A    between atoms: N1_3  and  C3_4 
REMARK    3  A    between atoms: N1_3  and  C5_7 
REMARK    4  A    between atoms: C3_4  and  C4_5 
REMARK    5  A    between atoms: C5_7  and  C6_8 
REMARK    6  A    between atoms: C7_9  and  O2_10 
REMARK    7  A    between atoms: O2_10  and  C8_11 
REMARK    8  A    between atoms: C9_12  and  C10_13 
REMARK    9  A    between atoms: C14_18  and  C15_19 
REMARK   10  A    between atoms: C16_20  and  O3_21 
ROOT
HETATM    1  C8  UNL     1      26.421   3.761  50.012  1.00  0.00     0.142 C 
HETATM    2  C9  UNL     1      26.946   4.402  49.015  1.00  0.00     0.038 C 
ENDROOT
BRANCH   1   3
HETATM    3  O2  UNL     1      25.762   2.608  50.392  1.00  0.00    -0.335 OA
BRANCH   3   4
HETATM    4  C7  UNL     1      25.232   2.329  51.620  1.00  0.00     0.139 C 
HETATM    5  C6  UNL     1      25.158   1.942  52.877  1.00  0.00     0.027 C 
BRANCH   5   6
HETATM    6  C5  UNL     1      25.976   1.421  53.964  1.00  0.00     0.302 C 
BRANCH   6   7
HETATM    7  N1  UNL     1      27.008   0.476  53.538  1.00  0.00     0.097 N 
BRANCH   7   8
HETATM    8  C2  UNL     1      26.358  -0.828  53.567  1.00  0.00     0.268 C 
HETATM    9  C1  UNL     1      26.769  -1.745  52.470  1.00  0.00     0.037 C 
ENDBRANCH   7   8
BRANCH   7  10
HETATM   10  C3  UNL     1      28.111   0.513  54.485  1.00  0.00     0.341 C 
BRANCH  10  11
HETATM   11  C4  UNL     1      28.976   1.674  54.115  1.00  0.00     0.261 C 
HETATM   12  O1  UNL     1      29.634   2.315  54.933  1.00  0.00    -0.305 OA
ENDBRANCH  10  11
ENDBRANCH   7  10
ENDBRANCH   6   7
ENDBRANCH   5   6
ENDBRANCH   3   4
ENDBRANCH   1   3
BRANCH   2  13
HETATM   13  C10 UNL     1      27.633   5.586  48.578  1.00  0.00    -0.005 A 
HETATM   14  C11 UNL     1      28.958   5.402  48.247  1.00  0.00     0.015 A 
HETATM   15  C12 UNL     1      29.696   6.475  47.818  1.00  0.00     0.020 A 
HETATM   16  C13 UNL     1      29.006   7.665  47.763  1.00  0.00     0.117 A 
HETATM   17  N2  UNL     1      27.712   7.829  48.091  1.00  0.00    -0.260 NA
HETATM   18  C14 UNL     1      26.972   6.790  48.513  1.00  0.00     0.068 A 
BRANCH  18  19
HETATM   19  C15 UNL     1      25.577   6.972  48.864  1.00  0.00     0.056 C 
HETATM   20  C16 UNL     1      25.307   7.467  50.059  1.00  0.00     0.133 C 
BRANCH  20  21
HETATM   21  O3  UNL     1      26.421   7.759  50.850  1.00  0.00    -0.373 OA
HETATM   22  H20 UNL     1      26.901   8.633  50.871  1.00  0.00     0.216 HD
ENDBRANCH  20  21
ENDBRANCH  18  19
ENDBRANCH   2  13
TORSDOF 10
ENDMDL
MODEL 3
REMARK VINA RESULT:      -6.2      2.386      7.714
REMARK  10 active torsions:
REMARK  status: ('A' for Active; 'I' for Inactive)
REMARK    1  A    between atoms: C2_2  and  N1_3 
REMARK    2  A    between atoms: N1_3  and  C3_4 
REMARK    3  A    between atoms: N1_3  and  C5_7 
REMARK    4  A    between atoms: C3_4  and  C4_5 
REMARK    5  A    between atoms: C5_7  and  C6_8 
REMARK    6  A    between atoms: C7_9  and  O2_10 
REMARK    7  A    between atoms: O2_10  and  C8_11 
REMARK    8  A    between atoms: C9_12  and  C10_13 
REMARK    9  A    between atoms: C14_18  and  C15_19 
REMARK   10  A    between atoms: C16_20  and  O3_21 
ROOT
HETATM    1  C8  UNL     1      26.525   2.506  51.193  1.00  0.00     0.142 C 
HETATM    2  C9  UNL     1      26.714   1.549  52.047  1.00  0.00     0.038 C 
ENDROOT
BRANCH   1   3
HETATM    3  O2  UNL     1      27.125   3.303  50.238  1.00  0.00    -0.335 OA
BRANCH   3   4
HETATM    4  C7  UNL     1      26.530   4.271  49.480  1.00  0.00     0.139 C 
HETATM    5  C6  UNL     1      26.282   5.453  48.953  1.00  0.00     0.027 C 
BRANCH   5   6
HETATM    6  C5  UNL     1      26.753   6.832  48.965  1.00  0.00     0.302 C 
BRANCH   6   7
HETATM    7  N1  UNL     1      26.198   7.646  50.046  1.00  0.00     0.097 N 
BRANCH   7   8
HETATM    8  C2  UNL     1      24.803   7.855  49.681  1.00  0.00     0.268 C 
HETATM    9  C1  UNL     1      23.858   7.843  50.831  1.00  0.00     0.037 C 
ENDBRANCH   7   8
BRANCH   7  10
HETATM   10  C3  UNL     1      26.904   8.916  50.098  1.00  0.00     0.341 C 
BRANCH  10  11
HETATM   11  C4  UNL     1      28.092   8.804  49.200  1.00  0.00     0.261 C 
HETATM   12  O1  UNL     1      29.229   9.128  49.538  1.00  0.00    -0.305 OA
ENDBRANCH  10  11
ENDBRANCH   7  10
ENDBRANCH   6   7
ENDBRANCH   5   6
ENDBRANCH   3   4
ENDBRANCH   1   3
BRANCH   2  13
HETATM   13  C10 UNL     1      26.128   0.700  53.047  1.00  0.00    -0.005 A 
HETATM   14  C11 UNL     1      24.800   0.392  52.844  1.00  0.00     0.015 A 
HETATM   15  C12 UNL     1      24.154  -0.414  53.745  1.00  0.00     0.020 A 
HETATM   16  C13 UNL     1      24.934  -0.845  54.796  1.00  0.00     0.117 A 
HETATM   17  N2  UNL     1      26.229  -0.535  54.980  1.00  0.00    -0.260 NA
HETATM   18  C14 UNL     1      26.879   0.253  54.108  1.00  0.00     0.068 A 
BRANCH  18  19
HETATM   19  C15 UNL     1      28.276   0.583  54.312  1.00  0.00     0.056 C 
HETATM   20  C16 UNL     1      29.168  -0.365  54.085  1.00  0.00     0.133 C 
BRANCH  20  21
HETATM   21  O3  UNL     1      28.643  -1.590  53.668  1.00  0.00    -0.373 OA
HETATM   22  H20 UNL     1      27.941  -1.710  52.969  1.00  0.00     0.216 HD
ENDBRANCH  20  21
ENDBRANCH  18  19
ENDBRANCH   2  13
TORSDOF 10
ENDMDL
MODEL 4
REMARK VINA RESULT:      -6.1      1.830      7.506
REMARK  10 active torsions:
REMARK  status: ('A' for Active; 'I' for Inactive)
REMARK    1  A    between atoms: C2_2  and  N1_3 
REMARK    2  A    between atoms: N1_3  and  C3_4 
REMARK    3  A    between atoms: N1_3  and  C5_7 
REMARK    4  A    between atoms: C3_4  and  C4_5 
REMARK    5  A    between atoms: C5_7  and  C6_8 
REMARK    6  A    between atoms: C7_9  and  O2_10 
REMARK    7  A    between atoms: O2_10  and  C8_11 
REMARK    8  A    between atoms: C9_12  and  C10_13 
REMARK    9  A    between atoms: C14_18  and  C15_19 
REMARK   10  A    between atoms: C16_20  and  O3_21 
ROOT
HETATM    1  C8  UNL     1      26.546   2.369  51.175  1.00  0.00     0.142 C 
HETATM    2  C9  UNL     1      26.708   1.646  52.238  1.00  0.00     0.038 C 
ENDROOT
BRANCH   1   3
HETATM    3  O2  UNL     1      27.165   3.230  50.288  1.00  0.00    -0.335 OA
BRANCH   3   4
HETATM    4  C7  UNL     1      26.565   4.160  49.489  1.00  0.00     0.139 C 
HETATM    5  C6  UNL     1      25.691   5.053  49.068  1.00  0.00     0.027 C 
BRANCH   5   6
HETATM    6  C5  UNL     1      24.451   5.710  49.456  1.00  0.00     0.302 C 
BRANCH   6   7
HETATM    7  N1  UNL     1      24.282   5.870  50.900  1.00  0.00     0.097 N 
BRANCH   7   8
HETATM    8  C2  UNL     1      23.362   4.809  51.290  1.00  0.00     0.268 C 
HETATM    9  C1  UNL     1      23.631   4.224  52.632  1.00  0.00     0.037 C 
ENDBRANCH   7   8
BRANCH   7  10
HETATM   10  C3  UNL     1      23.697   7.173  51.173  1.00  0.00     0.341 C 
BRANCH  10  11
HETATM   11  C4  UNL     1      22.460   7.289  50.344  1.00  0.00     0.261 C 
HETATM   12  O1  UNL     1      21.380   7.671  50.791  1.00  0.00    -0.305 OA
ENDBRANCH  10  11
ENDBRANCH   7  10
ENDBRANCH   6   7
ENDBRANCH   5   6
ENDBRANCH   3   4
ENDBRANCH   1   3
BRANCH   2  13
HETATM   13  C10 UNL     1      26.102   0.747  53.182  1.00  0.00    -0.005 A 
HETATM   14  C11 UNL     1      24.778   0.455  52.940  1.00  0.00     0.015 A 
HETATM   15  C12 UNL     1      24.114  -0.395  53.786  1.00  0.00     0.020 A 
HETATM   16  C13 UNL     1      24.874  -0.883  54.826  1.00  0.00     0.117 A 
HETATM   17  N2  UNL     1      26.167  -0.587  55.049  1.00  0.00    -0.260 NA
HETATM   18  C14 UNL     1      26.834   0.243  54.231  1.00  0.00     0.068 A 
BRANCH  18  19
HETATM   19  C15 UNL     1      28.228   0.558  54.476  1.00  0.00     0.056 C 
HETATM   20  C16 UNL     1      29.122  -0.378  54.210  1.00  0.00     0.133 C 
BRANCH  20  21
HETATM   21  O3  UNL     1      28.603  -1.576  53.714  1.00  0.00    -0.373 OA
HETATM   22  H20 UNL     1      29.129  -2.406  53.540  1.00  0.00     0.216 HD
ENDBRANCH  20  21
ENDBRANCH  18  19
ENDBRANCH   2  13
TORSDOF 10
ENDMDL
MODEL 5
REMARK VINA RESULT:      -6.1      2.042      7.021
REMARK  10 active torsions:
REMARK  status: ('A' for Active; 'I' for Inactive)
REMARK    1  A    between atoms: C2_2  and  N1_3 
REMARK    2  A    between atoms: N1_3  and  C3_4 
REMARK    3  A    between atoms: N1_3  and  C5_7 
REMARK    4  A    between atoms: C3_4  and  C4_5 
REMARK    5  A    between atoms: C5_7  and  C6_8 
REMARK    6  A    between atoms: C7_9  and  O2_10 
REMARK    7  A    between atoms: O2_10  and  C8_11 
REMARK    8  A    between atoms: C9_12  and  C10_13 
REMARK    9  A    between atoms: C14_18  and  C15_19 
REMARK   10  A    between atoms: C16_20  and  O3_21 
ROOT
HETATM    1  C8  UNL     1      26.586   2.102  51.421  1.00  0.00     0.142 C 
HETATM    2  C9  UNL     1      25.950   1.813  52.513  1.00  0.00     0.038 C 
ENDROOT
BRANCH   1   3
HETATM    3  O2  UNL     1      27.018   3.129  50.604  1.00  0.00    -0.335 OA
BRANCH   3   4
HETATM    4  C7  UNL     1      26.243   3.954  49.839  1.00  0.00     0.139 C 
HETATM    5  C6  UNL     1      25.177   4.456  49.247  1.00  0.00     0.027 C 
BRANCH   5   6
HETATM    6  C5  UNL     1      23.743   4.242  49.102  1.00  0.00     0.302 C 
BRANCH   6   7
HETATM    7  N1  UNL     1      23.193   3.229  50.001  1.00  0.00     0.097 N 
BRANCH   7   8
HETATM    8  C2  UNL     1      22.511   2.282  49.129  1.00  0.00     0.268 C 
HETATM    9  C1  UNL     1      21.816   1.178  49.843  1.00  0.00     0.037 C 
ENDBRANCH   7   8
BRANCH   7  10
HETATM   10  C3  UNL     1      22.244   3.858  50.906  1.00  0.00     0.341 C 
BRANCH  10  11
HETATM   11  C4  UNL     1      22.836   3.811  52.277  1.00  0.00     0.261 C 
HETATM   12  O1  UNL     1      23.688   4.604  52.673  1.00  0.00    -0.305 OA
ENDBRANCH  10  11
ENDBRANCH   7  10
ENDBRANCH   6   7
ENDBRANCH   5   6
ENDBRANCH   3   4
ENDBRANCH   1   3
BRANCH   2  13
HETATM   13  C10 UNL     1      25.484   0.775  53.391  1.00  0.00    -0.005 A 
HETATM   14  C11 UNL     1      24.172   0.398  53.202  1.00  0.00     0.015 A 
HETATM   15  C12 UNL     1      23.639  -0.588  53.992  1.00  0.00     0.020 A 
HETATM   16  C13 UNL     1      24.506  -1.113  54.924  1.00  0.00     0.117 A 
HETATM   17  N2  UNL     1      25.785  -0.733  55.096  1.00  0.00    -0.260 NA
HETATM   18  C14 UNL     1      26.325   0.230  54.332  1.00  0.00     0.068 A 
BRANCH  18  19
HETATM   19  C15 UNL     1      27.705   0.635  54.522  1.00  0.00     0.056 C 
HETATM   20  C16 UNL     1      28.647  -0.227  54.183  1.00  0.00     0.133 C 
BRANCH  20  21
HETATM   21  O3  UNL     1      28.188  -1.443  53.672  1.00  0.00    -0.373 OA
HETATM   22  H20 UNL     1      28.470  -1.849  52.805  1.00  0.00     0.216 HD
ENDBRANCH  20  21
ENDBRANCH  18  19
ENDBRANCH   2  13
TORSDOF 10
ENDMDL
MODEL 6
REMARK VINA RESULT:      -6.1      1.971      7.151
REMARK  10 active torsions:
REMARK  status: ('A' for Active; 'I' for Inactive)
REMARK    1  A    between atoms: C2_2  and  N1_3 
REMARK    2  A    between atoms: N1_3  and  C3_4 
REMARK    3  A    between atoms: N1_3  and  C5_7 
REMARK    4  A    between atoms: C3_4  and  C4_5 
REMARK    5  A    between atoms: C5_7  and  C6_8 
REMARK    6  A    between atoms: C7_9  and  O2_10 
REMARK    7  A    between atoms: O2_10  and  C8_11 
REMARK    8  A    between atoms: C9_12  and  C10_13 
REMARK    9  A    between atoms: C14_18  and  C15_19 
REMARK   10  A    between atoms: C16_20  and  O3_21 
ROOT
HETATM    1  C8  UNL     1      26.501   2.485  50.877  1.00  0.00     0.142 C 
HETATM    2  C9  UNL     1      26.504   1.341  51.486  1.00  0.00     0.038 C 
ENDROOT
BRANCH   1   3
HETATM    3  O2  UNL     1      27.032   3.207  49.825  1.00  0.00    -0.335 OA
BRANCH   3   4
HETATM    4  C7  UNL     1      26.598   4.412  49.351  1.00  0.00     0.139 C 
HETATM    5  C6  UNL     1      26.045   5.608  49.330  1.00  0.00     0.027 C 
BRANCH   5   6
HETATM    6  C5  UNL     1      25.362   6.567  50.188  1.00  0.00     0.302 C 
BRANCH   6   7
HETATM    7  N1  UNL     1      23.947   6.273  50.411  1.00  0.00     0.097 N 
BRANCH   7   8
HETATM    8  C2  UNL     1      23.335   7.565  50.694  1.00  0.00     0.268 C 
HETATM    9  C1  UNL     1      21.965   7.732  50.138  1.00  0.00     0.037 C 
ENDBRANCH   7   8
BRANCH   7  10
HETATM   10  C3  UNL     1      23.817   5.389  51.558  1.00  0.00     0.341 C 
BRANCH  10  11
HETATM   11  C4  UNL     1      22.983   4.225  51.131  1.00  0.00     0.261 C 
HETATM   12  O1  UNL     1      23.214   3.562  50.122  1.00  0.00    -0.305 OA
ENDBRANCH  10  11
ENDBRANCH   7  10
ENDBRANCH   6   7
ENDBRANCH   5   6
ENDBRANCH   3   4
ENDBRANCH   1   3
BRANCH   2  13
HETATM   13  C10 UNL     1      25.976   0.556  52.568  1.00  0.00    -0.005 A 
HETATM   14  C11 UNL     1      24.611   0.647  52.741  1.00  0.00     0.015 A 
HETATM   15  C12 UNL     1      24.015  -0.068  53.747  1.00  0.00     0.020 A 
HETATM   16  C13 UNL     1      24.879  -0.827  54.506  1.00  0.00     0.117 A 
HETATM   17  N2  UNL     1      26.209  -0.904  54.324  1.00  0.00    -0.260 NA
HETATM   18  C14 UNL     1      26.812  -0.212  53.343  1.00  0.00     0.068 A 
BRANCH  18  19
HETATM   19  C15 UNL     1      28.246  -0.299  53.152  1.00  0.00     0.056 C 
HETATM   20  C16 UNL     1      29.020   0.266  54.062  1.00  0.00     0.133 C 
BRANCH  20  21
HETATM   21  O3  UNL     1      28.346   0.888  55.116  1.00  0.00    -0.373 OA
HETATM   22  H20 UNL     1      27.374   1.115  55.126  1.00  0.00     0.216 HD
ENDBRANCH  20  21
ENDBRANCH  18  19
ENDBRANCH   2  13
TORSDOF 10
ENDMDL
MODEL 7
REMARK VINA RESULT:      -6.0      1.361      1.953
REMARK  10 active torsions:
REMARK  status: ('A' for Active; 'I' for Inactive)
REMARK    1  A    between atoms: C2_2  and  N1_3 
REMARK    2  A    between atoms: N1_3  and  C3_4 
REMARK    3  A    between atoms: N1_3  and  C5_7 
REMARK    4  A    between atoms: C3_4  and  C4_5 
REMARK    5  A    between atoms: C5_7  and  C6_8 
REMARK    6  A    between atoms: C7_9  and  O2_10 
REMARK    7  A    between atoms: O2_10  and  C8_11 
REMARK    8  A    between atoms: C9_12  and  C10_13 
REMARK    9  A    between atoms: C14_18  and  C15_19 
REMARK   10  A    between atoms: C16_20  and  O3_21 
ROOT
HETATM    1  C8  UNL     1      25.009   2.666  50.956  1.00  0.00     0.142 C 
HETATM    2  C9  UNL     1      25.333   3.356  49.908  1.00  0.00     0.038 C 
ENDROOT
BRANCH   1   3
HETATM    3  O2  UNL     1      24.391   1.514  51.404  1.00  0.00    -0.335 OA
BRANCH   3   4
HETATM    4  C7  UNL     1      24.507   0.944  52.639  1.00  0.00     0.139 C 
HETATM    5  C6  UNL     1      25.057   0.388  53.700  1.00  0.00     0.027 C 
BRANCH   5   6
HETATM    6  C5  UNL     1      26.346  -0.038  54.229  1.00  0.00     0.302 C 
BRANCH   6   7
HETATM    7  N1  UNL     1      27.367  -0.271  53.208  1.00  0.00     0.097 N 
BRANCH   7   8
HETATM    8  C2  UNL     1      27.038  -1.570  52.636  1.00  0.00     0.268 C 
HETATM    9  C1  UNL     1      28.074  -2.616  52.849  1.00  0.00     0.037 C 
ENDBRANCH   7   8
BRANCH   7  10
HETATM   10  C3  UNL     1      28.676  -0.313  53.841  1.00  0.00     0.341 C 
BRANCH  10  11
HETATM   11  C4  UNL     1      28.799   0.909  54.692  1.00  0.00     0.261 C 
HETATM   12  O1  UNL     1      28.849   2.049  54.234  1.00  0.00    -0.305 OA
ENDBRANCH  10  11
ENDBRANCH   7  10
ENDBRANCH   6   7
ENDBRANCH   5   6
ENDBRANCH   3   4
ENDBRANCH   1   3
BRANCH   2  13
HETATM   13  C10 UNL     1      25.967   4.543  49.402  1.00  0.00    -0.005 A 
HETATM   14  C11 UNL     1      27.262   4.370  48.963  1.00  0.00     0.015 A 
HETATM   15  C12 UNL     1      27.948   5.445  48.462  1.00  0.00     0.020 A 
HETATM   16  C13 UNL     1      27.241   6.627  48.451  1.00  0.00     0.117 A 
HETATM   17  N2  UNL     1      25.977   6.780  48.884  1.00  0.00    -0.260 NA
HETATM   18  C14 UNL     1      25.288   5.738  49.379  1.00  0.00     0.068 A 
BRANCH  18  19
HETATM   19  C15 UNL     1      23.925   5.909  49.844  1.00  0.00     0.056 C 
HETATM   20  C16 UNL     1      23.742   6.573  50.971  1.00  0.00     0.133 C 
BRANCH  20  21
HETATM   21  O3  UNL     1      24.907   7.037  51.586  1.00  0.00    -0.373 OA
HETATM   22  H20 UNL     1      25.064   7.973  51.895  1.00  0.00     0.216 HD
ENDBRANCH  20  21
ENDBRANCH  18  19
ENDBRANCH   2  13
TORSDOF 10
ENDMDL
MODEL 8
REMARK VINA RESULT:      -6.0      2.587      4.718
REMARK  10 active torsions:
REMARK  status: ('A' for Active; 'I' for Inactive)
REMARK    1  A    between atoms: C2_2  and  N1_3 
REMARK    2  A    between atoms: N1_3  and  C3_4 
REMARK    3  A    between atoms: N1_3  and  C5_7 
REMARK    4  A    between atoms: C3_4  and  C4_5 
REMARK    5  A    between atoms: C5_7  and  C6_8 
REMARK    6  A    between atoms: C7_9  and  O2_10 
REMARK    7  A    between atoms: O2_10  and  C8_11 
REMARK    8  A    between atoms: C9_12  and  C10_13 
REMARK    9  A    between atoms: C14_18  and  C15_19 
REMARK   10  A    between atoms: C16_20  and  O3_21 
ROOT
HETATM    1  C8  UNL     1      26.443   2.461  50.937  1.00  0.00     0.142 C 
HETATM    2  C9  UNL     1      26.054   3.349  50.077  1.00  0.00     0.038 C 
ENDROOT
BRANCH   1   3
HETATM    3  O2  UNL     1      26.128   1.260  51.543  1.00  0.00    -0.335 OA
BRANCH   3   4
HETATM    4  C7  UNL     1      25.195   1.049  52.518  1.00  0.00     0.139 C 
HETATM    5  C6  UNL     1      24.049   0.736  53.089  1.00  0.00     0.027 C 
BRANCH   5   6
HETATM    6  C5  UNL     1      22.702   0.281  52.774  1.00  0.00     0.302 C 
BRANCH   6   7
HETATM    7  N1  UNL     1      21.697   0.643  53.773  1.00  0.00     0.097 N 
BRANCH   7   8
HETATM    8  C2  UNL     1      21.741  -0.431  54.757  1.00  0.00     0.268 C 
HETATM    9  C1  UNL     1      21.286  -1.752  54.246  1.00  0.00     0.037 C 
ENDBRANCH   7   8
BRANCH   7  10
HETATM   10  C3  UNL     1      20.389   0.696  53.139  1.00  0.00     0.341 C 
BRANCH  10  11
HETATM   11  C4  UNL     1      20.323   1.968  52.359  1.00  0.00     0.261 C 
HETATM   12  O1  UNL     1      20.062   3.058  52.863  1.00  0.00    -0.305 OA
ENDBRANCH  10  11
ENDBRANCH   7  10
ENDBRANCH   6   7
ENDBRANCH   5   6
ENDBRANCH   3   4
ENDBRANCH   1   3
BRANCH   2  13
HETATM   13  C10 UNL     1      26.345   4.595  49.424  1.00  0.00    -0.005 A 
HETATM   14  C11 UNL     1      27.599   4.678  48.858  1.00  0.00     0.015 A 
HETATM   15  C12 UNL     1      27.967   5.829  48.212  1.00  0.00     0.020 A 
HETATM   16  C13 UNL     1      27.006   6.816  48.197  1.00  0.00     0.117 A 
HETATM   17  N2  UNL     1      25.786   6.720  48.755  1.00  0.00    -0.260 NA
HETATM   18  C14 UNL     1      25.407   5.600  49.393  1.00  0.00     0.068 A 
BRANCH  18  19
HETATM   19  C15 UNL     1      24.090   5.502  49.991  1.00  0.00     0.056 C 
HETATM   20  C16 UNL     1      23.857   6.216  51.078  1.00  0.00     0.133 C 
BRANCH  20  21
HETATM   21  O3  UNL     1      24.930   6.993  51.523  1.00  0.00    -0.373 OA
HETATM   22  H20 UNL     1      24.909   7.980  51.666  1.00  0.00     0.216 HD
ENDBRANCH  20  21
ENDBRANCH  18  19
ENDBRANCH   2  13
TORSDOF 10
ENDMDL
MODEL 9
REMARK VINA RESULT:      -5.6      3.227      4.920
REMARK  10 active torsions:
REMARK  status: ('A' for Active; 'I' for Inactive)
REMARK    1  A    between atoms: C2_2  and  N1_3 
REMARK    2  A    between atoms: N1_3  and  C3_4 
REMARK    3  A    between atoms: N1_3  and  C5_7 
REMARK    4  A    between atoms: C3_4  and  C4_5 
REMARK    5  A    between atoms: C5_7  and  C6_8 
REMARK    6  A    between atoms: C7_9  and  O2_10 
REMARK    7  A    between atoms: O2_10  and  C8_11 
REMARK    8  A    between atoms: C9_12  and  C10_13 
REMARK    9  A    between atoms: C14_18  and  C15_19 
REMARK   10  A    between atoms: C16_20  and  O3_21 
ROOT
HETATM    1  C8  UNL     1      26.408   5.069  48.940  1.00  0.00     0.142 C 
HETATM    2  C9  UNL     1      27.512   5.595  48.511  1.00  0.00     0.038 C 
ENDROOT
BRANCH   1   3
HETATM    3  O2  UNL     1      25.847   3.969  49.560  1.00  0.00    -0.335 OA
BRANCH   3   4
HETATM    4  C7  UNL     1      26.485   3.052  50.347  1.00  0.00     0.139 C 
HETATM    5  C6  UNL     1      26.694   2.186  51.318  1.00  0.00     0.027 C 
BRANCH   5   6
HETATM    6  C5  UNL     1      26.037   1.574  52.465  1.00  0.00     0.302 C 
BRANCH   6   7
HETATM    7  N1  UNL     1      25.897   0.121  52.372  1.00  0.00     0.097 N 
BRANCH   7   8
HETATM    8  C2  UNL     1      24.930  -0.230  53.404  1.00  0.00     0.268 C 
HETATM    9  C1  UNL     1      23.579   0.362  53.209  1.00  0.00     0.037 C 
ENDBRANCH   7   8
BRANCH   7  10
HETATM   10  C3  UNL     1      27.182  -0.502  52.648  1.00  0.00     0.341 C 
BRANCH  10  11
HETATM   11  C4  UNL     1      26.973  -1.981  52.629  1.00  0.00     0.261 C 
HETATM   12  O1  UNL     1      27.837  -2.790  52.962  1.00  0.00    -0.305 OA
ENDBRANCH  10  11
ENDBRANCH   7  10
ENDBRANCH   6   7
ENDBRANCH   5   6
ENDBRANCH   3   4
ENDBRANCH   1   3
BRANCH   2  13
HETATM   13  C10 UNL     1      28.135   6.720  47.870  1.00  0.00    -0.005 A 
HETATM   14  C11 UNL     1      27.266   7.698  47.435  1.00  0.00     0.015 A 
HETATM   15  C12 UNL     1      27.769   8.811  46.813  1.00  0.00     0.020 A 
HETATM   16  C13 UNL     1      29.140   8.831  46.684  1.00  0.00     0.117 A 
HETATM   17  N2  UNL     1      29.974   7.868  47.114  1.00  0.00    -0.260 NA
HETATM   18  C14 UNL     1      29.502   6.770  47.726  1.00  0.00     0.068 A 
BRANCH  18  19
HETATM   19  C15 UNL     1      30.407   5.736  48.188  1.00  0.00     0.056 C 
HETATM   20  C16 UNL     1      31.202   6.027  49.202  1.00  0.00     0.133 C 
BRANCH  20  21
HETATM   21  O3  UNL     1      31.068   7.320  49.713  1.00  0.00    -0.373 OA
HETATM   22  H20 UNL     1      31.481   7.652  50.559  1.00  0.00     0.216 HD
ENDBRANCH  20  21
ENDBRANCH  18  19
ENDBRANCH   2  13
TORSDOF 10
ENDMDL
