MODEL 1
REMARK VINA RESULT:      -8.0      0.000      0.000
REMARK  9 active torsions:
REMARK  status: ('A' for Active; 'I' for Inactive)
REMARK    1  A    between atoms: C2_2  and  C3_3 
REMARK    2  A    between atoms: C2_2  and  C6_7 
REMARK    3  A    between atoms: C3_3  and  N1_4 
REMARK    4  A    between atoms: C6_7  and  C7_9 
REMARK    5  A    between atoms: C9_11  and  O2_12 
REMARK    6  A    between atoms: O2_12  and  S1_13 
REMARK    7  A    between atoms: S1_13  and  C10_16 
REMARK    8  A    between atoms: C13_19  and  C14_20 
REMARK    9  A    between atoms: C14_20  and  O6_22 
ROOT
HETATM    1  O2  UNL     1      23.042   2.596  51.755  1.00  0.00    -0.259 OA
ENDROOT
BRANCH   1   2
HETATM    2  C9  UNL     1      22.938   1.210  51.706  1.00  0.00     0.189 A 
HETATM    3  C8  UNL     1      24.294   0.687  52.077  1.00  0.00     0.025 A 
HETATM    4  C7  UNL     1      24.232  -0.002  53.202  1.00  0.00     0.013 A 
HETATM    5  C18 UNL     1      22.847   0.019  53.644  1.00  0.00     0.014 A 
HETATM    6  C17 UNL     1      22.085   0.705  52.807  1.00  0.00     0.011 A 
BRANCH   4   7
HETATM    7  C6  UNL     1      25.445  -0.593  53.734  1.00  0.00     0.185 C 
HETATM    8  O1  UNL     1      25.479  -0.921  54.942  1.00  0.00    -0.287 OA
BRANCH   7   9
HETATM    9  C2  UNL     1      26.643  -0.835  52.952  1.00  0.00    -0.011 C 
HETATM   10  C1  UNL     1      26.837  -2.044  52.466  1.00  0.00     0.044 C 
BRANCH   9  11
HETATM   11  C3  UNL     1      27.629   0.235  52.696  1.00  0.00     0.154 C 
BRANCH  11  12
HETATM   12  N1  UNL     1      28.024   0.973  53.830  1.00  0.00    -0.417 N 
HETATM   13  C4  UNL     1      28.811   0.335  54.817  1.00  0.00     0.142 C 
HETATM   14  C5  UNL     1      28.392   2.323  53.568  1.00  0.00     0.142 C 
ENDBRANCH  11  12
ENDBRANCH   9  11
ENDBRANCH   7   9
ENDBRANCH   4   7
ENDBRANCH   1   2
BRANCH   1  15
HETATM   15  S1  UNL     1      22.869   3.205  50.206  1.00  0.00     0.298 S 
HETATM   16  O3  UNL     1      22.443   2.107  49.278  1.00  0.00    -0.193 OA
HETATM   17  O4  UNL     1      21.797   4.287  50.179  1.00  0.00    -0.193 OA
BRANCH  15  18
HETATM   18  C10 UNL     1      24.370   3.932  49.719  1.00  0.00     0.086 A 
HETATM   19  C11 UNL     1      25.591   3.301  49.867  1.00  0.00     0.027 A 
HETATM   20  C12 UNL     1      26.803   3.875  49.475  1.00  0.00     0.020 A 
HETATM   21  C13 UNL     1      26.724   5.125  48.921  1.00  0.00     0.037 A 
HETATM   22  C15 UNL     1      25.548   5.810  48.743  1.00  0.00     0.020 A 
HETATM   23  C16 UNL     1      24.390   5.194  49.148  1.00  0.00     0.027 A 
BRANCH  21  24
HETATM   24  C14 UNL     1      27.997   5.706  48.517  1.00  0.00     0.176 C 
HETATM   25  O5  UNL     1      28.059   6.583  47.628  1.00  0.00    -0.646 OA
BRANCH  24  26
HETATM   26  O6  UNL     1      29.257   5.385  49.039  1.00  0.00    -0.773 OA
HETATM   27  H15 UNL     1      30.092   5.917  48.747  1.00  0.00     0.167 HD
ENDBRANCH  24  26
ENDBRANCH  21  24
ENDBRANCH  15  18
ENDBRANCH   1  15
TORSDOF 9
ENDMDL
MODEL 2
REMARK VINA RESULT:      -7.8      1.873      2.552
REMARK  9 active torsions:
REMARK  status: ('A' for Active; 'I' for Inactive)
REMARK    1  A    between atoms: C2_2  and  C3_3 
REMARK    2  A    between atoms: C2_2  and  C6_7 
REMARK    3  A    between atoms: C3_3  and  N1_4 
REMARK    4  A    between atoms: C6_7  and  C7_9 
REMARK    5  A    between atoms: C9_11  and  O2_12 
REMARK    6  A    between atoms: O2_12  and  S1_13 
REMARK    7  A    between atoms: S1_13  and  C10_16 
REMARK    8  A    between atoms: C13_19  and  C14_20 
REMARK    9  A    between atoms: C14_20  and  O6_22 
ROOT
HETATM    1  O2  UNL     1      21.050   1.270  53.475  1.00  0.00    -0.259 OA
ENDROOT
BRANCH   1   2
HETATM    2  C9  UNL     1      21.549   0.024  53.110  1.00  0.00     0.189 A 
HETATM    3  C8  UNL     1      23.037   0.117  53.279  1.00  0.00     0.025 A 
HETATM    4  C7  UNL     1      23.449  -0.719  54.215  1.00  0.00     0.013 A 
HETATM    5  C18 UNL     1      22.275  -1.412  54.719  1.00  0.00     0.014 A 
HETATM    6  C17 UNL     1      21.176  -1.008  54.106  1.00  0.00     0.011 A 
BRANCH   4   7
HETATM    7  C6  UNL     1      24.863  -0.780  54.530  1.00  0.00     0.185 C 
HETATM    8  O1  UNL     1      25.222  -1.337  55.593  1.00  0.00    -0.287 OA
BRANCH   7   9
HETATM    9  C2  UNL     1      25.910  -0.232  53.688  1.00  0.00    -0.011 C 
HETATM   10  C1  UNL     1      26.314  -0.940  52.654  1.00  0.00     0.044 C 
BRANCH   9  11
HETATM   11  C3  UNL     1      26.517   1.086  53.969  1.00  0.00     0.154 C 
BRANCH  11  12
HETATM   12  N1  UNL     1      27.923   1.132  53.880  1.00  0.00    -0.417 N 
HETATM   13  C4  UNL     1      28.544   2.356  53.539  1.00  0.00     0.142 C 
HETATM   14  C5  UNL     1      28.611   0.381  54.875  1.00  0.00     0.142 C 
ENDBRANCH  11  12
ENDBRANCH   9  11
ENDBRANCH   7   9
ENDBRANCH   4   7
ENDBRANCH   1   2
BRANCH   1  15
HETATM   15  S1  UNL     1      20.716   2.144  52.088  1.00  0.00     0.298 S 
HETATM   16  O3  UNL     1      20.002   1.269  51.101  1.00  0.00    -0.193 OA
HETATM   17  O4  UNL     1      19.809   3.325  52.412  1.00  0.00    -0.193 OA
BRANCH  15  18
HETATM   18  C10 UNL     1      22.203   2.776  51.452  1.00  0.00     0.086 A 
HETATM   19  C11 UNL     1      22.985   3.685  52.140  1.00  0.00     0.027 A 
HETATM   20  C12 UNL     1      24.185   4.198  51.639  1.00  0.00     0.020 A 
HETATM   21  C13 UNL     1      24.562   3.745  50.403  1.00  0.00     0.037 A 
HETATM   22  C15 UNL     1      23.836   2.844  49.664  1.00  0.00     0.020 A 
HETATM   23  C16 UNL     1      22.665   2.377  50.209  1.00  0.00     0.027 A 
BRANCH  21  24
HETATM   24  C14 UNL     1      25.815   4.288  49.898  1.00  0.00     0.176 C 
HETATM   25  O5  UNL     1      25.833   5.256  49.106  1.00  0.00    -0.646 OA
BRANCH  24  26
HETATM   26  O6  UNL     1      27.102   3.831  50.211  1.00  0.00    -0.773 OA
HETATM   27  H15 UNL     1      27.231   3.065  50.891  1.00  0.00     0.167 HD
ENDBRANCH  24  26
ENDBRANCH  21  24
ENDBRANCH  15  18
ENDBRANCH   1  15
TORSDOF 9
ENDMDL
MODEL 3
REMARK VINA RESULT:      -7.6      2.660      7.072
REMARK  9 active torsions:
REMARK  status: ('A' for Active; 'I' for Inactive)
REMARK    1  A    between atoms: C2_2  and  C3_3 
REMARK    2  A    between atoms: C2_2  and  C6_7 
REMARK    3  A    between atoms: C3_3  and  N1_4 
REMARK    4  A    between atoms: C6_7  and  C7_9 
REMARK    5  A    between atoms: C9_11  and  O2_12 
REMARK    6  A    between atoms: O2_12  and  S1_13 
REMARK    7  A    between atoms: S1_13  and  C10_16 
REMARK    8  A    between atoms: C13_19  and  C14_20 
REMARK    9  A    between atoms: C14_20  and  O6_22 
ROOT
HETATM    1  O2  UNL     1      24.356   2.334  50.692  1.00  0.00    -0.259 OA
ENDROOT
BRANCH   1   2
HETATM    2  C9  UNL     1      24.422   3.721  50.759  1.00  0.00     0.189 A 
HETATM    3  C8  UNL     1      25.829   4.079  50.380  1.00  0.00     0.025 A 
HETATM    4  C7  UNL     1      25.842   4.785  49.264  1.00  0.00     0.013 A 
HETATM    5  C18 UNL     1      24.461   4.939  48.837  1.00  0.00     0.014 A 
HETATM    6  C17 UNL     1      23.628   4.341  49.673  1.00  0.00     0.011 A 
BRANCH   4   7
HETATM    7  C6  UNL     1      27.114   5.230  48.727  1.00  0.00     0.185 C 
HETATM    8  O1  UNL     1      28.054   4.408  48.639  1.00  0.00    -0.287 OA
BRANCH   7   9
HETATM    9  C2  UNL     1      27.379   6.584  48.279  1.00  0.00    -0.011 C 
HETATM   10  C1  UNL     1      28.521   6.827  47.670  1.00  0.00     0.044 C 
BRANCH   9  11
HETATM   11  C3  UNL     1      26.404   7.674  48.490  1.00  0.00     0.154 C 
BRANCH  11  12
HETATM   12  N1  UNL     1      26.342   8.180  49.804  1.00  0.00    -0.417 N 
HETATM   13  C4  UNL     1      27.241   9.204  50.182  1.00  0.00     0.142 C 
HETATM   14  C5  UNL     1      25.026   8.330  50.326  1.00  0.00     0.142 C 
ENDBRANCH  11  12
ENDBRANCH   9  11
ENDBRANCH   7   9
ENDBRANCH   4   7
ENDBRANCH   1   2
BRANCH   1  15
HETATM   15  S1  UNL     1      24.235   1.725  52.246  1.00  0.00     0.298 S 
HETATM   16  O3  UNL     1      24.068   2.854  53.218  1.00  0.00    -0.193 OA
HETATM   17  O4  UNL     1      23.019   0.816  52.366  1.00  0.00    -0.193 OA
BRANCH  15  18
HETATM   18  C10 UNL     1      25.646   0.769  52.585  1.00  0.00     0.086 A 
HETATM   19  C11 UNL     1      25.601  -0.604  52.738  1.00  0.00     0.027 A 
HETATM   20  C12 UNL     1      26.730  -1.383  53.007  1.00  0.00     0.020 A 
HETATM   21  C13 UNL     1      27.915  -0.705  53.113  1.00  0.00     0.037 A 
HETATM   22  C15 UNL     1      28.034   0.655  52.974  1.00  0.00     0.020 A 
HETATM   23  C16 UNL     1      26.889   1.366  52.711  1.00  0.00     0.027 A 
BRANCH  21  24
HETATM   24  C14 UNL     1      29.080  -1.533  53.393  1.00  0.00     0.176 C 
HETATM   25  O5  UNL     1      30.181  -1.025  53.701  1.00  0.00    -0.646 OA
BRANCH  24  26
HETATM   26  O6  UNL     1      29.130  -2.933  53.358  1.00  0.00    -0.773 OA
HETATM   27  H15 UNL     1      28.343  -3.490  53.727  1.00  0.00     0.167 HD
ENDBRANCH  24  26
ENDBRANCH  21  24
ENDBRANCH  15  18
ENDBRANCH   1  15
TORSDOF 9
ENDMDL
MODEL 4
REMARK VINA RESULT:      -7.5      1.985      2.349
REMARK  9 active torsions:
REMARK  status: ('A' for Active; 'I' for Inactive)
REMARK    1  A    between atoms: C2_2  and  C3_3 
REMARK    2  A    between atoms: C2_2  and  C6_7 
REMARK    3  A    between atoms: C3_3  and  N1_4 
REMARK    4  A    between atoms: C6_7  and  C7_9 
REMARK    5  A    between atoms: C9_11  and  O2_12 
REMARK    6  A    between atoms: O2_12  and  S1_13 
REMARK    7  A    between atoms: S1_13  and  C10_16 
REMARK    8  A    between atoms: C13_19  and  C14_20 
REMARK    9  A    between atoms: C14_20  and  O6_22 
ROOT
HETATM    1  O2  UNL     1      24.104   2.955  50.314  1.00  0.00    -0.259 OA
ENDROOT
BRANCH   1   2
HETATM    2  C9  UNL     1      23.504   2.714  51.545  1.00  0.00     0.189 A 
HETATM    3  C8  UNL     1      23.838   1.292  51.887  1.00  0.00     0.025 A 
HETATM    4  C7  UNL     1      24.583   1.241  52.976  1.00  0.00     0.013 A 
HETATM    5  C18 UNL     1      24.787   2.610  53.421  1.00  0.00     0.014 A 
HETATM    6  C17 UNL     1      24.182   3.472  52.622  1.00  0.00     0.011 A 
BRANCH   4   7
HETATM    7  C6  UNL     1      25.015  -0.051  53.474  1.00  0.00     0.185 C 
HETATM    8  O1  UNL     1      24.168  -0.811  53.998  1.00  0.00    -0.287 OA
BRANCH   7   9
HETATM    9  C2  UNL     1      26.381  -0.534  53.409  1.00  0.00    -0.011 C 
HETATM   10  C1  UNL     1      26.652  -1.531  52.592  1.00  0.00     0.044 C 
BRANCH   9  11
HETATM   11  C3  UNL     1      27.454   0.066  54.228  1.00  0.00     0.154 C 
BRANCH  11  12
HETATM   12  N1  UNL     1      28.480   0.705  53.503  1.00  0.00    -0.417 N 
HETATM   13  C4  UNL     1      28.491   2.118  53.440  1.00  0.00     0.142 C 
HETATM   14  C5  UNL     1      29.767   0.113  53.640  1.00  0.00     0.142 C 
ENDBRANCH  11  12
ENDBRANCH   9  11
ENDBRANCH   7   9
ENDBRANCH   4   7
ENDBRANCH   1   2
BRANCH   1  15
HETATM   15  S1  UNL     1      23.395   4.305  49.624  1.00  0.00     0.298 S 
HETATM   16  O3  UNL     1      23.013   4.005  48.206  1.00  0.00    -0.193 OA
HETATM   17  O4  UNL     1      22.130   4.685  50.383  1.00  0.00    -0.193 OA
BRANCH  15  18
HETATM   18  C10 UNL     1      24.502   5.640  49.738  1.00  0.00     0.086 A 
HETATM   19  C11 UNL     1      25.634   5.742  48.951  1.00  0.00     0.027 A 
HETATM   20  C12 UNL     1      26.529   6.813  49.032  1.00  0.00     0.020 A 
HETATM   21  C13 UNL     1      26.224   7.782  49.949  1.00  0.00     0.037 A 
HETATM   22  C15 UNL     1      25.119   7.746  50.763  1.00  0.00     0.020 A 
HETATM   23  C16 UNL     1      24.277   6.668  50.638  1.00  0.00     0.027 A 
BRANCH  21  24
HETATM   24  C14 UNL     1      27.167   8.890  50.018  1.00  0.00     0.176 C 
HETATM   25  O5  UNL     1      27.677   9.375  48.984  1.00  0.00    -0.646 OA
BRANCH  24  26
HETATM   26  O6  UNL     1      27.608   9.531  51.183  1.00  0.00    -0.773 OA
HETATM   27  H15 UNL     1      27.010   9.550  52.025  1.00  0.00     0.167 HD
ENDBRANCH  24  26
ENDBRANCH  21  24
ENDBRANCH  15  18
ENDBRANCH   1  15
TORSDOF 9
ENDMDL
MODEL 5
REMARK VINA RESULT:      -7.4      2.797      7.547
REMARK  9 active torsions:
REMARK  status: ('A' for Active; 'I' for Inactive)
REMARK    1  A    between atoms: C2_2  and  C3_3 
REMARK    2  A    between atoms: C2_2  and  C6_7 
REMARK    3  A    between atoms: C3_3  and  N1_4 
REMARK    4  A    between atoms: C6_7  and  C7_9 
REMARK    5  A    between atoms: C9_11  and  O2_12 
REMARK    6  A    between atoms: O2_12  and  S1_13 
REMARK    7  A    between atoms: S1_13  and  C10_16 
REMARK    8  A    between atoms: C13_19  and  C14_20 
REMARK    9  A    between atoms: C14_20  and  O6_22 
ROOT
HETATM    1  O2  UNL     1      25.344   3.637  51.456  1.00  0.00    -0.259 OA
ENDROOT
BRANCH   1   2
HETATM    2  C9  UNL     1      25.324   3.648  50.066  1.00  0.00     0.189 A 
HETATM    3  C8  UNL     1      25.172   5.089  49.674  1.00  0.00     0.025 A 
HETATM    4  C7  UNL     1      26.237   5.502  49.011  1.00  0.00     0.013 A 
HETATM    5  C18 UNL     1      27.152   4.376  48.921  1.00  0.00     0.014 A 
HETATM    6  C17 UNL     1      26.656   3.304  49.515  1.00  0.00     0.011 A 
BRANCH   4   7
HETATM    7  C6  UNL     1      26.285   6.874  48.542  1.00  0.00     0.185 C 
HETATM    8  O1  UNL     1      25.534   7.218  47.600  1.00  0.00    -0.287 OA
BRANCH   7   9
HETATM    9  C2  UNL     1      27.155   7.894  49.096  1.00  0.00    -0.011 C 
HETATM   10  C1  UNL     1      26.669   8.692  50.025  1.00  0.00     0.044 C 
BRANCH   9  11
HETATM   11  C3  UNL     1      28.553   8.047  48.643  1.00  0.00     0.154 C 
BRANCH  11  12
HETATM   12  N1  UNL     1      28.890   7.330  47.477  1.00  0.00    -0.417 N 
HETATM   13  C4  UNL     1      28.907   8.015  46.239  1.00  0.00     0.142 C 
HETATM   14  C5  UNL     1      29.938   6.382  47.639  1.00  0.00     0.142 C 
ENDBRANCH  11  12
ENDBRANCH   9  11
ENDBRANCH   7   9
ENDBRANCH   4   7
ENDBRANCH   1   2
BRANCH   1  15
HETATM   15  S1  UNL     1      24.605   2.235  51.994  1.00  0.00     0.298 S 
HETATM   16  O3  UNL     1      23.724   2.548  53.167  1.00  0.00    -0.193 OA
HETATM   17  O4  UNL     1      23.732   1.641  50.895  1.00  0.00    -0.193 OA
BRANCH  15  18
HETATM   18  C10 UNL     1      25.831   1.069  52.386  1.00  0.00     0.086 A 
HETATM   19  C11 UNL     1      25.565  -0.281  52.520  1.00  0.00     0.027 A 
HETATM   20  C12 UNL     1      26.545  -1.228  52.831  1.00  0.00     0.020 A 
HETATM   21  C13 UNL     1      27.815  -0.745  52.999  1.00  0.00     0.037 A 
HETATM   22  C15 UNL     1      28.151   0.581  52.881  1.00  0.00     0.020 A 
HETATM   23  C16 UNL     1      27.145   1.463  52.575  1.00  0.00     0.027 A 
BRANCH  21  24
HETATM   24  C14 UNL     1      28.822  -1.746  53.321  1.00  0.00     0.176 C 
HETATM   25  O5  UNL     1      29.928  -1.423  53.809  1.00  0.00    -0.646 OA
BRANCH  24  26
HETATM   26  O6  UNL     1      28.702  -3.130  53.141  1.00  0.00    -0.773 OA
HETATM   27  H15 UNL     1      27.783  -3.590  53.246  1.00  0.00     0.167 HD
ENDBRANCH  24  26
ENDBRANCH  21  24
ENDBRANCH  15  18
ENDBRANCH   1  15
TORSDOF 9
ENDMDL
MODEL 6
REMARK VINA RESULT:      -7.4      2.805      7.812
REMARK  9 active torsions:
REMARK  status: ('A' for Active; 'I' for Inactive)
REMARK    1  A    between atoms: C2_2  and  C3_3 
REMARK    2  A    between atoms: C2_2  and  C6_7 
REMARK    3  A    between atoms: C3_3  and  N1_4 
REMARK    4  A    between atoms: C6_7  and  C7_9 
REMARK    5  A    between atoms: C9_11  and  O2_12 
REMARK    6  A    between atoms: O2_12  and  S1_13 
REMARK    7  A    between atoms: S1_13  and  C10_16 
REMARK    8  A    between atoms: C13_19  and  C14_20 
REMARK    9  A    between atoms: C14_20  and  O6_22 
ROOT
HETATM    1  O2  UNL     1      24.690   3.425  50.927  1.00  0.00    -0.259 OA
ENDROOT
BRANCH   1   2
HETATM    2  C9  UNL     1      25.074   3.628  49.606  1.00  0.00     0.189 A 
HETATM    3  C8  UNL     1      25.133   5.117  49.425  1.00  0.00     0.025 A 
HETATM    4  C7  UNL     1      26.367   5.502  49.158  1.00  0.00     0.013 A 
HETATM    5  C18 UNL     1      27.196   4.308  49.143  1.00  0.00     0.014 A 
HETATM    6  C17 UNL     1      26.484   3.223  49.396  1.00  0.00     0.011 A 
BRANCH   4   7
HETATM    7  C6  UNL     1      26.635   6.912  48.948  1.00  0.00     0.185 C 
HETATM    8  O1  UNL     1      26.408   7.715  49.882  1.00  0.00    -0.287 OA
BRANCH   7   9
HETATM    9  C2  UNL     1      27.155   7.467  47.714  1.00  0.00    -0.011 C 
HETATM   10  C1  UNL     1      26.326   8.122  46.926  1.00  0.00     0.044 C 
BRANCH   9  11
HETATM   11  C3  UNL     1      28.574   7.313  47.333  1.00  0.00     0.154 C 
BRANCH  11  12
HETATM   12  N1  UNL     1      29.480   7.227  48.410  1.00  0.00    -0.417 N 
HETATM   13  C4  UNL     1      30.390   6.145  48.449  1.00  0.00     0.142 C 
HETATM   14  C5  UNL     1      30.027   8.471  48.833  1.00  0.00     0.142 C 
ENDBRANCH  11  12
ENDBRANCH   9  11
ENDBRANCH   7   9
ENDBRANCH   4   7
ENDBRANCH   1   2
BRANCH   1  15
HETATM   15  S1  UNL     1      23.080   2.969  50.956  1.00  0.00     0.298 S 
HETATM   16  O3  UNL     1      22.224   4.164  51.255  1.00  0.00    -0.193 OA
HETATM   17  O4  UNL     1      22.661   2.417  49.599  1.00  0.00    -0.193 OA
BRANCH  15  18
HETATM   18  C10 UNL     1      22.876   1.704  52.129  1.00  0.00     0.086 A 
HETATM   19  C11 UNL     1      23.940   1.000  52.662  1.00  0.00     0.027 A 
HETATM   20  C12 UNL     1      23.787  -0.018  53.608  1.00  0.00     0.020 A 
HETATM   21  C13 UNL     1      22.503  -0.290  53.996  1.00  0.00     0.037 A 
HETATM   22  C15 UNL     1      21.401   0.368  53.509  1.00  0.00     0.020 A 
HETATM   23  C16 UNL     1      21.614   1.357  52.581  1.00  0.00     0.027 A 
BRANCH  21  24
HETATM   24  C14 UNL     1      22.364  -1.351  54.983  1.00  0.00     0.176 C 
HETATM   25  O5  UNL     1      21.314  -2.025  55.072  1.00  0.00    -0.646 OA
BRANCH  24  26
HETATM   26  O6  UNL     1      23.331  -1.744  55.918  1.00  0.00    -0.773 OA
HETATM   27  H15 UNL     1      23.628  -2.732  55.975  1.00  0.00     0.167 HD
ENDBRANCH  24  26
ENDBRANCH  21  24
ENDBRANCH  15  18
ENDBRANCH   1  15
TORSDOF 9
ENDMDL
MODEL 7
REMARK VINA RESULT:      -7.3      2.961      7.820
REMARK  9 active torsions:
REMARK  status: ('A' for Active; 'I' for Inactive)
REMARK    1  A    between atoms: C2_2  and  C3_3 
REMARK    2  A    between atoms: C2_2  and  C6_7 
REMARK    3  A    between atoms: C3_3  and  N1_4 
REMARK    4  A    between atoms: C6_7  and  C7_9 
REMARK    5  A    between atoms: C9_11  and  O2_12 
REMARK    6  A    between atoms: O2_12  and  S1_13 
REMARK    7  A    between atoms: S1_13  and  C10_16 
REMARK    8  A    between atoms: C13_19  and  C14_20 
REMARK    9  A    between atoms: C14_20  and  O6_22 
ROOT
HETATM    1  O2  UNL     1      25.519   4.907  50.368  1.00  0.00    -0.259 OA
ENDROOT
BRANCH   1   2
HETATM    2  C9  UNL     1      25.914   4.968  49.036  1.00  0.00     0.189 A 
HETATM    3  C8  UNL     1      26.139   6.423  48.746  1.00  0.00     0.025 A 
HETATM    4  C7  UNL     1      27.407   6.645  48.453  1.00  0.00     0.013 A 
HETATM    5  C18 UNL     1      28.096   5.368  48.528  1.00  0.00     0.014 A 
HETATM    6  C17 UNL     1      27.267   4.392  48.859  1.00  0.00     0.011 A 
BRANCH   4   7
HETATM    7  C6  UNL     1      27.830   7.997  48.140  1.00  0.00     0.185 C 
HETATM    8  O1  UNL     1      27.616   8.447  46.991  1.00  0.00    -0.287 OA
BRANCH   7   9
HETATM    9  C2  UNL     1      28.495   8.880  49.080  1.00  0.00    -0.011 C 
HETATM   10  C1  UNL     1      27.775   9.431  50.036  1.00  0.00     0.044 C 
BRANCH   9  11
HETATM   11  C3  UNL     1      29.942   9.164  48.983  1.00  0.00     0.154 C 
BRANCH  11  12
HETATM   12  N1  UNL     1      30.719   8.140  48.404  1.00  0.00    -0.417 N 
HETATM   13  C4  UNL     1      31.408   8.407  47.198  1.00  0.00     0.142 C 
HETATM   14  C5  UNL     1      31.447   7.343  49.333  1.00  0.00     0.142 C 
ENDBRANCH  11  12
ENDBRANCH   9  11
ENDBRANCH   7   9
ENDBRANCH   4   7
ENDBRANCH   1   2
BRANCH   1  15
HETATM   15  S1  UNL     1      24.430   3.649  50.550  1.00  0.00     0.298 S 
HETATM   16  O3  UNL     1      23.205   4.141  51.260  1.00  0.00    -0.193 OA
HETATM   17  O4  UNL     1      24.003   3.117  49.187  1.00  0.00    -0.193 OA
BRANCH  15  18
HETATM   18  C10 UNL     1      25.209   2.353  51.405  1.00  0.00     0.086 A 
HETATM   19  C11 UNL     1      26.578   2.295  51.591  1.00  0.00     0.027 A 
HETATM   20  C12 UNL     1      27.214   1.259  52.281  1.00  0.00     0.020 A 
HETATM   21  C13 UNL     1      26.398   0.278  52.778  1.00  0.00     0.037 A 
HETATM   22  C15 UNL     1      25.034   0.271  52.630  1.00  0.00     0.020 A 
HETATM   23  C16 UNL     1      24.466   1.315  51.943  1.00  0.00     0.027 A 
BRANCH  21  24
HETATM   24  C14 UNL     1      27.079  -0.792  53.494  1.00  0.00     0.176 C 
HETATM   25  O5  UNL     1      27.662  -0.580  54.580  1.00  0.00    -0.646 OA
BRANCH  24  26
HETATM   26  O6  UNL     1      27.169  -2.131  53.092  1.00  0.00    -0.773 OA
HETATM   27  H15 UNL     1      28.073  -2.628  53.137  1.00  0.00     0.167 HD
ENDBRANCH  24  26
ENDBRANCH  21  24
ENDBRANCH  15  18
ENDBRANCH   1  15
TORSDOF 9
ENDMDL
MODEL 8
REMARK VINA RESULT:      -6.9      3.209      8.284
REMARK  9 active torsions:
REMARK  status: ('A' for Active; 'I' for Inactive)
REMARK    1  A    between atoms: C2_2  and  C3_3 
REMARK    2  A    between atoms: C2_2  and  C6_7 
REMARK    3  A    between atoms: C3_3  and  N1_4 
REMARK    4  A    between atoms: C6_7  and  C7_9 
REMARK    5  A    between atoms: C9_11  and  O2_12 
REMARK    6  A    between atoms: O2_12  and  S1_13 
REMARK    7  A    between atoms: S1_13  and  C10_16 
REMARK    8  A    between atoms: C13_19  and  C14_20 
REMARK    9  A    between atoms: C14_20  and  O6_22 
ROOT
HETATM    1  O2  UNL     1      25.596   4.916  50.348  1.00  0.00    -0.259 OA
ENDROOT
BRANCH   1   2
HETATM    2  C9  UNL     1      26.002   4.966  49.018  1.00  0.00     0.189 A 
HETATM    3  C8  UNL     1      26.274   6.413  48.731  1.00  0.00     0.025 A 
HETATM    4  C7  UNL     1      27.550   6.597  48.447  1.00  0.00     0.013 A 
HETATM    5  C18 UNL     1      28.199   5.299  48.525  1.00  0.00     0.014 A 
HETATM    6  C17 UNL     1      27.339   4.349  48.850  1.00  0.00     0.011 A 
BRANCH   4   7
HETATM    7  C6  UNL     1      28.017   7.935  48.138  1.00  0.00     0.185 C 
HETATM    8  O1  UNL     1      28.398   8.674  49.076  1.00  0.00    -0.287 OA
BRANCH   7   9
HETATM    9  C2  UNL     1      28.075   8.489  46.799  1.00  0.00    -0.011 C 
HETATM   10  C1  UNL     1      29.010   8.049  45.982  1.00  0.00     0.044 C 
BRANCH   9  11
HETATM   11  C3  UNL     1      27.118   9.519  46.346  1.00  0.00     0.154 C 
BRANCH  11  12
HETATM   12  N1  UNL     1      25.761   9.234  46.600  1.00  0.00    -0.417 N 
HETATM   13  C4  UNL     1      24.982  10.194  47.288  1.00  0.00     0.142 C 
HETATM   14  C5  UNL     1      25.079   8.573  45.540  1.00  0.00     0.142 C 
ENDBRANCH  11  12
ENDBRANCH   9  11
ENDBRANCH   7   9
ENDBRANCH   4   7
ENDBRANCH   1   2
BRANCH   1  15
HETATM   15  S1  UNL     1      24.320   3.842  50.481  1.00  0.00     0.298 S 
HETATM   16  O3  UNL     1      23.151   4.526  51.125  1.00  0.00    -0.193 OA
HETATM   17  O4  UNL     1      23.885   3.363  49.102  1.00  0.00    -0.193 OA
BRANCH  15  18
HETATM   18  C10 UNL     1      24.848   2.454  51.382  1.00  0.00     0.086 A 
HETATM   19  C11 UNL     1      24.024   1.775  52.262  1.00  0.00     0.027 A 
HETATM   20  C12 UNL     1      24.437   0.655  52.989  1.00  0.00     0.020 A 
HETATM   21  C13 UNL     1      25.728   0.249  52.784  1.00  0.00     0.037 A 
HETATM   22  C15 UNL     1      26.600   0.874  51.928  1.00  0.00     0.020 A 
HETATM   23  C16 UNL     1      26.137   1.969  51.242  1.00  0.00     0.027 A 
BRANCH  21  24
HETATM   24  C14 UNL     1      26.140  -0.920  53.549  1.00  0.00     0.176 C 
HETATM   25  O5  UNL     1      25.699  -1.133  54.700  1.00  0.00    -0.646 OA
BRANCH  24  26
HETATM   26  O6  UNL     1      27.034  -1.912  53.128  1.00  0.00    -0.773 OA
HETATM   27  H15 UNL     1      26.739  -2.901  53.100  1.00  0.00     0.167 HD
ENDBRANCH  24  26
ENDBRANCH  21  24
ENDBRANCH  15  18
ENDBRANCH   1  15
TORSDOF 9
ENDMDL
MODEL 9
REMARK VINA RESULT:      -6.9      4.123      7.723
REMARK  9 active torsions:
REMARK  status: ('A' for Active; 'I' for Inactive)
REMARK    1  A    between atoms: C2_2  and  C3_3 
REMARK    2  A    between atoms: C2_2  and  C6_7 
REMARK    3  A    between atoms: C3_3  and  N1_4 
REMARK    4  A    between atoms: C6_7  and  C7_9 
REMARK    5  A    between atoms: C9_11  and  O2_12 
REMARK    6  A    between atoms: O2_12  and  S1_13 
REMARK    7  A    between atoms: S1_13  and  C10_16 
REMARK    8  A    between atoms: C13_19  and  C14_20 
REMARK    9  A    between atoms: C14_20  and  O6_22 
ROOT
HETATM    1  O2  UNL     1      22.027  -0.464  52.904  1.00  0.00    -0.259 OA
ENDROOT
BRANCH   1   2
HETATM    2  C9  UNL     1      22.794   0.630  53.291  1.00  0.00     0.189 A 
HETATM    3  C8  UNL     1      24.196   0.113  53.432  1.00  0.00     0.025 A 
HETATM    4  C7  UNL     1      24.993   0.693  52.552  1.00  0.00     0.013 A 
HETATM    5  C18 UNL     1      24.181   1.620  51.782  1.00  0.00     0.014 A 
HETATM    6  C17 UNL     1      22.921   1.605  52.183  1.00  0.00     0.011 A 
BRANCH   4   7
HETATM    7  C6  UNL     1      26.396   0.327  52.526  1.00  0.00     0.185 C 
HETATM    8  O1  UNL     1      26.804  -0.442  51.626  1.00  0.00    -0.287 OA
BRANCH   7   9
HETATM    9  C2  UNL     1      27.377   0.795  53.486  1.00  0.00    -0.011 C 
HETATM   10  C1  UNL     1      27.689   2.075  53.485  1.00  0.00     0.044 C 
BRANCH   9  11
HETATM   11  C3  UNL     1      28.020  -0.125  54.447  1.00  0.00     0.154 C 
BRANCH  11  12
HETATM   12  N1  UNL     1      29.212  -0.728  53.999  1.00  0.00    -0.417 N 
HETATM   13  C4  UNL     1      29.138  -1.983  53.350  1.00  0.00     0.142 C 
HETATM   14  C5  UNL     1      30.163   0.169  53.437  1.00  0.00     0.142 C 
ENDBRANCH  11  12
ENDBRANCH   9  11
ENDBRANCH   7   9
ENDBRANCH   4   7
ENDBRANCH   1   2
BRANCH   1  15
HETATM   15  S1  UNL     1      20.871  -0.754  54.079  1.00  0.00     0.298 S 
HETATM   16  O3  UNL     1      21.253  -1.968  54.873  1.00  0.00    -0.193 OA
HETATM   17  O4  UNL     1      20.783   0.427  55.038  1.00  0.00    -0.193 OA
BRANCH  15  18
HETATM   18  C10 UNL     1      19.323  -0.930  53.312  1.00  0.00     0.086 A 
HETATM   19  C11 UNL     1      18.409  -1.897  53.684  1.00  0.00     0.027 A 
HETATM   20  C12 UNL     1      17.159  -2.045  53.076  1.00  0.00     0.020 A 
HETATM   21  C13 UNL     1      16.873  -1.164  52.068  1.00  0.00     0.037 A 
HETATM   22  C15 UNL     1      17.732  -0.180  51.646  1.00  0.00     0.020 A 
HETATM   23  C16 UNL     1      18.945  -0.084  52.282  1.00  0.00     0.027 A 
BRANCH  21  24
HETATM   24  C14 UNL     1      15.567  -1.332  51.448  1.00  0.00     0.176 C 
HETATM   25  O5  UNL     1      14.548  -1.576  52.131  1.00  0.00    -0.646 OA
BRANCH  24  26
HETATM   26  O6  UNL     1      15.284  -1.250  50.078  1.00  0.00    -0.773 OA
HETATM   27  H15 UNL     1      14.674  -0.499  49.717  1.00  0.00     0.167 HD
ENDBRANCH  24  26
ENDBRANCH  21  24
ENDBRANCH  15  18
ENDBRANCH   1  15
TORSDOF 9
ENDMDL
