MODEL 1
REMARK VINA RESULT:      -8.6      0.000      0.000
REMARK  4 active torsions:
REMARK  status: ('A' for Active; 'I' for Inactive)
REMARK    1  A    between atoms: C5_5  and  O1_6 
REMARK    2  A    between atoms: O1_6  and  C6_7 
REMARK    3  A    between atoms: C9_10  and  N1_11 
REMARK    4  A    between atoms: N1_11  and  C10_12 
ROOT
HETATM    1  C6  UNL     1      23.147  -0.194  53.187  1.00  0.00     0.097 A 
HETATM    2  C7  UNL     1      22.620  -0.909  54.206  1.00  0.00     0.041 A 
HETATM    3  C8  UNL     1      21.293  -1.123  54.486  1.00  0.00     0.032 A 
HETATM    4  C9  UNL     1      20.391  -0.509  53.581  1.00  0.00     0.035 A 
HETATM    5  C15 UNL     1      20.885   0.213  52.547  1.00  0.00     0.056 A 
HETATM    6  C16 UNL     1      22.245   0.425  52.270  1.00  0.00     0.070 A 
HETATM    7 CL1  UNL     1      22.545   1.398  50.865  1.00  0.00    -0.081 Cl
ENDROOT
BRANCH   4   8
HETATM    8  N1  UNL     1      19.070  -0.785  54.007  1.00  0.00    -0.341 N 
HETATM    9  H9  UNL     1      18.670  -0.646  54.951  1.00  0.00     0.167 HD
BRANCH   8  10
HETATM   10  C10 UNL     1      17.934  -1.302  53.348  1.00  0.00     0.131 A 
HETATM   11  C11 UNL     1      17.792  -2.651  53.721  1.00  0.00     0.077 A 
HETATM   12  C12 UNL     1      16.759  -3.463  53.216  1.00  0.00     0.035 A 
HETATM   13  C13 UNL     1      16.614  -4.888  53.618  1.00  0.00     0.070 C 
HETATM   14  N2  UNL     1      15.878  -2.916  52.336  1.00  0.00    -0.247 NA
HETATM   15  C14 UNL     1      16.041  -1.613  51.994  1.00  0.00     0.235 A 
HETATM   16  N3  UNL     1      17.027  -0.801  52.466  1.00  0.00    -0.224 NA
ENDBRANCH   8  10
ENDBRANCH   4   8
BRANCH   1  17
HETATM   17  O1  UNL     1      24.403   0.135  52.739  1.00  0.00    -0.313 OA
BRANCH  17  18
HETATM   18  C5  UNL     1      25.598  -0.160  53.372  1.00  0.00     0.053 C 
HETATM   19  C4  UNL     1      26.363  -1.423  53.096  1.00  0.00     0.092 C 
HETATM   20  C3  UNL     1      27.758  -0.985  52.802  1.00  0.00    -0.018 C 
HETATM   21  C2  UNL     1      28.320  -0.177  53.692  1.00  0.00    -0.084 C 
HETATM   22  C1  UNL     1      29.700   0.341  53.535  1.00  0.00     0.043 C 
HETATM   23  C18 UNL     1      27.457   0.167  54.856  1.00  0.00     0.063 C 
HETATM   24  C17 UNL     1      26.154   0.644  54.263  1.00  0.00     0.010 C 
ENDBRANCH  17  18
ENDBRANCH   1  17
TORSDOF 4
ENDMDL
MODEL 2
REMARK VINA RESULT:      -8.1      4.414      8.605
REMARK  4 active torsions:
REMARK  status: ('A' for Active; 'I' for Inactive)
REMARK    1  A    between atoms: C5_5  and  O1_6 
REMARK    2  A    between atoms: O1_6  and  C6_7 
REMARK    3  A    between atoms: C9_10  and  N1_11 
REMARK    4  A    between atoms: N1_11  and  C10_12 
ROOT
HETATM    1  C6  UNL     1      22.530   2.787  51.458  1.00  0.00     0.097 A 
HETATM    2  C7  UNL     1      23.081   2.786  52.692  1.00  0.00     0.041 A 
HETATM    3  C8  UNL     1      24.413   2.737  53.020  1.00  0.00     0.032 A 
HETATM    4  C9  UNL     1      25.294   2.685  51.909  1.00  0.00     0.035 A 
HETATM    5  C15 UNL     1      24.775   2.687  50.658  1.00  0.00     0.056 A 
HETATM    6  C16 UNL     1      23.410   2.737  50.335  1.00  0.00     0.070 A 
HETATM    7 CL1  UNL     1      23.077   2.728  48.633  1.00  0.00    -0.081 Cl
ENDROOT
BRANCH   4   8
HETATM    8  N1  UNL     1      26.621   2.607  52.392  1.00  0.00    -0.341 N 
HETATM    9  H9  UNL     1      27.376   3.305  52.279  1.00  0.00     0.167 HD
BRANCH   8  10
HETATM   10  C10 UNL     1      27.320   1.629  53.132  1.00  0.00     0.131 A 
HETATM   11  C11 UNL     1      27.007   0.368  52.591  1.00  0.00     0.077 A 
HETATM   12  C12 UNL     1      27.530  -0.826  53.123  1.00  0.00     0.035 A 
HETATM   13  C13 UNL     1      27.196  -2.155  52.543  1.00  0.00     0.070 C 
HETATM   14  N2  UNL     1      28.362  -0.747  54.195  1.00  0.00    -0.247 NA
HETATM   15  C14 UNL     1      28.645   0.483  54.697  1.00  0.00     0.235 A 
HETATM   16  N3  UNL     1      28.157   1.656  54.205  1.00  0.00    -0.224 NA
ENDBRANCH   8  10
ENDBRANCH   4   8
BRANCH   1  17
HETATM   17  O1  UNL     1      21.265   2.830  50.926  1.00  0.00    -0.313 OA
BRANCH  17  18
HETATM   18  C5  UNL     1      20.397   1.759  50.798  1.00  0.00     0.053 C 
HETATM   19  C4  UNL     1      20.763   0.372  51.242  1.00  0.00     0.092 C 
HETATM   20  C3  UNL     1      19.632  -0.079  52.104  1.00  0.00    -0.018 C 
HETATM   21  C2  UNL     1      18.416   0.038  51.587  1.00  0.00    -0.084 C 
HETATM   22  C1  UNL     1      17.196  -0.367  52.326  1.00  0.00     0.043 C 
HETATM   23  C18 UNL     1      18.374   0.607  50.211  1.00  0.00     0.063 C 
HETATM   24  C17 UNL     1      19.187   1.876  50.277  1.00  0.00     0.010 C 
ENDBRANCH  17  18
ENDBRANCH   1  17
TORSDOF 4
ENDMDL
MODEL 3
REMARK VINA RESULT:      -8.1      6.759      9.793
REMARK  4 active torsions:
REMARK  status: ('A' for Active; 'I' for Inactive)
REMARK    1  A    between atoms: C5_5  and  O1_6 
REMARK    2  A    between atoms: O1_6  and  C6_7 
REMARK    3  A    between atoms: C9_10  and  N1_11 
REMARK    4  A    between atoms: N1_11  and  C10_12 
ROOT
HETATM    1  C6  UNL     1      25.446   2.386  51.208  1.00  0.00     0.097 A 
HETATM    2  C7  UNL     1      26.443   2.670  50.341  1.00  0.00     0.041 A 
HETATM    3  C8  UNL     1      26.628   3.821  49.616  1.00  0.00     0.032 A 
HETATM    4  C9  UNL     1      25.639   4.815  49.824  1.00  0.00     0.035 A 
HETATM    5  C15 UNL     1      24.626   4.566  50.689  1.00  0.00     0.056 A 
HETATM    6  C16 UNL     1      24.448   3.385  51.425  1.00  0.00     0.070 A 
HETATM    7 CL1  UNL     1      23.048   3.384  52.450  1.00  0.00    -0.081 Cl
ENDROOT
BRANCH   4   8
HETATM    8  N1  UNL     1      25.935   5.924  48.996  1.00  0.00    -0.341 N 
HETATM    9  H9  UNL     1      25.618   6.089  48.025  1.00  0.00     0.167 HD
BRANCH   8  10
HETATM   10  C10 UNL     1      26.703   7.092  49.191  1.00  0.00     0.131 A 
HETATM   11  C11 UNL     1      27.831   7.015  48.353  1.00  0.00     0.077 A 
HETATM   12  C12 UNL     1      28.814   8.023  48.326  1.00  0.00     0.035 A 
HETATM   13  C13 UNL     1      30.003   7.934  47.435  1.00  0.00     0.070 C 
HETATM   14  N2  UNL     1      28.659   9.099  49.142  1.00  0.00    -0.247 NA
HETATM   15  C14 UNL     1      27.562   9.146  49.939  1.00  0.00     0.235 A 
HETATM   16  N3  UNL     1      26.593   8.189  49.988  1.00  0.00    -0.224 NA
ENDBRANCH   8  10
ENDBRANCH   4   8
BRANCH   1  17
HETATM   17  O1  UNL     1      25.087   1.333  52.012  1.00  0.00    -0.313 OA
BRANCH  17  18
HETATM   18  C5  UNL     1      25.921   0.645  52.876  1.00  0.00     0.053 C 
HETATM   19  C4  UNL     1      26.018  -0.854  52.875  1.00  0.00     0.092 C 
HETATM   20  C3  UNL     1      27.477  -1.156  52.792  1.00  0.00    -0.018 C 
HETATM   21  C2  UNL     1      28.254  -0.548  53.679  1.00  0.00    -0.084 C 
HETATM   22  C1  UNL     1      29.722  -0.750  53.719  1.00  0.00     0.043 C 
HETATM   23  C18 UNL     1      27.537   0.349  54.627  1.00  0.00     0.063 C 
HETATM   24  C17 UNL     1      26.691   1.252  53.764  1.00  0.00     0.010 C 
ENDBRANCH  17  18
ENDBRANCH   1  17
TORSDOF 4
ENDMDL
MODEL 4
REMARK VINA RESULT:      -7.8      2.962      3.485
REMARK  4 active torsions:
REMARK  status: ('A' for Active; 'I' for Inactive)
REMARK    1  A    between atoms: C5_5  and  O1_6 
REMARK    2  A    between atoms: O1_6  and  C6_7 
REMARK    3  A    between atoms: C9_10  and  N1_11 
REMARK    4  A    between atoms: N1_11  and  C10_12 
ROOT
HETATM    1  C6  UNL     1      23.209   0.536  53.054  1.00  0.00     0.097 A 
HETATM    2  C7  UNL     1      23.213   1.618  52.244  1.00  0.00     0.041 A 
HETATM    3  C8  UNL     1      22.164   2.450  51.944  1.00  0.00     0.032 A 
HETATM    4  C9  UNL     1      20.941   2.111  52.576  1.00  0.00     0.035 A 
HETATM    5  C15 UNL     1      20.900   1.033  53.396  1.00  0.00     0.056 A 
HETATM    6  C16 UNL     1      21.981   0.189  53.696  1.00  0.00     0.070 A 
HETATM    7 CL1  UNL     1      21.598  -1.103  54.787  1.00  0.00    -0.081 Cl
ENDROOT
BRANCH   4   8
HETATM    8  N1  UNL     1      19.948   3.026  52.154  1.00  0.00    -0.341 N 
HETATM    9  H9  UNL     1      20.040   4.050  52.041  1.00  0.00     0.167 HD
BRANCH   8  10
HETATM   10  C10 UNL     1      18.597   2.873  51.774  1.00  0.00     0.131 A 
HETATM   11  C11 UNL     1      18.464   1.626  51.136  1.00  0.00     0.077 A 
HETATM   12  C12 UNL     1      17.235   1.178  50.616  1.00  0.00     0.035 A 
HETATM   13  C13 UNL     1      17.102  -0.143  49.945  1.00  0.00     0.070 C 
HETATM   14  N2  UNL     1      16.148   1.987  50.736  1.00  0.00    -0.247 NA
HETATM   15  C14 UNL     1      16.307   3.185  51.355  1.00  0.00     0.235 A 
HETATM   16  N3  UNL     1      17.481   3.646  51.870  1.00  0.00    -0.224 NA
ENDBRANCH   8  10
ENDBRANCH   4   8
BRANCH   1  17
HETATM   17  O1  UNL     1      24.117  -0.402  53.478  1.00  0.00    -0.313 OA
BRANCH  17  18
HETATM   18  C5  UNL     1      25.488  -0.227  53.568  1.00  0.00     0.053 C 
HETATM   19  C4  UNL     1      26.399  -0.394  52.386  1.00  0.00     0.092 C 
HETATM   20  C3  UNL     1      27.230   0.844  52.349  1.00  0.00    -0.018 C 
HETATM   21  C2  UNL     1      27.840   1.175  53.480  1.00  0.00    -0.084 C 
HETATM   22  C1  UNL     1      28.699   2.378  53.596  1.00  0.00     0.043 C 
HETATM   23  C18 UNL     1      27.594   0.247  54.618  1.00  0.00     0.063 C 
HETATM   24  C17 UNL     1      26.095   0.098  54.697  1.00  0.00     0.010 C 
ENDBRANCH  17  18
ENDBRANCH   1  17
TORSDOF 4
ENDMDL
MODEL 5
REMARK VINA RESULT:      -7.7      5.026      8.809
REMARK  4 active torsions:
REMARK  status: ('A' for Active; 'I' for Inactive)
REMARK    1  A    between atoms: C5_5  and  O1_6 
REMARK    2  A    between atoms: O1_6  and  C6_7 
REMARK    3  A    between atoms: C9_10  and  N1_11 
REMARK    4  A    between atoms: N1_11  and  C10_12 
ROOT
HETATM    1  C6  UNL     1      23.497   3.577  49.909  1.00  0.00     0.097 A 
HETATM    2  C7  UNL     1      24.730   3.409  49.383  1.00  0.00     0.041 A 
HETATM    3  C8  UNL     1      25.899   3.132  50.048  1.00  0.00     0.032 A 
HETATM    4  C9  UNL     1      25.765   3.012  51.455  1.00  0.00     0.035 A 
HETATM    5  C15 UNL     1      24.542   3.173  52.015  1.00  0.00     0.056 A 
HETATM    6  C16 UNL     1      23.353   3.456  51.325  1.00  0.00     0.070 A 
HETATM    7 CL1  UNL     1      21.953   3.598  52.339  1.00  0.00    -0.081 Cl
ENDROOT
BRANCH   4   8
HETATM    8  N1  UNL     1      27.042   2.760  52.008  1.00  0.00    -0.341 N 
HETATM    9  H9  UNL     1      27.912   3.301  51.860  1.00  0.00     0.167 HD
BRANCH   8  10
HETATM   10  C10 UNL     1      27.534   1.766  52.881  1.00  0.00     0.131 A 
HETATM   11  C11 UNL     1      27.103   0.516  52.402  1.00  0.00     0.077 A 
HETATM   12  C12 UNL     1      27.410  -0.688  53.065  1.00  0.00     0.035 A 
HETATM   13  C13 UNL     1      26.952  -2.006  52.550  1.00  0.00     0.070 C 
HETATM   14  N2  UNL     1      28.147  -0.627  54.206  1.00  0.00    -0.247 NA
HETATM   15  C14 UNL     1      28.548   0.594  54.645  1.00  0.00     0.235 A 
HETATM   16  N3  UNL     1      28.268   1.775  54.026  1.00  0.00    -0.224 NA
ENDBRANCH   8  10
ENDBRANCH   4   8
BRANCH   1  17
HETATM   17  O1  UNL     1      22.236   3.850  49.438  1.00  0.00    -0.313 OA
BRANCH  17  18
HETATM   18  C5  UNL     1      21.207   2.936  49.287  1.00  0.00     0.053 C 
HETATM   19  C4  UNL     1      21.455   1.497  48.935  1.00  0.00     0.092 C 
HETATM   20  C3  UNL     1      20.696   0.705  49.945  1.00  0.00    -0.018 C 
HETATM   21  C2  UNL     1      19.418   1.027  50.105  1.00  0.00    -0.084 C 
HETATM   22  C1  UNL     1      18.538   0.328  51.072  1.00  0.00     0.043 C 
HETATM   23  C18 UNL     1      18.942   2.141  49.239  1.00  0.00     0.063 C 
HETATM   24  C17 UNL     1      19.933   3.259  49.441  1.00  0.00     0.010 C 
ENDBRANCH  17  18
ENDBRANCH   1  17
TORSDOF 4
ENDMDL
MODEL 6
REMARK VINA RESULT:      -7.7      6.598     10.274
REMARK  4 active torsions:
REMARK  status: ('A' for Active; 'I' for Inactive)
REMARK    1  A    between atoms: C5_5  and  O1_6 
REMARK    2  A    between atoms: O1_6  and  C6_7 
REMARK    3  A    between atoms: C9_10  and  N1_11 
REMARK    4  A    between atoms: N1_11  and  C10_12 
ROOT
HETATM    1  C6  UNL     1      24.750   3.088  51.901  1.00  0.00     0.097 A 
HETATM    2  C7  UNL     1      24.215   4.186  51.323  1.00  0.00     0.041 A 
HETATM    3  C8  UNL     1      24.722   4.922  50.281  1.00  0.00     0.032 A 
HETATM    4  C9  UNL     1      25.958   4.449  49.770  1.00  0.00     0.035 A 
HETATM    5  C15 UNL     1      26.522   3.350  50.325  1.00  0.00     0.056 A 
HETATM    6  C16 UNL     1      25.993   2.605  51.390  1.00  0.00     0.070 A 
HETATM    7 CL1  UNL     1      26.962   1.246  51.864  1.00  0.00    -0.081 Cl
ENDROOT
BRANCH   4   8
HETATM    8  N1  UNL     1      26.375   5.315  48.732  1.00  0.00    -0.341 N 
HETATM    9  H9  UNL     1      25.952   5.426  47.794  1.00  0.00     0.167 HD
BRANCH   8  10
HETATM   10  C10 UNL     1      27.427   6.249  48.622  1.00  0.00     0.131 A 
HETATM   11  C11 UNL     1      28.593   5.549  48.260  1.00  0.00     0.077 A 
HETATM   12  C12 UNL     1      29.833   6.196  48.091  1.00  0.00     0.035 A 
HETATM   13  C13 UNL     1      31.060   5.449  47.705  1.00  0.00     0.070 C 
HETATM   14  N2  UNL     1      29.893   7.540  48.288  1.00  0.00    -0.247 NA
HETATM   15  C14 UNL     1      28.752   8.188  48.638  1.00  0.00     0.235 A 
HETATM   16  N3  UNL     1      27.540   7.592  48.808  1.00  0.00    -0.224 NA
ENDBRANCH   8  10
ENDBRANCH   4   8
BRANCH   1  17
HETATM   17  O1  UNL     1      24.417   2.229  52.919  1.00  0.00    -0.313 OA
BRANCH  17  18
HETATM   18  C5  UNL     1      23.665   1.073  52.797  1.00  0.00     0.053 C 
HETATM   19  C4  UNL     1      24.153  -0.259  53.293  1.00  0.00     0.092 C 
HETATM   20  C3  UNL     1      23.045  -0.797  54.135  1.00  0.00    -0.018 C 
HETATM   21  C2  UNL     1      21.841  -0.816  53.580  1.00  0.00    -0.084 C 
HETATM   22  C1  UNL     1      20.645  -1.323  54.295  1.00  0.00     0.043 C 
HETATM   23  C18 UNL     1      21.786  -0.292  52.187  1.00  0.00     0.063 C 
HETATM   24  C17 UNL     1      22.467   1.054  52.238  1.00  0.00     0.010 C 
ENDBRANCH  17  18
ENDBRANCH   1  17
TORSDOF 4
ENDMDL
MODEL 7
REMARK VINA RESULT:      -7.6      2.113      2.690
REMARK  4 active torsions:
REMARK  status: ('A' for Active; 'I' for Inactive)
REMARK    1  A    between atoms: C5_5  and  O1_6 
REMARK    2  A    between atoms: O1_6  and  C6_7 
REMARK    3  A    between atoms: C9_10  and  N1_11 
REMARK    4  A    between atoms: N1_11  and  C10_12 
ROOT
HETATM    1  C6  UNL     1      23.050   0.640  52.693  1.00  0.00     0.097 A 
HETATM    2  C7  UNL     1      22.633   1.163  51.518  1.00  0.00     0.041 A 
HETATM    3  C8  UNL     1      21.385   1.078  50.953  1.00  0.00     0.032 A 
HETATM    4  C9  UNL     1      20.438   0.349  51.717  1.00  0.00     0.035 A 
HETATM    5  C15 UNL     1      20.821  -0.187  52.901  1.00  0.00     0.056 A 
HETATM    6  C16 UNL     1      22.101  -0.093  53.469  1.00  0.00     0.070 A 
HETATM    7 CL1  UNL     1      22.264  -0.889  55.002  1.00  0.00    -0.081 Cl
ENDROOT
BRANCH   4   8
HETATM    8  N1  UNL     1      19.216   0.316  51.006  1.00  0.00    -0.341 N 
HETATM    9  H9  UNL     1      19.063   0.016  50.027  1.00  0.00     0.167 HD
BRANCH   8  10
HETATM   10  C10 UNL     1      17.890   0.653  51.353  1.00  0.00     0.131 A 
HETATM   11  C11 UNL     1      17.192  -0.540  51.614  1.00  0.00     0.077 A 
HETATM   12  C12 UNL     1      15.830  -0.549  51.970  1.00  0.00     0.035 A 
HETATM   13  C13 UNL     1      15.100  -1.815  52.247  1.00  0.00     0.070 C 
HETATM   14  N2  UNL     1      15.177   0.641  52.058  1.00  0.00    -0.247 NA
HETATM   15  C14 UNL     1      15.876   1.776  51.800  1.00  0.00     0.235 A 
HETATM   16  N3  UNL     1      17.193   1.817  51.455  1.00  0.00    -0.224 NA
ENDBRANCH   8  10
ENDBRANCH   4   8
BRANCH   1  17
HETATM   17  O1  UNL     1      24.214   0.609  53.419  1.00  0.00    -0.313 OA
BRANCH  17  18
HETATM   18  C5  UNL     1      25.428   0.097  52.993  1.00  0.00     0.053 C 
HETATM   19  C4  UNL     1      26.382   0.890  52.146  1.00  0.00     0.092 C 
HETATM   20  C3  UNL     1      27.699   0.795  52.838  1.00  0.00    -0.018 C 
HETATM   21  C2  UNL     1      28.113  -0.427  53.148  1.00  0.00    -0.084 C 
HETATM   22  C1  UNL     1      29.401  -0.678  53.838  1.00  0.00     0.043 C 
HETATM   23  C18 UNL     1      27.185  -1.521  52.749  1.00  0.00     0.063 C 
HETATM   24  C17 UNL     1      25.837  -1.123  53.298  1.00  0.00     0.010 C 
ENDBRANCH  17  18
ENDBRANCH   1  17
TORSDOF 4
ENDMDL
MODEL 8
REMARK VINA RESULT:      -7.5      3.934      9.140
REMARK  4 active torsions:
REMARK  status: ('A' for Active; 'I' for Inactive)
REMARK    1  A    between atoms: C5_5  and  O1_6 
REMARK    2  A    between atoms: O1_6  and  C6_7 
REMARK    3  A    between atoms: C9_10  and  N1_11 
REMARK    4  A    between atoms: N1_11  and  C10_12 
ROOT
HETATM    1  C6  UNL     1      21.767   1.760  52.464  1.00  0.00     0.097 A 
HETATM    2  C7  UNL     1      22.818   2.066  51.672  1.00  0.00     0.041 A 
HETATM    3  C8  UNL     1      24.082   1.530  51.703  1.00  0.00     0.032 A 
HETATM    4  C9  UNL     1      24.278   0.536  52.695  1.00  0.00     0.035 A 
HETATM    5  C15 UNL     1      23.245   0.203  53.506  1.00  0.00     0.056 A 
HETATM    6  C16 UNL     1      21.957   0.759  53.465  1.00  0.00     0.070 A 
HETATM    7 CL1  UNL     1      20.859   0.109  54.640  1.00  0.00    -0.081 Cl
ENDROOT
BRANCH   4   8
HETATM    8  N1  UNL     1      25.622   0.099  52.634  1.00  0.00    -0.341 N 
HETATM    9  H9  UNL     1      25.976  -0.805  52.276  1.00  0.00     0.167 HD
BRANCH   8  10
HETATM   10  C10 UNL     1      26.845   0.695  53.010  1.00  0.00     0.131 A 
HETATM   11  C11 UNL     1      27.788  -0.333  53.199  1.00  0.00     0.077 A 
HETATM   12  C12 UNL     1      29.111  -0.070  53.602  1.00  0.00     0.035 A 
HETATM   13  C13 UNL     1      30.103  -1.162  53.798  1.00  0.00     0.070 C 
HETATM   14  N2  UNL     1      29.478   1.222  53.815  1.00  0.00    -0.247 NA
HETATM   15  C14 UNL     1      28.547   2.192  53.625  1.00  0.00     0.235 A 
HETATM   16  N3  UNL     1      27.261   1.971  53.234  1.00  0.00    -0.224 NA
ENDBRANCH   8  10
ENDBRANCH   4   8
BRANCH   1  17
HETATM   17  O1  UNL     1      20.461   2.162  52.596  1.00  0.00    -0.313 OA
BRANCH  17  18
HETATM   18  C5  UNL     1      19.403   1.772  51.793  1.00  0.00     0.053 C 
HETATM   19  C4  UNL     1      19.406   0.476  51.034  1.00  0.00     0.092 C 
HETATM   20  C3  UNL     1      18.114  -0.186  51.375  1.00  0.00    -0.018 C 
HETATM   21  C2  UNL     1      17.019   0.548  51.220  1.00  0.00    -0.084 C 
HETATM   22  C1  UNL     1      15.664   0.026  51.519  1.00  0.00     0.043 C 
HETATM   23  C18 UNL     1      17.259   1.931  50.724  1.00  0.00     0.063 C 
HETATM   24  C17 UNL     1      18.315   2.507  51.635  1.00  0.00     0.010 C 
ENDBRANCH  17  18
ENDBRANCH   1  17
TORSDOF 4
ENDMDL
MODEL 9
REMARK VINA RESULT:      -7.3      7.018      9.174
REMARK  4 active torsions:
REMARK  status: ('A' for Active; 'I' for Inactive)
REMARK    1  A    between atoms: C5_5  and  O1_6 
REMARK    2  A    between atoms: O1_6  and  C6_7 
REMARK    3  A    between atoms: C9_10  and  N1_11 
REMARK    4  A    between atoms: N1_11  and  C10_12 
ROOT
HETATM    1  C6  UNL     1      26.001   5.175  49.361  1.00  0.00     0.097 A 
HETATM    2  C7  UNL     1      26.676   4.005  49.321  1.00  0.00     0.041 A 
HETATM    3  C8  UNL     1      26.420   2.860  50.034  1.00  0.00     0.032 A 
HETATM    4  C9  UNL     1      25.306   2.943  50.907  1.00  0.00     0.035 A 
HETATM    5  C15 UNL     1      24.605   4.101  50.970  1.00  0.00     0.056 A 
HETATM    6  C16 UNL     1      24.876   5.266  50.236  1.00  0.00     0.070 A 
HETATM    7 CL1  UNL     1      23.783   6.577  50.546  1.00  0.00    -0.081 Cl
ENDROOT
BRANCH   4   8
HETATM    8  N1  UNL     1      25.181   1.713  51.594  1.00  0.00    -0.341 N 
HETATM    9  H9  UNL     1      24.475   0.973  51.441  1.00  0.00     0.167 HD
BRANCH   8  10
HETATM   10  C10 UNL     1      25.915   1.118  52.643  1.00  0.00     0.131 A 
HETATM   11  C11 UNL     1      26.298  -0.171  52.229  1.00  0.00     0.077 A 
HETATM   12  C12 UNL     1      27.029  -1.039  53.062  1.00  0.00     0.035 A 
HETATM   13  C13 UNL     1      27.433  -2.399  52.615  1.00  0.00     0.070 C 
HETATM   14  N2  UNL     1      27.370  -0.608  54.306  1.00  0.00    -0.247 NA
HETATM   15  C14 UNL     1      26.985   0.640  54.678  1.00  0.00     0.235 A 
HETATM   16  N3  UNL     1      26.279   1.503  53.897  1.00  0.00    -0.224 NA
ENDBRANCH   8  10
ENDBRANCH   4   8
BRANCH   1  17
HETATM   17  O1  UNL     1      26.086   6.402  48.750  1.00  0.00    -0.313 OA
BRANCH  17  18
HETATM   18  C5  UNL     1      27.117   7.314  48.894  1.00  0.00     0.053 C 
HETATM   19  C4  UNL     1      28.443   7.142  48.209  1.00  0.00     0.092 C 
HETATM   20  C3  UNL     1      28.704   8.438  47.519  1.00  0.00    -0.018 C 
HETATM   21  C2  UNL     1      28.599   9.531  48.263  1.00  0.00    -0.084 C 
HETATM   22  C1  UNL     1      28.829  10.890  47.715  1.00  0.00     0.043 C 
HETATM   23  C18 UNL     1      28.235   9.286  49.686  1.00  0.00     0.063 C 
HETATM   24  C17 UNL     1      27.014   8.401  49.640  1.00  0.00     0.010 C 
ENDBRANCH  17  18
ENDBRANCH   1  17
TORSDOF 4
ENDMDL
