MODEL 1
REMARK VINA RESULT:      -8.3      0.000      0.000
REMARK  7 active torsions:
REMARK  status: ('A' for Active; 'I' for Inactive)
REMARK    1  A    between atoms: C2_2  and  C3_3 
REMARK       I    between atoms: C3_3  and  N1_5 
REMARK    2  A    between atoms: C5_7  and  C6_8 
REMARK    3  A    between atoms: C6_8  and  O2_9 
REMARK    4  A    between atoms: O2_9  and  C7_10 
REMARK    5  A    between atoms: C8_12  and  N3_13 
REMARK    6  A    between atoms: N3_13  and  C9_14 
REMARK    7  A    between atoms: C17_27  and  O3_28 
ROOT
HETATM    1  C7  UNL     1      25.329   3.694  51.090  1.00  0.00     0.199 A 
HETATM    2  N2  UNL     1      24.164   3.669  51.754  1.00  0.00    -0.037 NA
HETATM    3  C8  UNL     1      23.167   4.520  51.478  1.00  0.00     0.731 A 
HETATM    4  N6  UNL     1      23.300   5.457  50.493  1.00  0.00    -0.042 NA
HETATM    5  C13 UNL     1      24.477   5.473  49.827  1.00  0.00     0.180 A 
HETATM    6  C14 UNL     1      25.544   4.603  50.087  1.00  0.00     0.089 A 
HETATM    7  C15 UNL     1      26.266   5.309  48.988  1.00  0.00     0.050 A 
HETATM    8  C16 UNL     1      27.495   4.978  48.609  1.00  0.00     0.066 C 
HETATM    9  N7  UNL     1      25.164   6.143  48.787  1.00  0.00    -0.239 N 
HETATM   10 CL1  UNL     1      25.117   7.395  47.605  1.00  0.00     0.020 Cl
ENDROOT
BRANCH   1  11
HETATM   11  O2  UNL     1      26.226   2.852  51.412  1.00  0.00    -0.333 OA
BRANCH  11  12
HETATM   12  C6  UNL     1      27.126   2.146  52.006  1.00  0.00     0.186 C 
BRANCH  12  13
HETATM   13  C5  UNL     1      26.799   0.654  52.228  1.00  0.00     0.058 C 
HETATM   14  C4  UNL     1      25.386   0.505  52.756  1.00  0.00     0.135 C 
HETATM   15  N1  UNL     1      25.588  -0.109  54.047  1.00  0.00    -0.346 N 
HETATM   16  C3  UNL     1      24.565  -0.809  54.777  1.00  0.00     0.239 C 
HETATM   17  C19 UNL     1      26.926   0.079  54.531  1.00  0.00     0.158 C 
HETATM   18  O1  UNL     1      24.835  -1.354  55.874  1.00  0.00    -0.269 OA
HETATM   19  C17 UNL     1      27.749   0.165  53.276  1.00  0.00     0.146 C 
BRANCH  16  20
HETATM   20  C2  UNL     1      23.197  -0.918  54.292  1.00  0.00     0.048 C 
HETATM   21  C1  UNL     1      22.030  -1.010  54.881  1.00  0.00     0.037 C 
ENDBRANCH  16  20
BRANCH  19  22
HETATM   22  O3  UNL     1      28.169  -1.106  52.898  1.00  0.00    -0.389 OA
HETATM   23  C18 UNL     1      29.404  -1.373  53.465  1.00  0.00     0.202 C 
ENDBRANCH  19  22
ENDBRANCH  12  13
ENDBRANCH  11  12
ENDBRANCH   1  11
BRANCH   3  24
HETATM   24  N3  UNL     1      21.911   4.507  52.137  1.00  0.00    -0.185 N 
HETATM   25  H9  UNL     1      21.742   5.349  52.747  1.00  0.00     0.184 HD
BRANCH  24  26
HETATM   26  C9  UNL     1      20.904   3.522  52.061  1.00  0.00     0.085 A 
HETATM   27  C10 UNL     1      19.590   3.656  51.572  1.00  0.00     0.170 A 
HETATM   28  N4  UNL     1      19.016   2.420  51.709  1.00  0.00    -0.183 NA
HETATM   29  N5  UNL     1      19.903   1.629  52.227  1.00  0.00    -0.283 N 
HETATM   30  C11 UNL     1      19.474   0.275  52.475  1.00  0.00     0.179 C 
HETATM   31  C12 UNL     1      21.086   2.162  52.488  1.00  0.00     0.143 A 
ENDBRANCH  24  26
ENDBRANCH   3  24
TORSDOF 7
ENDMDL
MODEL 2
REMARK VINA RESULT:      -8.2      3.221      6.965
REMARK  7 active torsions:
REMARK  status: ('A' for Active; 'I' for Inactive)
REMARK    1  A    between atoms: C2_2  and  C3_3 
REMARK       I    between atoms: C3_3  and  N1_5 
REMARK    2  A    between atoms: C5_7  and  C6_8 
REMARK    3  A    between atoms: C6_8  and  O2_9 
REMARK    4  A    between atoms: O2_9  and  C7_10 
REMARK    5  A    between atoms: C8_12  and  N3_13 
REMARK    6  A    between atoms: N3_13  and  C9_14 
REMARK    7  A    between atoms: C17_27  and  O3_28 
ROOT
HETATM    1  C7  UNL     1      24.777   1.437  52.305  1.00  0.00     0.199 A 
HETATM    2  N2  UNL     1      24.774   2.140  51.162  1.00  0.00    -0.037 NA
HETATM    3  C8  UNL     1      25.863   2.779  50.716  1.00  0.00     0.731 A 
HETATM    4  N6  UNL     1      27.035   2.736  51.415  1.00  0.00    -0.042 NA
HETATM    5  C13 UNL     1      27.029   2.024  52.565  1.00  0.00     0.180 A 
HETATM    6  C14 UNL     1      25.912   1.343  53.067  1.00  0.00     0.089 A 
HETATM    7  C15 UNL     1      26.790   0.925  54.198  1.00  0.00     0.050 A 
HETATM    8  C16 UNL     1      26.363   0.151  55.191  1.00  0.00     0.066 C 
HETATM    9  N7  UNL     1      27.860   1.627  53.640  1.00  0.00    -0.239 N 
HETATM   10 CL1  UNL     1      29.424   1.713  54.355  1.00  0.00     0.020 Cl
ENDROOT
BRANCH   1  11
HETATM   11  O2  UNL     1      23.701   0.858  52.660  1.00  0.00    -0.333 OA
BRANCH  11  12
HETATM   12  C6  UNL     1      22.790   0.026  53.033  1.00  0.00     0.186 C 
BRANCH  12  13
HETATM   13  C5  UNL     1      21.418   0.625  53.408  1.00  0.00     0.058 C 
HETATM   14  C4  UNL     1      20.380  -0.475  53.507  1.00  0.00     0.135 C 
HETATM   15  N1  UNL     1      19.429  -0.113  52.482  1.00  0.00    -0.346 N 
HETATM   16  C3  UNL     1      18.077  -0.602  52.426  1.00  0.00     0.239 C 
HETATM   17  C19 UNL     1      19.996   0.776  51.509  1.00  0.00     0.158 C 
HETATM   18  O1  UNL     1      17.300  -0.203  51.526  1.00  0.00    -0.269 OA
HETATM   19  C17 UNL     1      21.034   1.537  52.286  1.00  0.00     0.146 C 
BRANCH  16  20
HETATM   20  C2  UNL     1      17.555  -1.562  53.387  1.00  0.00     0.048 C 
HETATM   21  C1  UNL     1      17.604  -2.868  53.483  1.00  0.00     0.037 C 
ENDBRANCH  16  20
BRANCH  19  22
HETATM   22  O3  UNL     1      20.464   2.674  52.848  1.00  0.00    -0.389 OA
HETATM   23  C18 UNL     1      20.197   3.599  51.852  1.00  0.00     0.202 C 
ENDBRANCH  19  22
ENDBRANCH  12  13
ENDBRANCH  11  12
ENDBRANCH   1  11
BRANCH   3  24
HETATM   24  N3  UNL     1      25.909   3.507  49.499  1.00  0.00    -0.185 N 
HETATM   25  H9  UNL     1      25.627   2.942  48.655  1.00  0.00     0.184 HD
BRANCH  24  26
HETATM   26  C9  UNL     1      26.278   4.855  49.311  1.00  0.00     0.085 A 
HETATM   27  C10 UNL     1      25.643   6.010  49.808  1.00  0.00     0.170 A 
HETATM   28  N4  UNL     1      26.386   7.067  49.352  1.00  0.00    -0.183 NA
HETATM   29  N5  UNL     1      27.367   6.587  48.653  1.00  0.00    -0.283 N 
HETATM   30  C11 UNL     1      28.254   7.556  48.060  1.00  0.00     0.179 C 
HETATM   31  C12 UNL     1      27.424   5.268  48.548  1.00  0.00     0.143 A 
ENDBRANCH  24  26
ENDBRANCH   3  24
TORSDOF 7
ENDMDL
MODEL 3
REMARK VINA RESULT:      -8.1      3.157      8.095
REMARK  7 active torsions:
REMARK  status: ('A' for Active; 'I' for Inactive)
REMARK    1  A    between atoms: C2_2  and  C3_3 
REMARK       I    between atoms: C3_3  and  N1_5 
REMARK    2  A    between atoms: C5_7  and  C6_8 
REMARK    3  A    between atoms: C6_8  and  O2_9 
REMARK    4  A    between atoms: O2_9  and  C7_10 
REMARK    5  A    between atoms: C8_12  and  N3_13 
REMARK    6  A    between atoms: N3_13  and  C9_14 
REMARK    7  A    between atoms: C17_27  and  O3_28 
ROOT
HETATM    1  C7  UNL     1      23.099   2.191  52.681  1.00  0.00     0.199 A 
HETATM    2  N2  UNL     1      24.103   1.343  52.955  1.00  0.00    -0.037 NA
HETATM    3  C8  UNL     1      23.901   0.029  53.121  1.00  0.00     0.731 A 
HETATM    4  N6  UNL     1      22.649  -0.505  53.013  1.00  0.00    -0.042 NA
HETATM    5  C13 UNL     1      21.644   0.356  52.735  1.00  0.00     0.180 A 
HETATM    6  C14 UNL     1      21.812   1.736  52.557  1.00  0.00     0.089 A 
HETATM    7  C15 UNL     1      20.341   1.791  52.320  1.00  0.00     0.050 A 
HETATM    8  C16 UNL     1      19.700   2.922  52.041  1.00  0.00     0.066 C 
HETATM    9  N7  UNL     1      20.248   0.411  52.512  1.00  0.00    -0.239 N 
HETATM   10 CL1  UNL     1      18.769  -0.468  52.429  1.00  0.00     0.020 Cl
ENDROOT
BRANCH   1  11
HETATM   11  O2  UNL     1      23.373   3.425  52.538  1.00  0.00    -0.333 OA
BRANCH  11  12
HETATM   12  C6  UNL     1      23.350   4.700  52.354  1.00  0.00     0.186 C 
BRANCH  12  13
HETATM   13  C5  UNL     1      23.496   5.191  50.898  1.00  0.00     0.058 C 
HETATM   14  C4  UNL     1      24.906   4.938  50.403  1.00  0.00     0.135 C 
HETATM   15  N1  UNL     1      25.391   6.268  50.120  1.00  0.00    -0.346 N 
HETATM   16  C3  UNL     1      26.516   6.553  49.271  1.00  0.00     0.239 C 
HETATM   17  C19 UNL     1      24.633   7.277  50.804  1.00  0.00     0.158 C 
HETATM   18  O1  UNL     1      26.846   7.741  49.039  1.00  0.00    -0.269 OA
HETATM   19  C17 UNL     1      23.263   6.669  50.925  1.00  0.00     0.146 C 
BRANCH  16  20
HETATM   20  C2  UNL     1      27.312   5.503  48.652  1.00  0.00     0.048 C 
HETATM   21  C1  UNL     1      28.554   5.428  48.243  1.00  0.00     0.037 C 
ENDBRANCH  16  20
BRANCH  19  22
HETATM   22  O3  UNL     1      22.501   6.992  49.808  1.00  0.00    -0.389 OA
HETATM   23  C18 UNL     1      21.157   6.960  50.139  1.00  0.00     0.202 C 
ENDBRANCH  19  22
ENDBRANCH  12  13
ENDBRANCH  11  12
ENDBRANCH   1  11
BRANCH   3  24
HETATM   24  N3  UNL     1      24.938  -0.903  53.381  1.00  0.00    -0.185 N 
HETATM   25  H9  UNL     1      24.649  -1.908  53.247  1.00  0.00     0.184 HD
BRANCH  24  26
HETATM   26  C9  UNL     1      26.262  -0.634  53.785  1.00  0.00     0.085 A 
HETATM   27  C10 UNL     1      26.703  -0.001  54.963  1.00  0.00     0.170 A 
HETATM   28  N4  UNL     1      28.071   0.014  54.886  1.00  0.00    -0.183 NA
HETATM   29  N5  UNL     1      28.409  -0.555  53.772  1.00  0.00    -0.283 N 
HETATM   30  C11 UNL     1      29.823  -0.611  53.495  1.00  0.00     0.179 C 
HETATM   31  C12 UNL     1      27.419  -0.994  53.011  1.00  0.00     0.143 A 
ENDBRANCH  24  26
ENDBRANCH   3  24
TORSDOF 7
ENDMDL
MODEL 4
REMARK VINA RESULT:      -8.1      2.556      6.009
REMARK  7 active torsions:
REMARK  status: ('A' for Active; 'I' for Inactive)
REMARK    1  A    between atoms: C2_2  and  C3_3 
REMARK       I    between atoms: C3_3  and  N1_5 
REMARK    2  A    between atoms: C5_7  and  C6_8 
REMARK    3  A    between atoms: C6_8  and  O2_9 
REMARK    4  A    between atoms: O2_9  and  C7_10 
REMARK    5  A    between atoms: C8_12  and  N3_13 
REMARK    6  A    between atoms: N3_13  and  C9_14 
REMARK    7  A    between atoms: C17_27  and  O3_28 
ROOT
HETATM    1  C7  UNL     1      24.180   3.224  50.646  1.00  0.00     0.199 A 
HETATM    2  N2  UNL     1      24.685   2.148  51.266  1.00  0.00    -0.037 NA
HETATM    3  C8  UNL     1      25.989   1.844  51.220  1.00  0.00     0.731 A 
HETATM    4  N6  UNL     1      26.866   2.632  50.531  1.00  0.00    -0.042 NA
HETATM    5  C13 UNL     1      26.349   3.716  49.911  1.00  0.00     0.180 A 
HETATM    6  C14 UNL     1      24.992   4.068  49.933  1.00  0.00     0.089 A 
HETATM    7  C15 UNL     1      25.377   5.240  49.094  1.00  0.00     0.050 A 
HETATM    8  C16 UNL     1      24.497   6.145  48.679  1.00  0.00     0.066 C 
HETATM    9  N7  UNL     1      26.711   4.828  49.113  1.00  0.00    -0.239 N 
HETATM   10 CL1  UNL     1      27.982   5.667  48.308  1.00  0.00     0.020 Cl
ENDROOT
BRANCH   1  11
HETATM   11  O2  UNL     1      22.930   3.444  50.738  1.00  0.00    -0.333 OA
BRANCH  11  12
HETATM   12  C6  UNL     1      21.732   3.914  50.668  1.00  0.00     0.186 C 
BRANCH  12  13
HETATM   13  C5  UNL     1      20.764   3.509  51.799  1.00  0.00     0.058 C 
HETATM   14  C4  UNL     1      21.208   2.199  52.419  1.00  0.00     0.135 C 
HETATM   15  N1  UNL     1      20.091   1.323  52.154  1.00  0.00    -0.346 N 
HETATM   16  C3  UNL     1      19.841   0.097  52.863  1.00  0.00     0.239 C 
HETATM   17  C19 UNL     1      19.267   1.806  51.083  1.00  0.00     0.158 C 
HETATM   18  O1  UNL     1      18.821  -0.586  52.601  1.00  0.00    -0.269 OA
HETATM   19  C17 UNL     1      19.428   3.299  51.158  1.00  0.00     0.146 C 
BRANCH  16  20
HETATM   20  C2  UNL     1      20.737  -0.404  53.894  1.00  0.00     0.048 C 
HETATM   21  C1  UNL     1      21.046  -1.603  54.324  1.00  0.00     0.037 C 
ENDBRANCH  16  20
BRANCH  19  22
HETATM   22  O3  UNL     1      18.468   3.836  52.008  1.00  0.00    -0.389 OA
HETATM   23  C18 UNL     1      17.208   3.436  51.594  1.00  0.00     0.202 C 
ENDBRANCH  19  22
ENDBRANCH  12  13
ENDBRANCH  11  12
ENDBRANCH   1  11
BRANCH   3  24
HETATM   24  N3  UNL     1      26.566   0.732  51.886  1.00  0.00    -0.185 N 
HETATM   25  H9  UNL     1      27.287   0.221  51.312  1.00  0.00     0.184 HD
BRANCH  24  26
HETATM   26  C9  UNL     1      26.286   0.261  53.185  1.00  0.00     0.085 A 
HETATM   27  C10 UNL     1      27.086   0.361  54.340  1.00  0.00     0.170 A 
HETATM   28  N4  UNL     1      26.371  -0.243  55.340  1.00  0.00    -0.183 NA
HETATM   29  N5  UNL     1      25.255  -0.660  54.830  1.00  0.00    -0.283 N 
HETATM   30  C11 UNL     1      24.369  -1.355  55.730  1.00  0.00     0.179 C 
HETATM   31  C12 UNL     1      25.072  -0.421  53.541  1.00  0.00     0.143 A 
ENDBRANCH  24  26
ENDBRANCH   3  24
TORSDOF 7
ENDMDL
MODEL 5
REMARK VINA RESULT:      -8.0      2.273      5.382
REMARK  7 active torsions:
REMARK  status: ('A' for Active; 'I' for Inactive)
REMARK    1  A    between atoms: C2_2  and  C3_3 
REMARK       I    between atoms: C3_3  and  N1_5 
REMARK    2  A    between atoms: C5_7  and  C6_8 
REMARK    3  A    between atoms: C6_8  and  O2_9 
REMARK    4  A    between atoms: O2_9  and  C7_10 
REMARK    5  A    between atoms: C8_12  and  N3_13 
REMARK    6  A    between atoms: N3_13  and  C9_14 
REMARK    7  A    between atoms: C17_27  and  O3_28 
ROOT
HETATM    1  C7  UNL     1      25.620   3.377  50.481  1.00  0.00     0.199 A 
HETATM    2  N2  UNL     1      26.267   4.379  49.867  1.00  0.00    -0.037 NA
HETATM    3  C8  UNL     1      25.648   5.216  49.023  1.00  0.00     0.731 A 
HETATM    4  N6  UNL     1      24.316   5.080  48.755  1.00  0.00    -0.042 NA
HETATM    5  C13 UNL     1      23.672   4.069  49.380  1.00  0.00     0.180 A 
HETATM    6  C14 UNL     1      24.282   3.171  50.267  1.00  0.00     0.089 A 
HETATM    7  C15 UNL     1      22.938   2.538  50.404  1.00  0.00     0.050 A 
HETATM    8  C16 UNL     1      22.715   1.493  51.195  1.00  0.00     0.066 C 
HETATM    9  N7  UNL     1      22.399   3.465  49.510  1.00  0.00    -0.239 N 
HETATM   10 CL1  UNL     1      20.746   3.475  49.026  1.00  0.00     0.020 Cl
ENDROOT
BRANCH   1  11
HETATM   11  O2  UNL     1      26.279   2.626  51.268  1.00  0.00    -0.333 OA
BRANCH  11  12
HETATM   12  C6  UNL     1      27.143   2.098  52.066  1.00  0.00     0.186 C 
BRANCH  12  13
HETATM   13  C5  UNL     1      26.951   0.604  52.402  1.00  0.00     0.058 C 
HETATM   14  C4  UNL     1      25.531   0.356  52.873  1.00  0.00     0.135 C 
HETATM   15  N1  UNL     1      25.718  -0.125  54.221  1.00  0.00    -0.346 N 
HETATM   16  C3  UNL     1      24.729  -0.862  54.960  1.00  0.00     0.239 C 
HETATM   17  C19 UNL     1      27.002   0.238  54.751  1.00  0.00     0.158 C 
HETATM   18  O1  UNL     1      24.987  -1.284  56.113  1.00  0.00    -0.269 OA
HETATM   19  C17 UNL     1      27.883   0.302  53.534  1.00  0.00     0.146 C 
BRANCH  16  20
HETATM   20  C2  UNL     1      23.407  -1.149  54.421  1.00  0.00     0.048 C 
HETATM   21  C1  UNL     1      22.242  -0.556  54.511  1.00  0.00     0.037 C 
ENDBRANCH  16  20
BRANCH  19  22
HETATM   22  O3  UNL     1      28.444  -0.946  53.290  1.00  0.00    -0.389 OA
HETATM   23  C18 UNL     1      29.815  -0.880  53.474  1.00  0.00     0.202 C 
ENDBRANCH  19  22
ENDBRANCH  12  13
ENDBRANCH  11  12
ENDBRANCH   1  11
BRANCH   3  24
HETATM   24  N3  UNL     1      26.289   6.304  48.378  1.00  0.00    -0.185 N 
HETATM   25  H9  UNL     1      26.262   6.249  47.325  1.00  0.00     0.184 HD
BRANCH  24  26
HETATM   26  C9  UNL     1      26.933   7.407  48.975  1.00  0.00     0.085 A 
HETATM   27  C10 UNL     1      26.472   8.219  50.029  1.00  0.00     0.170 A 
HETATM   28  N4  UNL     1      27.459   9.144  50.243  1.00  0.00    -0.183 NA
HETATM   29  N5  UNL     1      28.414   8.905  49.400  1.00  0.00    -0.283 N 
HETATM   30  C11 UNL     1      29.543   9.800  49.451  1.00  0.00     0.179 C 
HETATM   31  C12 UNL     1      28.229   7.885  48.577  1.00  0.00     0.143 A 
ENDBRANCH  24  26
ENDBRANCH   3  24
TORSDOF 7
ENDMDL
MODEL 6
REMARK VINA RESULT:      -7.9      3.360      7.295
REMARK  7 active torsions:
REMARK  status: ('A' for Active; 'I' for Inactive)
REMARK    1  A    between atoms: C2_2  and  C3_3 
REMARK       I    between atoms: C3_3  and  N1_5 
REMARK    2  A    between atoms: C5_7  and  C6_8 
REMARK    3  A    between atoms: C6_8  and  O2_9 
REMARK    4  A    between atoms: O2_9  and  C7_10 
REMARK    5  A    between atoms: C8_12  and  N3_13 
REMARK    6  A    between atoms: N3_13  and  C9_14 
REMARK    7  A    between atoms: C17_27  and  O3_28 
ROOT
HETATM    1  C7  UNL     1      27.306   4.905  48.974  1.00  0.00     0.199 A 
HETATM    2  N2  UNL     1      28.568   5.085  48.559  1.00  0.00    -0.037 NA
HETATM    3  C8  UNL     1      28.950   6.181  47.890  1.00  0.00     0.731 A 
HETATM    4  N6  UNL     1      28.055   7.172  47.604  1.00  0.00    -0.042 NA
HETATM    5  C13 UNL     1      26.785   6.983  48.028  1.00  0.00     0.180 A 
HETATM    6  C14 UNL     1      26.345   5.851  48.728  1.00  0.00     0.089 A 
HETATM    7  C15 UNL     1      25.001   6.498  48.746  1.00  0.00     0.050 A 
HETATM    8  C16 UNL     1      23.943   5.940  49.325  1.00  0.00     0.066 C 
HETATM    9  N7  UNL     1      25.508   7.594  48.045  1.00  0.00    -0.239 N 
HETATM   10 CL1  UNL     1      24.557   8.951  47.575  1.00  0.00     0.020 Cl
ENDROOT
BRANCH   1  11
HETATM   11  O2  UNL     1      27.024   3.836  49.604  1.00  0.00    -0.333 OA
BRANCH  11  12
HETATM   12  C6  UNL     1      26.475   2.775  50.089  1.00  0.00     0.186 C 
BRANCH  12  13
HETATM   13  C5  UNL     1      26.335   2.710  51.624  1.00  0.00     0.058 C 
HETATM   14  C4  UNL     1      27.382   1.777  52.202  1.00  0.00     0.135 C 
HETATM   15  N1  UNL     1      26.586   0.746  52.826  1.00  0.00    -0.346 N 
HETATM   16  C3  UNL     1      27.077  -0.152  53.835  1.00  0.00     0.239 C 
HETATM   17  C19 UNL     1      25.249   0.707  52.305  1.00  0.00     0.158 C 
HETATM   18  O1  UNL     1      26.306  -0.992  54.360  1.00  0.00    -0.269 OA
HETATM   19  C17 UNL     1      24.983   2.131  51.901  1.00  0.00     0.146 C 
BRANCH  16  20
HETATM   20  C2  UNL     1      28.460  -0.136  54.288  1.00  0.00     0.048 C 
HETATM   21  C1  UNL     1      29.563  -0.695  53.856  1.00  0.00     0.037 C 
ENDBRANCH  16  20
BRANCH  19  22
HETATM   22  O3  UNL     1      24.441   2.832  52.972  1.00  0.00    -0.389 OA
HETATM   23  C18 UNL     1      23.691   3.895  52.497  1.00  0.00     0.202 C 
ENDBRANCH  19  22
ENDBRANCH  12  13
ENDBRANCH  11  12
ENDBRANCH   1  11
BRANCH   3  24
HETATM   24  N3  UNL     1      30.280   6.422  47.461  1.00  0.00    -0.185 N 
HETATM   25  H9  UNL     1      30.382   7.280  46.856  1.00  0.00     0.184 HD
BRANCH  24  26
HETATM   26  C9  UNL     1      31.433   5.664  47.748  1.00  0.00     0.085 A 
HETATM   27  C10 UNL     1      32.554   6.039  48.515  1.00  0.00     0.170 A 
HETATM   28  N4  UNL     1      33.394   4.957  48.498  1.00  0.00    -0.183 NA
HETATM   29  N5  UNL     1      32.827   4.029  47.792  1.00  0.00    -0.283 N 
HETATM   30  C11 UNL     1      33.577   2.808  47.634  1.00  0.00     0.179 C 
HETATM   31  C12 UNL     1      31.640   4.320  47.282  1.00  0.00     0.143 A 
ENDBRANCH  24  26
ENDBRANCH   3  24
TORSDOF 7
ENDMDL
MODEL 7
REMARK VINA RESULT:      -7.9      3.503      8.053
REMARK  7 active torsions:
REMARK  status: ('A' for Active; 'I' for Inactive)
REMARK    1  A    between atoms: C2_2  and  C3_3 
REMARK       I    between atoms: C3_3  and  N1_5 
REMARK    2  A    between atoms: C5_7  and  C6_8 
REMARK    3  A    between atoms: C6_8  and  O2_9 
REMARK    4  A    between atoms: O2_9  and  C7_10 
REMARK    5  A    between atoms: C8_12  and  N3_13 
REMARK    6  A    between atoms: N3_13  and  C9_14 
REMARK    7  A    between atoms: C17_27  and  O3_28 
ROOT
HETATM    1  C7  UNL     1      23.254   2.138  51.202  1.00  0.00     0.199 A 
HETATM    2  N2  UNL     1      24.494   2.553  51.500  1.00  0.00    -0.037 NA
HETATM    3  C8  UNL     1      25.147   2.123  52.588  1.00  0.00     0.731 A 
HETATM    4  N6  UNL     1      24.567   1.233  53.445  1.00  0.00    -0.042 NA
HETATM    5  C13 UNL     1      23.317   0.820  53.136  1.00  0.00     0.180 A 
HETATM    6  C14 UNL     1      22.600   1.245  52.010  1.00  0.00     0.089 A 
HETATM    7  C15 UNL     1      21.504   0.351  52.484  1.00  0.00     0.050 A 
HETATM    8  C16 UNL     1      20.357   0.211  51.828  1.00  0.00     0.066 C 
HETATM    9  N7  UNL     1      22.276  -0.027  53.585  1.00  0.00    -0.239 N 
HETATM   10 CL1  UNL     1      21.740  -1.131  54.794  1.00  0.00     0.020 Cl
ENDROOT
BRANCH   1  11
HETATM   11  O2  UNL     1      22.702   2.593  50.149  1.00  0.00    -0.333 OA
BRANCH  11  12
HETATM   12  C6  UNL     1      21.953   3.185  49.283  1.00  0.00     0.186 C 
BRANCH  12  13
HETATM   13  C5  UNL     1      22.367   4.613  48.872  1.00  0.00     0.058 C 
HETATM   14  C4  UNL     1      23.870   4.686  48.688  1.00  0.00     0.135 C 
HETATM   15  N1  UNL     1      24.271   5.651  49.684  1.00  0.00    -0.346 N 
HETATM   16  C3  UNL     1      25.521   6.361  49.664  1.00  0.00     0.239 C 
HETATM   17  C19 UNL     1      23.283   5.806  50.714  1.00  0.00     0.158 C 
HETATM   18  O1  UNL     1      25.774   7.218  50.544  1.00  0.00    -0.269 OA
HETATM   19  C17 UNL     1      21.988   5.507  50.012  1.00  0.00     0.146 C 
BRANCH  16  20
HETATM   20  C2  UNL     1      26.534   6.125  48.646  1.00  0.00     0.048 C 
HETATM   21  C1  UNL     1      27.579   5.338  48.570  1.00  0.00     0.037 C 
ENDBRANCH  16  20
BRANCH  19  22
HETATM   22  O3  UNL     1      21.464   6.675  49.469  1.00  0.00    -0.389 OA
HETATM   23  C18 UNL     1      21.348   7.634  50.461  1.00  0.00     0.202 C 
ENDBRANCH  19  22
ENDBRANCH  12  13
ENDBRANCH  11  12
ENDBRANCH   1  11
BRANCH   3  24
HETATM   24  N3  UNL     1      26.469   2.514  52.922  1.00  0.00    -0.185 N 
HETATM   25  H9  UNL     1      26.614   3.558  52.931  1.00  0.00     0.184 HD
BRANCH  24  26
HETATM   26  C9  UNL     1      27.566   1.683  53.231  1.00  0.00     0.085 A 
HETATM   27  C10 UNL     1      28.798   2.045  53.808  1.00  0.00     0.170 A 
HETATM   28  N4  UNL     1      29.517   0.883  53.906  1.00  0.00    -0.183 NA
HETATM   29  N5  UNL     1      28.783  -0.076  53.435  1.00  0.00    -0.283 N 
HETATM   30  C11 UNL     1      29.383  -1.386  53.427  1.00  0.00     0.179 C 
HETATM   31  C12 UNL     1      27.582   0.265  52.995  1.00  0.00     0.143 A 
ENDBRANCH  24  26
ENDBRANCH   3  24
TORSDOF 7
ENDMDL
MODEL 8
REMARK VINA RESULT:      -7.5      3.116      6.635
REMARK  7 active torsions:
REMARK  status: ('A' for Active; 'I' for Inactive)
REMARK    1  A    between atoms: C2_2  and  C3_3 
REMARK       I    between atoms: C3_3  and  N1_5 
REMARK    2  A    between atoms: C5_7  and  C6_8 
REMARK    3  A    between atoms: C6_8  and  O2_9 
REMARK    4  A    between atoms: O2_9  and  C7_10 
REMARK    5  A    between atoms: C8_12  and  N3_13 
REMARK    6  A    between atoms: N3_13  and  C9_14 
REMARK    7  A    between atoms: C17_27  and  O3_28 
ROOT
HETATM    1  C7  UNL     1      24.542   2.077  51.423  1.00  0.00     0.199 A 
HETATM    2  N2  UNL     1      24.889   3.090  50.615  1.00  0.00    -0.037 NA
HETATM    3  C8  UNL     1      26.165   3.465  50.450  1.00  0.00     0.731 A 
HETATM    4  N6  UNL     1      27.174   2.820  51.105  1.00  0.00    -0.042 NA
HETATM    5  C13 UNL     1      26.815   1.799  51.916  1.00  0.00     0.180 A 
HETATM    6  C14 UNL     1      25.494   1.377  52.118  1.00  0.00     0.089 A 
HETATM    7  C15 UNL     1      26.061   0.345  53.034  1.00  0.00     0.050 A 
HETATM    8  C16 UNL     1      25.305  -0.544  53.669  1.00  0.00     0.066 C 
HETATM    9  N7  UNL     1      27.350   0.820  52.787  1.00  0.00    -0.239 N 
HETATM   10 CL1  UNL     1      28.767   0.160  53.511  1.00  0.00     0.020 Cl
ENDROOT
BRANCH   1  11
HETATM   11  O2  UNL     1      23.309   1.783  51.526  1.00  0.00    -0.333 OA
BRANCH  11  12
HETATM   12  C6  UNL     1      22.026   1.705  51.422  1.00  0.00     0.186 C 
BRANCH  12  13
HETATM   13  C5  UNL     1      21.403   0.303  51.593  1.00  0.00     0.058 C 
HETATM   14  C4  UNL     1      19.935   0.338  51.218  1.00  0.00     0.135 C 
HETATM   15  N1  UNL     1      19.279  -0.030  52.451  1.00  0.00    -0.346 N 
HETATM   16  C3  UNL     1      17.929  -0.519  52.531  1.00  0.00     0.239 C 
HETATM   17  C19 UNL     1      20.124   0.170  53.593  1.00  0.00     0.158 C 
HETATM   18  O1  UNL     1      17.447  -0.860  53.639  1.00  0.00    -0.269 OA
HETATM   19  C17 UNL     1      21.511  -0.032  53.048  1.00  0.00     0.146 C 
BRANCH  16  20
HETATM   20  C2  UNL     1      17.072  -0.639  51.361  1.00  0.00     0.048 C 
HETATM   21  C1  UNL     1      15.881  -1.147  51.157  1.00  0.00     0.037 C 
ENDBRANCH  16  20
BRANCH  19  22
HETATM   22  O3  UNL     1      21.866  -1.373  53.142  1.00  0.00    -0.389 OA
HETATM   23  C18 UNL     1      21.818  -1.772  54.467  1.00  0.00     0.202 C 
ENDBRANCH  19  22
ENDBRANCH  12  13
ENDBRANCH  11  12
ENDBRANCH   1  11
BRANCH   3  24
HETATM   24  N3  UNL     1      26.576   4.510  49.583  1.00  0.00    -0.185 N 
HETATM   25  H9  UNL     1      27.344   4.232  48.917  1.00  0.00     0.184 HD
BRANCH  24  26
HETATM   26  C9  UNL     1      26.081   5.829  49.522  1.00  0.00     0.085 A 
HETATM   27  C10 UNL     1      25.194   6.469  50.409  1.00  0.00     0.170 A 
HETATM   28  N4  UNL     1      25.029   7.737  49.919  1.00  0.00    -0.183 NA
HETATM   29  N5  UNL     1      25.748   7.841  48.845  1.00  0.00    -0.283 N 
HETATM   30  C11 UNL     1      25.684   9.109  48.162  1.00  0.00     0.179 C 
HETATM   31  C12 UNL     1      26.436   6.767  48.492  1.00  0.00     0.143 A 
ENDBRANCH  24  26
ENDBRANCH   3  24
TORSDOF 7
ENDMDL
MODEL 9
REMARK VINA RESULT:      -7.4      3.232      6.921
REMARK  7 active torsions:
REMARK  status: ('A' for Active; 'I' for Inactive)
REMARK    1  A    between atoms: C2_2  and  C3_3 
REMARK       I    between atoms: C3_3  and  N1_5 
REMARK    2  A    between atoms: C5_7  and  C6_8 
REMARK    3  A    between atoms: C6_8  and  O2_9 
REMARK    4  A    between atoms: O2_9  and  C7_10 
REMARK    5  A    between atoms: C8_12  and  N3_13 
REMARK    6  A    between atoms: N3_13  and  C9_14 
REMARK    7  A    between atoms: C17_27  and  O3_28 
ROOT
HETATM    1  C7  UNL     1      23.643   2.209  52.520  1.00  0.00     0.199 A 
HETATM    2  N2  UNL     1      22.446   1.720  52.878  1.00  0.00    -0.037 NA
HETATM    3  C8  UNL     1      22.275   0.439  53.231  1.00  0.00     0.731 A 
HETATM    4  N6  UNL     1      23.329  -0.429  53.242  1.00  0.00    -0.042 NA
HETATM    5  C13 UNL     1      24.532   0.073  52.881  1.00  0.00     0.180 A 
HETATM    6  C14 UNL     1      24.752   1.404  52.504  1.00  0.00     0.089 A 
HETATM    7  C15 UNL     1      26.183   1.021  52.329  1.00  0.00     0.050 A 
HETATM    8  C16 UNL     1      27.116   1.887  51.946  1.00  0.00     0.066 C 
HETATM    9  N7  UNL     1      25.890  -0.289  52.713  1.00  0.00    -0.239 N 
HETATM   10 CL1  UNL     1      27.063  -1.547  52.791  1.00  0.00     0.020 Cl
ENDROOT
BRANCH   1  11
HETATM   11  O2  UNL     1      23.721   3.437  52.199  1.00  0.00    -0.333 OA
BRANCH  11  12
HETATM   12  C6  UNL     1      23.964   4.573  51.640  1.00  0.00     0.186 C 
BRANCH  12  13
HETATM   13  C5  UNL     1      24.287   4.545  50.131  1.00  0.00     0.058 C 
HETATM   14  C4  UNL     1      25.782   4.683  49.917  1.00  0.00     0.135 C 
HETATM   15  N1  UNL     1      25.888   5.910  49.164  1.00  0.00    -0.346 N 
HETATM   16  C3  UNL     1      27.037   6.281  48.382  1.00  0.00     0.239 C 
HETATM   17  C19 UNL     1      24.720   6.732  49.304  1.00  0.00     0.158 C 
HETATM   18  O1  UNL     1      27.031   7.346  47.720  1.00  0.00    -0.269 OA
HETATM   19  C17 UNL     1      23.613   5.740  49.533  1.00  0.00     0.146 C 
BRANCH  16  20
HETATM   20  C2  UNL     1      28.237   5.459  48.322  1.00  0.00     0.048 C 
HETATM   21  C1  UNL     1      29.518   5.715  48.425  1.00  0.00     0.037 C 
ENDBRANCH  16  20
BRANCH  19  22
HETATM   22  O3  UNL     1      23.071   5.347  48.314  1.00  0.00    -0.389 OA
HETATM   23  C18 UNL     1      21.776   5.824  48.208  1.00  0.00     0.202 C 
ENDBRANCH  19  22
ENDBRANCH  12  13
ENDBRANCH  11  12
ENDBRANCH   1  11
BRANCH   3  24
HETATM   24  N3  UNL     1      21.034  -0.108  53.644  1.00  0.00    -0.185 N 
HETATM   25  H9  UNL     1      21.028  -0.440  54.645  1.00  0.00     0.184 HD
BRANCH  24  26
HETATM   26  C9  UNL     1      19.854  -0.248  52.885  1.00  0.00     0.085 A 
HETATM   27  C10 UNL     1      19.575   0.268  51.605  1.00  0.00     0.170 A 
HETATM   28  N4  UNL     1      18.304  -0.147  51.306  1.00  0.00    -0.183 NA
HETATM   29  N5  UNL     1      17.871  -0.843  52.310  1.00  0.00    -0.283 N 
HETATM   30  C11 UNL     1      16.526  -1.349  52.195  1.00  0.00     0.179 C 
HETATM   31  C12 UNL     1      18.703  -0.986  53.330  1.00  0.00     0.143 A 
ENDBRANCH  24  26
ENDBRANCH   3  24
TORSDOF 7
ENDMDL
