MODEL 1
REMARK VINA RESULT:      -6.4      0.000      0.000
REMARK  3 active torsions:
REMARK  status: ('A' for Active; 'I' for Inactive)
REMARK    1  A    between atoms: O1_2  and  C2_3 
REMARK    2  A    between atoms: C3_4  and  C4_5 
REMARK    3  A    between atoms: C7_8  and  O2_9 
ROOT
HETATM    1  C4  UNL     1      23.508   1.970  52.842  1.00  0.00     0.080 C 
HETATM    2  C5  UNL     1      22.702   2.861  51.878  1.00  0.00    -0.030 C 
HETATM    3  C6  UNL     1      23.020   2.732  50.547  1.00  0.00     0.019 C 
HETATM    4  C7  UNL     1      22.432   1.332  50.354  1.00  0.00     0.179 C 
HETATM    5  C9  UNL     1      21.829   0.921  51.692  1.00  0.00    -0.002 C 
HETATM    6  C10 UNL     1      20.610   0.764  52.261  1.00  0.00     0.010 C 
HETATM    7  C11 UNL     1      19.684   1.961  52.281  1.00  0.00     0.195 C 
HETATM    8  N1  UNL     1      20.387   3.198  52.564  1.00  0.00    -0.296 NA
HETATM    9  C12 UNL     1      21.559   3.766  52.301  1.00  0.00     0.118 C 
HETATM   10  S1  UNL     1      19.736  -0.582  53.084  1.00  0.00    -0.105 SA
HETATM   11  C13 UNL     1      20.844  -1.326  54.324  1.00  0.00     0.253 C 
HETATM   12  O3  UNL     1      22.199  -1.223  53.988  1.00  0.00    -0.352 OA
HETATM   13  C14 UNL     1      23.105  -0.213  53.800  1.00  0.00     0.144 C 
HETATM   14  C15 UNL     1      22.746   0.647  52.847  1.00  0.00    -0.014 C 
ENDROOT
BRANCH   1  15
HETATM   15  C3  UNL     1      24.881   1.743  52.463  1.00  0.00     0.011 C 
HETATM   16  C2  UNL     1      25.915   2.184  53.088  1.00  0.00     0.131 C 
BRANCH  16  17
HETATM   17  O1  UNL     1      27.209   1.937  52.682  1.00  0.00    -0.368 OA
HETATM   18  C1  UNL     1      28.372   2.268  53.409  1.00  0.00     0.208 C 
ENDBRANCH  16  17
ENDBRANCH   1  15
BRANCH   4  19
HETATM   19  O2  UNL     1      21.568   1.264  49.314  1.00  0.00    -0.382 OA
HETATM   20  C8  UNL     1      22.009   1.915  48.163  1.00  0.00     0.202 C 
ENDBRANCH   4  19
TORSDOF 3
ENDMDL
MODEL 2
REMARK VINA RESULT:      -6.4      2.100      4.535
REMARK  3 active torsions:
REMARK  status: ('A' for Active; 'I' for Inactive)
REMARK    1  A    between atoms: O1_2  and  C2_3 
REMARK    2  A    between atoms: C3_4  and  C4_5 
REMARK    3  A    between atoms: C7_8  and  O2_9 
ROOT
HETATM    1  C4  UNL     1      22.348   1.735  52.667  1.00  0.00     0.080 C 
HETATM    2  C5  UNL     1      23.480   2.761  52.866  1.00  0.00    -0.030 C 
HETATM    3  C6  UNL     1      24.719   2.231  53.132  1.00  0.00     0.019 C 
HETATM    4  C7  UNL     1      24.971   1.651  51.738  1.00  0.00     0.179 C 
HETATM    5  C9  UNL     1      23.761   2.012  50.887  1.00  0.00    -0.002 C 
HETATM    6  C10 UNL     1      23.430   2.859  49.882  1.00  0.00     0.010 C 
HETATM    7  C11 UNL     1      23.632   4.341  50.117  1.00  0.00     0.195 C 
HETATM    8  N1  UNL     1      23.264   4.742  51.462  1.00  0.00    -0.296 NA
HETATM    9  C12 UNL     1      23.317   4.261  52.699  1.00  0.00     0.118 C 
HETATM   10  S1  UNL     1      22.743   2.686  48.223  1.00  0.00    -0.105 SA
HETATM   11  C13 UNL     1      21.288   1.593  48.307  1.00  0.00     0.253 C 
HETATM   12  O3  UNL     1      21.361   0.651  49.339  1.00  0.00    -0.352 OA
HETATM   13  C14 UNL     1      21.408   0.675  50.708  1.00  0.00     0.144 C 
HETATM   14  C15 UNL     1      22.442   1.365  51.189  1.00  0.00    -0.014 C 
ENDROOT
BRANCH   1  15
HETATM   15  C3  UNL     1      22.449   0.547  53.477  1.00  0.00     0.011 C 
HETATM   16  C2  UNL     1      21.557   0.123  54.302  1.00  0.00     0.131 C 
BRANCH  16  17
HETATM   17  O1  UNL     1      21.703  -1.023  55.054  1.00  0.00    -0.368 OA
HETATM   18  C1  UNL     1      22.932  -1.582  55.462  1.00  0.00     0.208 C 
ENDBRANCH  16  17
ENDBRANCH   1  15
BRANCH   4  19
HETATM   19  O2  UNL     1      26.155   2.045  51.211  1.00  0.00    -0.382 OA
HETATM   20  C8  UNL     1      27.188   2.144  52.142  1.00  0.00     0.202 C 
ENDBRANCH   4  19
TORSDOF 3
ENDMDL
MODEL 3
REMARK VINA RESULT:      -6.2      1.934      2.250
REMARK  3 active torsions:
REMARK  status: ('A' for Active; 'I' for Inactive)
REMARK    1  A    between atoms: O1_2  and  C2_3 
REMARK    2  A    between atoms: C3_4  and  C4_5 
REMARK    3  A    between atoms: C7_8  and  O2_9 
ROOT
HETATM    1  C4  UNL     1      21.903   0.753  53.162  1.00  0.00     0.080 C 
HETATM    2  C5  UNL     1      21.786   1.897  52.136  1.00  0.00    -0.030 C 
HETATM    3  C6  UNL     1      22.407   1.678  50.930  1.00  0.00     0.019 C 
HETATM    4  C7  UNL     1      21.439   0.607  50.420  1.00  0.00     0.179 C 
HETATM    5  C9  UNL     1      20.370   0.435  51.492  1.00  0.00    -0.002 C 
HETATM    6  C10 UNL     1      19.067   0.743  51.698  1.00  0.00     0.010 C 
HETATM    7  C11 UNL     1      18.668   2.202  51.620  1.00  0.00     0.195 C 
HETATM    8  N1  UNL     1      19.653   3.076  52.226  1.00  0.00    -0.296 NA
HETATM    9  C12 UNL     1      20.973   3.161  52.352  1.00  0.00     0.118 C 
HETATM   10  S1  UNL     1      17.570  -0.184  52.091  1.00  0.00    -0.105 SA
HETATM   11  C13 UNL     1      17.928  -1.310  53.478  1.00  0.00     0.253 C 
HETATM   12  O3  UNL     1      19.264  -1.723  53.524  1.00  0.00    -0.352 OA
HETATM   13  C14 UNL     1      20.486  -1.128  53.705  1.00  0.00     0.144 C 
HETATM   14  C15 UNL     1      20.751  -0.183  52.805  1.00  0.00    -0.014 C 
ENDROOT
BRANCH   1  15
HETATM   15  C3  UNL     1      23.150   0.029  53.131  1.00  0.00     0.011 C 
HETATM   16  C2  UNL     1      23.932  -0.161  54.134  1.00  0.00     0.131 C 
BRANCH  16  17
HETATM   17  O1  UNL     1      25.116  -0.864  54.050  1.00  0.00    -0.368 OA
HETATM   18  C1  UNL     1      25.982  -0.876  52.938  1.00  0.00     0.208 C 
ENDBRANCH  16  17
ENDBRANCH   1  15
BRANCH   4  19
HETATM   19  O2  UNL     1      20.948   0.886  49.189  1.00  0.00    -0.382 OA
HETATM   20  C8  UNL     1      21.854   1.529  48.347  1.00  0.00     0.202 C 
ENDBRANCH   4  19
TORSDOF 3
ENDMDL
MODEL 4
REMARK VINA RESULT:      -6.2      1.793      1.911
REMARK  3 active torsions:
REMARK  status: ('A' for Active; 'I' for Inactive)
REMARK    1  A    between atoms: O1_2  and  C2_3 
REMARK    2  A    between atoms: C3_4  and  C4_5 
REMARK    3  A    between atoms: C7_8  and  O2_9 
ROOT
HETATM    1  C4  UNL     1      23.797   2.662  51.656  1.00  0.00     0.080 C 
HETATM    2  C5  UNL     1      22.491   3.208  51.046  1.00  0.00    -0.030 C 
HETATM    3  C6  UNL     1      22.305   2.941  49.711  1.00  0.00     0.019 C 
HETATM    4  C7  UNL     1      22.057   1.438  49.859  1.00  0.00     0.179 C 
HETATM    5  C9  UNL     1      22.128   1.125  51.349  1.00  0.00    -0.002 C 
HETATM    6  C10 UNL     1      21.295   0.814  52.371  1.00  0.00     0.010 C 
HETATM    7  C11 UNL     1      20.177   1.784  52.688  1.00  0.00     0.195 C 
HETATM    8  N1  UNL     1      20.601   3.167  52.586  1.00  0.00    -0.296 NA
HETATM    9  C12 UNL     1      21.405   3.914  51.837  1.00  0.00     0.118 C 
HETATM   10  S1  UNL     1      21.161  -0.538  53.558  1.00  0.00    -0.105 SA
HETATM   11  C13 UNL     1      22.803  -0.836  54.289  1.00  0.00     0.253 C 
HETATM   12  O3  UNL     1      23.859  -0.512  53.429  1.00  0.00    -0.352 OA
HETATM   13  C14 UNL     1      24.344   0.620  52.829  1.00  0.00     0.144 C 
HETATM   14  C15 UNL     1      23.449   1.229  52.050  1.00  0.00    -0.014 C 
ENDROOT
BRANCH   1  15
HETATM   15  C3  UNL     1      24.934   2.664  50.770  1.00  0.00     0.011 C 
HETATM   16  C2  UNL     1      25.859   3.558  50.737  1.00  0.00     0.131 C 
BRANCH  16  17
HETATM   17  O1  UNL     1      26.928   3.512  49.868  1.00  0.00    -0.368 OA
HETATM   18  C1  UNL     1      27.256   4.505  48.922  1.00  0.00     0.208 C 
ENDBRANCH  16  17
ENDBRANCH   1  15
BRANCH   4  19
HETATM   19  O2  UNL     1      20.911   1.032  49.263  1.00  0.00    -0.382 OA
HETATM   20  C8  UNL     1      20.108   2.076  48.805  1.00  0.00     0.202 C 
ENDBRANCH   4  19
TORSDOF 3
ENDMDL
MODEL 5
REMARK VINA RESULT:      -5.9      2.615      3.126
REMARK  3 active torsions:
REMARK  status: ('A' for Active; 'I' for Inactive)
REMARK    1  A    between atoms: O1_2  and  C2_3 
REMARK    2  A    between atoms: C3_4  and  C4_5 
REMARK    3  A    between atoms: C7_8  and  O2_9 
ROOT
HETATM    1  C4  UNL     1      25.038   3.669  50.857  1.00  0.00     0.080 C 
HETATM    2  C5  UNL     1      23.726   4.362  50.443  1.00  0.00    -0.030 C 
HETATM    3  C6  UNL     1      23.352   4.187  49.132  1.00  0.00     0.019 C 
HETATM    4  C7  UNL     1      22.980   2.706  49.246  1.00  0.00     0.179 C 
HETATM    5  C9  UNL     1      23.203   2.308  50.700  1.00  0.00    -0.002 C 
HETATM    6  C10 UNL     1      22.476   2.018  51.805  1.00  0.00     0.010 C 
HETATM    7  C11 UNL     1      21.504   3.067  52.303  1.00  0.00     0.195 C 
HETATM    8  N1  UNL     1      22.045   4.409  52.207  1.00  0.00    -0.296 NA
HETATM    9  C12 UNL     1      22.819   5.120  51.395  1.00  0.00     0.118 C 
HETATM   10  S1  UNL     1      22.359   0.621  52.941  1.00  0.00    -0.105 SA
HETATM   11  C13 UNL     1      24.042   0.136  53.443  1.00  0.00     0.253 C 
HETATM   12  O3  UNL     1      25.010   0.409  52.470  1.00  0.00    -0.352 OA
HETATM   13  C14 UNL     1      25.525   1.524  51.862  1.00  0.00     0.144 C 
HETATM   14  C15 UNL     1      24.605   2.253  51.231  1.00  0.00    -0.014 C 
ENDROOT
BRANCH   1  15
HETATM   15  C3  UNL     1      26.052   3.616  49.834  1.00  0.00     0.011 C 
HETATM   16  C2  UNL     1      26.869   4.564  49.538  1.00  0.00     0.131 C 
BRANCH  16  17
HETATM   17  O1  UNL     1      27.824   4.462  48.548  1.00  0.00    -0.368 OA
HETATM   18  C1  UNL     1      28.803   5.433  48.252  1.00  0.00     0.208 C 
ENDBRANCH  16  17
ENDBRANCH   1  15
BRANCH   4  19
HETATM   19  O2  UNL     1      21.736   2.439  48.784  1.00  0.00    -0.382 OA
HETATM   20  C8  UNL     1      21.472   1.081  48.611  1.00  0.00     0.202 C 
ENDBRANCH   4  19
TORSDOF 3
ENDMDL
MODEL 6
REMARK VINA RESULT:      -5.9      2.784      4.424
REMARK  3 active torsions:
REMARK  status: ('A' for Active; 'I' for Inactive)
REMARK    1  A    between atoms: O1_2  and  C2_3 
REMARK    2  A    between atoms: C3_4  and  C4_5 
REMARK    3  A    between atoms: C7_8  and  O2_9 
ROOT
HETATM    1  C4  UNL     1      22.816   1.326  51.860  1.00  0.00     0.080 C 
HETATM    2  C5  UNL     1      21.543   0.984  51.061  1.00  0.00    -0.030 C 
HETATM    3  C6  UNL     1      20.433   0.688  51.815  1.00  0.00     0.019 C 
HETATM    4  C7  UNL     1      20.185   2.105  52.339  1.00  0.00     0.179 C 
HETATM    5  C9  UNL     1      21.255   2.995  51.719  1.00  0.00    -0.002 C 
HETATM    6  C10 UNL     1      21.366   3.951  50.765  1.00  0.00     0.010 C 
HETATM    7  C11 UNL     1      20.933   3.593  49.359  1.00  0.00     0.195 C 
HETATM    8  N1  UNL     1      21.322   2.247  48.987  1.00  0.00    -0.296 NA
HETATM    9  C12 UNL     1      21.438   1.048  49.548  1.00  0.00     0.118 C 
HETATM   10  S1  UNL     1      21.954   5.655  50.710  1.00  0.00    -0.105 SA
HETATM   11  C13 UNL     1      23.576   5.739  51.536  1.00  0.00     0.253 C 
HETATM   12  O3  UNL     1      23.736   4.778  52.541  1.00  0.00    -0.352 OA
HETATM   13  C14 UNL     1      23.782   3.410  52.613  1.00  0.00     0.144 C 
HETATM   14  C15 UNL     1      22.682   2.820  52.146  1.00  0.00    -0.014 C 
ENDROOT
BRANCH   1  15
HETATM   15  C3  UNL     1      22.975   0.603  53.097  1.00  0.00     0.011 C 
HETATM   16  C2  UNL     1      23.897  -0.258  53.350  1.00  0.00     0.131 C 
BRANCH  16  17
HETATM   17  O1  UNL     1      24.005  -0.922  54.553  1.00  0.00    -0.368 OA
HETATM   18  C1  UNL     1      22.923  -1.364  55.344  1.00  0.00     0.208 C 
ENDBRANCH  16  17
ENDBRANCH   1  15
BRANCH   4  19
HETATM   19  O2  UNL     1      18.918   2.530  52.124  1.00  0.00    -0.382 OA
HETATM   20  C8  UNL     1      18.106   1.599  51.479  1.00  0.00     0.202 C 
ENDBRANCH   4  19
TORSDOF 3
ENDMDL
MODEL 7
REMARK VINA RESULT:      -5.8      2.188      2.733
REMARK  3 active torsions:
REMARK  status: ('A' for Active; 'I' for Inactive)
REMARK    1  A    between atoms: O1_2  and  C2_3 
REMARK    2  A    between atoms: C3_4  and  C4_5 
REMARK    3  A    between atoms: C7_8  and  O2_9 
ROOT
HETATM    1  C4  UNL     1      23.681   1.640  52.697  1.00  0.00     0.080 C 
HETATM    2  C5  UNL     1      24.121   3.062  52.298  1.00  0.00    -0.030 C 
HETATM    3  C6  UNL     1      25.038   3.133  51.277  1.00  0.00     0.019 C 
HETATM    4  C7  UNL     1      24.093   2.698  50.154  1.00  0.00     0.179 C 
HETATM    5  C9  UNL     1      22.727   2.476  50.791  1.00  0.00    -0.002 C 
HETATM    6  C10 UNL     1      21.512   3.075  50.846  1.00  0.00     0.010 C 
HETATM    7  C11 UNL     1      21.453   4.499  51.356  1.00  0.00     0.195 C 
HETATM    8  N1  UNL     1      22.345   4.721  52.477  1.00  0.00    -0.296 NA
HETATM    9  C12 UNL     1      23.546   4.335  52.892  1.00  0.00     0.118 C 
HETATM   10  S1  UNL     1      19.817   2.588  50.466  1.00  0.00    -0.105 SA
HETATM   11  C13 UNL     1      19.490   0.969  51.236  1.00  0.00     0.253 C 
HETATM   12  O3  UNL     1      20.634   0.173  51.360  1.00  0.00    -0.352 OA
HETATM   13  C14 UNL     1      21.825   0.240  52.033  1.00  0.00     0.144 C 
HETATM   14  C15 UNL     1      22.543   1.321  51.731  1.00  0.00    -0.014 C 
ENDROOT
BRANCH   1  15
HETATM   15  C3  UNL     1      24.706   0.630  52.595  1.00  0.00     0.011 C 
HETATM   16  C2  UNL     1      25.367   0.130  53.579  1.00  0.00     0.131 C 
BRANCH  16  17
HETATM   17  O1  UNL     1      26.338  -0.836  53.427  1.00  0.00    -0.368 OA
HETATM   18  C1  UNL     1      27.703  -0.590  53.171  1.00  0.00     0.208 C 
ENDBRANCH  16  17
ENDBRANCH   1  15
BRANCH   4  19
HETATM   19  O2  UNL     1      24.083   3.561  49.111  1.00  0.00    -0.382 OA
HETATM   20  C8  UNL     1      24.887   4.685  49.295  1.00  0.00     0.202 C 
ENDBRANCH   4  19
TORSDOF 3
ENDMDL
MODEL 8
REMARK VINA RESULT:      -5.8      2.776      5.110
REMARK  3 active torsions:
REMARK  status: ('A' for Active; 'I' for Inactive)
REMARK    1  A    between atoms: O1_2  and  C2_3 
REMARK    2  A    between atoms: C3_4  and  C4_5 
REMARK    3  A    between atoms: C7_8  and  O2_9 
ROOT
HETATM    1  C4  UNL     1      22.323   1.020  51.503  1.00  0.00     0.080 C 
HETATM    2  C5  UNL     1      21.967   2.292  50.710  1.00  0.00    -0.030 C 
HETATM    3  C6  UNL     1      21.349   3.285  51.430  1.00  0.00     0.019 C 
HETATM    4  C7  UNL     1      22.565   3.686  52.268  1.00  0.00     0.179 C 
HETATM    5  C9  UNL     1      23.722   2.806  51.812  1.00  0.00    -0.002 C 
HETATM    6  C10 UNL     1      24.864   2.907  51.091  1.00  0.00     0.010 C 
HETATM    7  C11 UNL     1      24.753   3.397  49.663  1.00  0.00     0.195 C 
HETATM    8  N1  UNL     1      23.593   2.854  48.982  1.00  0.00    -0.296 NA
HETATM    9  C12 UNL     1      22.335   2.527  49.256  1.00  0.00     0.118 C 
HETATM   10  S1  UNL     1      26.611   2.570  51.390  1.00  0.00    -0.105 SA
HETATM   11  C13 UNL     1      26.766   0.915  52.136  1.00  0.00     0.253 C 
HETATM   12  O3  UNL     1      25.650   0.542  52.892  1.00  0.00    -0.352 OA
HETATM   13  C14 UNL     1      24.322   0.299  52.655  1.00  0.00     0.144 C 
HETATM   14  C15 UNL     1      23.683   1.338  52.121  1.00  0.00    -0.014 C 
ENDROOT
BRANCH   1  15
HETATM   15  C3  UNL     1      21.386   0.662  52.539  1.00  0.00     0.011 C 
HETATM   16  C2  UNL     1      20.438  -0.200  52.428  1.00  0.00     0.131 C 
BRANCH  16  17
HETATM   17  O1  UNL     1      19.567  -0.506  53.453  1.00  0.00    -0.368 OA
HETATM   18  C1  UNL     1      18.271  -1.039  53.293  1.00  0.00     0.208 C 
ENDBRANCH  16  17
ENDBRANCH   1  15
BRANCH   4  19
HETATM   19  O2  UNL     1      22.827   5.014  52.213  1.00  0.00    -0.382 OA
HETATM   20  C8  UNL     1      21.987   5.725  51.357  1.00  0.00     0.202 C 
ENDBRANCH   4  19
TORSDOF 3
ENDMDL
MODEL 9
REMARK VINA RESULT:      -5.6      8.154      9.975
REMARK  3 active torsions:
REMARK  status: ('A' for Active; 'I' for Inactive)
REMARK    1  A    between atoms: O1_2  and  C2_3 
REMARK    2  A    between atoms: C3_4  and  C4_5 
REMARK    3  A    between atoms: C7_8  and  O2_9 
ROOT
HETATM    1  C4  UNL     1      30.322   6.226  48.355  1.00  0.00     0.080 C 
HETATM    2  C5  UNL     1      30.638   7.707  48.072  1.00  0.00    -0.030 C 
HETATM    3  C6  UNL     1      30.870   8.022  46.754  1.00  0.00     0.019 C 
HETATM    4  C7  UNL     1      29.431   7.840  46.268  1.00  0.00     0.179 C 
HETATM    5  C9  UNL     1      28.599   7.460  47.486  1.00  0.00    -0.002 C 
HETATM    6  C10 UNL     1      27.677   8.013  48.310  1.00  0.00     0.010 C 
HETATM    7  C11 UNL     1      28.058   9.284  49.040  1.00  0.00     0.195 C 
HETATM    8  N1  UNL     1      29.429   9.258  49.513  1.00  0.00    -0.296 NA
HETATM    9  C12 UNL     1      30.614   8.805  49.120  1.00  0.00     0.118 C 
HETATM   10  S1  UNL     1      25.998   7.602  48.826  1.00  0.00    -0.105 SA
HETATM   11  C13 UNL     1      25.952   5.846  49.312  1.00  0.00     0.253 C 
HETATM   12  O3  UNL     1      26.889   5.059  48.633  1.00  0.00    -0.352 OA
HETATM   13  C14 UNL     1      28.254   4.988  48.547  1.00  0.00     0.144 C 
HETATM   14  C15 UNL     1      28.816   6.120  48.124  1.00  0.00    -0.014 C 
ENDROOT
BRANCH   1  15
HETATM   15  C3  UNL     1      31.014   5.281  47.515  1.00  0.00     0.011 C 
HETATM   16  C2  UNL     1      32.076   4.629  47.835  1.00  0.00     0.131 C 
BRANCH  16  17
HETATM   17  O1  UNL     1      32.700   3.734  46.993  1.00  0.00    -0.368 OA
HETATM   18  C1  UNL     1      33.988   3.192  47.184  1.00  0.00     0.208 C 
ENDBRANCH  16  17
ENDBRANCH   1  15
BRANCH   4  19
HETATM   19  O2  UNL     1      28.964   8.917  45.594  1.00  0.00    -0.382 OA
HETATM   20  C8  UNL     1      27.869   8.645  44.774  1.00  0.00     0.202 C 
ENDBRANCH   4  19
TORSDOF 3
ENDMDL
