MODEL 1
REMARK VINA RESULT:      -7.2      0.000      0.000
REMARK  9 active torsions:
REMARK  status: ('A' for Active; 'I' for Inactive)
REMARK    1  A    between atoms: C2_2  and  C3_3 
REMARK    2  A    between atoms: C5_5  and  N1_6 
REMARK    3  A    between atoms: C8_11  and  P1_12 
REMARK    4  A    between atoms: P1_12  and  C9_13 
REMARK    5  A    between atoms: C11_15  and  C12_16 
REMARK    6  A    between atoms: C12_16  and  C13_17 
REMARK    7  A    between atoms: C13_17  and  O1_18 
REMARK    8  A    between atoms: C15_20  and  O2_21 
REMARK    9  A    between atoms: C17_23  and  O3_24 
ROOT
HETATM    1  N1  UNL     1      27.033   1.493  53.328  1.00  0.00    -0.289 N 
HETATM    2  C6  UNL     1      28.129   2.163  53.786  1.00  0.00     0.218 A 
HETATM    3  N2  UNL     1      29.061   1.565  54.537  1.00  0.00    -0.236 NA
HETATM    4  C7  UNL     1      28.948   0.252  54.876  1.00  0.00     0.236 A 
HETATM    5  N3  UNL     1      27.861  -0.390  54.416  1.00  0.00    -0.223 NA
HETATM    6  C8  UNL     1      26.924   0.209  53.660  1.00  0.00     0.148 A 
ENDROOT
BRANCH   1   7
HETATM    7  C5  UNL     1      26.130   2.266  52.537  1.00  0.00     0.045 A 
HETATM    8  C4  UNL     1      24.861   2.705  52.860  1.00  0.00     0.040 A 
HETATM    9  C3  UNL     1      24.133   3.443  51.963  1.00  0.00    -0.020 A 
HETATM   10  C17 UNL     1      24.618   3.769  50.736  1.00  0.00     0.105 A 
HETATM   11  C15 UNL     1      25.879   3.353  50.366  1.00  0.00     0.103 A 
HETATM   12  C14 UNL     1      26.617   2.608  51.271  1.00  0.00     0.069 A 
BRANCH   9  13
HETATM   13  C2  UNL     1      22.772   3.898  52.349  1.00  0.00     0.037 C 
HETATM   14  C1  UNL     1      21.800   2.747  52.145  1.00  0.00     0.010 C 
ENDBRANCH   9  13
BRANCH  10  15
HETATM   15  O3  UNL     1      23.878   4.523  49.813  1.00  0.00    -0.357 OA
HETATM   16  H22 UNL     1      24.157   5.442  49.542  1.00  0.00     0.217 HD
ENDBRANCH  10  15
BRANCH  11  17
HETATM   17  O2  UNL     1      26.372   3.687  49.112  1.00  0.00    -0.353 OA
HETATM   18  C16 UNL     1      27.267   4.731  48.880  1.00  0.00     0.210 C 
ENDBRANCH  11  17
ENDBRANCH   1   7
BRANCH   6  19
HETATM   19  P1  UNL     1      25.563  -0.586  53.077  1.00  0.00     0.026 P 
BRANCH  19  20
HETATM   20  C9  UNL     1      24.126  -0.696  54.239  1.00  0.00    -0.048 C 
HETATM   21  C10 UNL     1      24.392  -1.201  55.607  1.00  0.00     0.049 C 
HETATM   22  C11 UNL     1      22.878  -0.375  53.988  1.00  0.00    -0.016 C 
BRANCH  22  23
HETATM   23  C12 UNL     1      21.494  -0.283  54.509  1.00  0.00     0.054 C 
BRANCH  23  24
HETATM   24  C13 UNL     1      20.703  -1.525  54.157  1.00  0.00     0.168 C 
BRANCH  24  25
HETATM   25  O1  UNL     1      19.368  -1.253  53.911  1.00  0.00    -0.401 OA
HETATM   26  H17 UNL     1      19.062  -1.544  53.020  1.00  0.00     0.209 HD
ENDBRANCH  24  25
ENDBRANCH  23  24
ENDBRANCH  22  23
ENDBRANCH  19  20
ENDBRANCH   6  19
TORSDOF 9
ENDMDL
MODEL 2
REMARK VINA RESULT:      -7.0      2.744      5.852
REMARK  9 active torsions:
REMARK  status: ('A' for Active; 'I' for Inactive)
REMARK    1  A    between atoms: C2_2  and  C3_3 
REMARK    2  A    between atoms: C5_5  and  N1_6 
REMARK    3  A    between atoms: C8_11  and  P1_12 
REMARK    4  A    between atoms: P1_12  and  C9_13 
REMARK    5  A    between atoms: C11_15  and  C12_16 
REMARK    6  A    between atoms: C12_16  and  C13_17 
REMARK    7  A    between atoms: C13_17  and  O1_18 
REMARK    8  A    between atoms: C15_20  and  O2_21 
REMARK    9  A    between atoms: C17_23  and  O3_24 
ROOT
HETATM    1  N1  UNL     1      24.559   2.197  51.528  1.00  0.00    -0.289 N 
HETATM    2  C6  UNL     1      24.229   2.633  50.279  1.00  0.00     0.218 A 
HETATM    3  N2  UNL     1      25.124   3.219  49.475  1.00  0.00    -0.236 NA
HETATM    4  C7  UNL     1      26.409   3.406  49.879  1.00  0.00     0.236 A 
HETATM    5  N3  UNL     1      26.714   2.971  51.114  1.00  0.00    -0.223 NA
HETATM    6  C8  UNL     1      25.817   2.381  51.923  1.00  0.00     0.148 A 
ENDROOT
BRANCH   1   7
HETATM    7  C5  UNL     1      23.497   1.591  52.265  1.00  0.00     0.045 A 
HETATM    8  C4  UNL     1      23.508   0.406  52.974  1.00  0.00     0.040 A 
HETATM    9  C3  UNL     1      22.380  -0.023  53.625  1.00  0.00    -0.020 A 
HETATM   10  C17 UNL     1      21.221   0.684  53.601  1.00  0.00     0.105 A 
HETATM   11  C15 UNL     1      21.159   1.873  52.905  1.00  0.00     0.103 A 
HETATM   12  C14 UNL     1      22.297   2.309  52.247  1.00  0.00     0.069 A 
BRANCH   9  13
HETATM   13  C2  UNL     1      22.433  -1.304  54.379  1.00  0.00     0.037 C 
HETATM   14  C1  UNL     1      23.619  -1.257  55.329  1.00  0.00     0.010 C 
ENDBRANCH   9  13
BRANCH  10  15
HETATM   15  O3  UNL     1      20.063   0.250  54.264  1.00  0.00    -0.357 OA
HETATM   16  H22 UNL     1      19.438   0.892  54.703  1.00  0.00     0.217 HD
ENDBRANCH  10  15
BRANCH  11  17
HETATM   17  O2  UNL     1      19.973   2.594  52.882  1.00  0.00    -0.353 OA
HETATM   18  C16 UNL     1      19.437   3.174  51.732  1.00  0.00     0.210 C 
ENDBRANCH  11  17
ENDBRANCH   1   7
BRANCH   6  19
HETATM   19  P1  UNL     1      26.189   1.831  53.466  1.00  0.00     0.026 P 
BRANCH  19  20
HETATM   20  C9  UNL     1      27.874   1.096  53.683  1.00  0.00    -0.048 C 
HETATM   21  C10 UNL     1      28.981   2.018  54.037  1.00  0.00     0.049 C 
HETATM   22  C11 UNL     1      28.210  -0.168  53.556  1.00  0.00    -0.016 C 
BRANCH  22  23
HETATM   23  C12 UNL     1      29.298  -1.171  53.616  1.00  0.00     0.054 C 
BRANCH  23  24
HETATM   24  C13 UNL     1      28.951  -2.391  52.789  1.00  0.00     0.168 C 
BRANCH  24  25
HETATM   25  O1  UNL     1      28.732  -3.516  53.565  1.00  0.00    -0.401 OA
HETATM   26  H17 UNL     1      27.797  -3.617  53.861  1.00  0.00     0.209 HD
ENDBRANCH  24  25
ENDBRANCH  23  24
ENDBRANCH  22  23
ENDBRANCH  19  20
ENDBRANCH   6  19
TORSDOF 9
ENDMDL
MODEL 3
REMARK VINA RESULT:      -6.9      2.017      6.180
REMARK  9 active torsions:
REMARK  status: ('A' for Active; 'I' for Inactive)
REMARK    1  A    between atoms: C2_2  and  C3_3 
REMARK    2  A    between atoms: C5_5  and  N1_6 
REMARK    3  A    between atoms: C8_11  and  P1_12 
REMARK    4  A    between atoms: P1_12  and  C9_13 
REMARK    5  A    between atoms: C11_15  and  C12_16 
REMARK    6  A    between atoms: C12_16  and  C13_17 
REMARK    7  A    between atoms: C13_17  and  O1_18 
REMARK    8  A    between atoms: C15_20  and  O2_21 
REMARK    9  A    between atoms: C17_23  and  O3_24 
ROOT
HETATM    1  N1  UNL     1      25.866   1.846  52.983  1.00  0.00    -0.289 N 
HETATM    2  C6  UNL     1      26.430   1.614  54.202  1.00  0.00     0.218 A 
HETATM    3  N2  UNL     1      27.736   1.807  54.426  1.00  0.00    -0.236 NA
HETATM    4  C7  UNL     1      28.557   2.246  53.434  1.00  0.00     0.236 A 
HETATM    5  N3  UNL     1      27.982   2.469  52.240  1.00  0.00    -0.223 NA
HETATM    6  C8  UNL     1      26.671   2.276  52.013  1.00  0.00     0.148 A 
ENDROOT
BRANCH   1   7
HETATM    7  C5  UNL     1      24.463   1.596  52.900  1.00  0.00     0.045 A 
HETATM    8  C4  UNL     1      23.782   0.416  53.127  1.00  0.00     0.040 A 
HETATM    9  C3  UNL     1      22.419   0.365  52.997  1.00  0.00    -0.020 A 
HETATM   10  C17 UNL     1      21.687   1.453  52.643  1.00  0.00     0.105 A 
HETATM   11  C15 UNL     1      22.320   2.655  52.405  1.00  0.00     0.103 A 
HETATM   12  C14 UNL     1      23.698   2.710  52.536  1.00  0.00     0.069 A 
BRANCH   9  13
HETATM   13  C2  UNL     1      21.724  -0.925  53.252  1.00  0.00     0.037 C 
HETATM   14  C1  UNL     1      21.827  -1.245  54.734  1.00  0.00     0.010 C 
ENDBRANCH   9  13
BRANCH  10  15
HETATM   15  O3  UNL     1      20.292   1.408  52.507  1.00  0.00    -0.357 OA
HETATM   16  H22 UNL     1      19.704   1.074  53.241  1.00  0.00     0.217 HD
ENDBRANCH  10  15
BRANCH  11  17
HETATM   17  O2  UNL     1      21.570   3.766  52.043  1.00  0.00    -0.353 OA
HETATM   18  C16 UNL     1      22.078   5.064  51.989  1.00  0.00     0.210 C 
ENDBRANCH  11  17
ENDBRANCH   1   7
BRANCH   6  19
HETATM   19  P1  UNL     1      25.942   2.554  50.525  1.00  0.00     0.026 P 
BRANCH  19  20
HETATM   20  C9  UNL     1      26.234   4.222  49.776  1.00  0.00    -0.048 C 
HETATM   21  C10 UNL     1      25.184   5.251  49.973  1.00  0.00     0.049 C 
HETATM   22  C11 UNL     1      27.278   4.606  49.079  1.00  0.00    -0.016 C 
BRANCH  22  23
HETATM   23  C12 UNL     1      27.934   5.708  48.337  1.00  0.00     0.054 C 
BRANCH  23  24
HETATM   24  C13 UNL     1      29.414   5.438  48.170  1.00  0.00     0.168 C 
BRANCH  24  25
HETATM   25  O1  UNL     1      30.142   5.742  49.307  1.00  0.00    -0.401 OA
HETATM   26  H17 UNL     1      29.828   5.274  50.116  1.00  0.00     0.209 HD
ENDBRANCH  24  25
ENDBRANCH  23  24
ENDBRANCH  22  23
ENDBRANCH  19  20
ENDBRANCH   6  19
TORSDOF 9
ENDMDL
MODEL 4
REMARK VINA RESULT:      -6.8      3.003      5.264
REMARK  9 active torsions:
REMARK  status: ('A' for Active; 'I' for Inactive)
REMARK    1  A    between atoms: C2_2  and  C3_3 
REMARK    2  A    between atoms: C5_5  and  N1_6 
REMARK    3  A    between atoms: C8_11  and  P1_12 
REMARK    4  A    between atoms: P1_12  and  C9_13 
REMARK    5  A    between atoms: C11_15  and  C12_16 
REMARK    6  A    between atoms: C12_16  and  C13_17 
REMARK    7  A    between atoms: C13_17  and  O1_18 
REMARK    8  A    between atoms: C15_20  and  O2_21 
REMARK    9  A    between atoms: C17_23  and  O3_24 
ROOT
HETATM    1  N1  UNL     1      25.336   2.964  51.368  1.00  0.00    -0.289 N 
HETATM    2  C6  UNL     1      26.331   2.813  50.448  1.00  0.00     0.218 A 
HETATM    3  N2  UNL     1      26.588   3.747  49.524  1.00  0.00    -0.236 NA
HETATM    4  C7  UNL     1      25.856   4.892  49.467  1.00  0.00     0.236 A 
HETATM    5  N3  UNL     1      24.880   5.021  50.381  1.00  0.00    -0.223 NA
HETATM    6  C8  UNL     1      24.621   4.085  51.311  1.00  0.00     0.148 A 
ENDROOT
BRANCH   1   7
HETATM    7  C5  UNL     1      25.186   1.884  52.289  1.00  0.00     0.045 A 
HETATM    8  C4  UNL     1      24.151   0.975  52.391  1.00  0.00     0.040 A 
HETATM    9  C3  UNL     1      24.179  -0.004  53.350  1.00  0.00    -0.020 A 
HETATM   10  C17 UNL     1      25.207  -0.122  54.230  1.00  0.00     0.105 A 
HETATM   11  C15 UNL     1      26.264   0.761  54.170  1.00  0.00     0.103 A 
HETATM   12  C14 UNL     1      26.239   1.751  53.201  1.00  0.00     0.069 A 
BRANCH   9  13
HETATM   13  C2  UNL     1      23.046  -0.964  53.426  1.00  0.00     0.037 C 
HETATM   14  C1  UNL     1      21.981  -0.383  54.342  1.00  0.00     0.010 C 
ENDBRANCH   9  13
BRANCH  10  15
HETATM   15  O3  UNL     1      25.242  -1.121  55.214  1.00  0.00    -0.357 OA
HETATM   16  H22 UNL     1      24.518  -1.802  55.297  1.00  0.00     0.217 HD
ENDBRANCH  10  15
BRANCH  11  17
HETATM   17  O2  UNL     1      27.314   0.638  55.070  1.00  0.00    -0.353 OA
HETATM   18  C16 UNL     1      28.595   0.213  54.718  1.00  0.00     0.210 C 
ENDBRANCH  11  17
ENDBRANCH   1   7
BRANCH   6  19
HETATM   19  P1  UNL     1      23.405   4.239  52.460  1.00  0.00     0.026 P 
BRANCH  19  20
HETATM   20  C9  UNL     1      21.698   3.788  51.902  1.00  0.00    -0.048 C 
HETATM   21  C10 UNL     1      21.000   4.741  51.006  1.00  0.00     0.049 C 
HETATM   22  C11 UNL     1      21.022   2.706  52.214  1.00  0.00    -0.016 C 
BRANCH  22  23
HETATM   23  C12 UNL     1      19.761   1.946  52.053  1.00  0.00     0.054 C 
BRANCH  23  24
HETATM   24  C13 UNL     1      20.022   0.603  51.403  1.00  0.00     0.168 C 
BRANCH  24  25
HETATM   25  O1  UNL     1      21.161   0.605  50.617  1.00  0.00    -0.401 OA
HETATM   26  H17 UNL     1      21.368   1.483  50.220  1.00  0.00     0.209 HD
ENDBRANCH  24  25
ENDBRANCH  23  24
ENDBRANCH  22  23
ENDBRANCH  19  20
ENDBRANCH   6  19
TORSDOF 9
ENDMDL
MODEL 5
REMARK VINA RESULT:      -6.7      3.317      5.459
REMARK  9 active torsions:
REMARK  status: ('A' for Active; 'I' for Inactive)
REMARK    1  A    between atoms: C2_2  and  C3_3 
REMARK    2  A    between atoms: C5_5  and  N1_6 
REMARK    3  A    between atoms: C8_11  and  P1_12 
REMARK    4  A    between atoms: P1_12  and  C9_13 
REMARK    5  A    between atoms: C11_15  and  C12_16 
REMARK    6  A    between atoms: C12_16  and  C13_17 
REMARK    7  A    between atoms: C13_17  and  O1_18 
REMARK    8  A    between atoms: C15_20  and  O2_21 
REMARK    9  A    between atoms: C17_23  and  O3_24 
ROOT
HETATM    1  N1  UNL     1      23.713   1.899  51.554  1.00  0.00    -0.289 N 
HETATM    2  C6  UNL     1      24.606   2.930  51.542  1.00  0.00     0.218 A 
HETATM    3  N2  UNL     1      24.566   3.891  50.612  1.00  0.00    -0.236 NA
HETATM    4  C7  UNL     1      23.622   3.875  49.632  1.00  0.00     0.236 A 
HETATM    5  N3  UNL     1      22.752   2.851  49.661  1.00  0.00    -0.223 NA
HETATM    6  C8  UNL     1      22.790   1.885  50.594  1.00  0.00     0.148 A 
ENDROOT
BRANCH   1   7
HETATM    7  C5  UNL     1      23.883   0.954  52.609  1.00  0.00     0.045 A 
HETATM    8  C4  UNL     1      22.916   0.329  53.372  1.00  0.00     0.040 A 
HETATM    9  C3  UNL     1      23.272  -0.559  54.353  1.00  0.00    -0.020 A 
HETATM   10  C17 UNL     1      24.570  -0.859  54.618  1.00  0.00     0.105 A 
HETATM   11  C15 UNL     1      25.574  -0.261  53.885  1.00  0.00     0.103 A 
HETATM   12  C14 UNL     1      25.216   0.636  52.892  1.00  0.00     0.069 A 
BRANCH   9  13
HETATM   13  C2  UNL     1      22.199  -1.211  55.151  1.00  0.00     0.037 C 
HETATM   14  C1  UNL     1      21.036  -1.532  54.227  1.00  0.00     0.010 C 
ENDBRANCH   9  13
BRANCH  10  15
HETATM   15  O3  UNL     1      24.941  -1.766  55.622  1.00  0.00    -0.357 OA
HETATM   16  H22 UNL     1      25.732  -2.366  55.520  1.00  0.00     0.217 HD
ENDBRANCH  10  15
BRANCH  11  17
HETATM   17  O2  UNL     1      26.899  -0.569  54.157  1.00  0.00    -0.353 OA
HETATM   18  C16 UNL     1      27.876  -0.742  53.177  1.00  0.00     0.210 C 
ENDBRANCH  11  17
ENDBRANCH   1   7
BRANCH   6  19
HETATM   19  P1  UNL     1      21.705   0.603  50.640  1.00  0.00     0.026 P 
BRANCH  19  20
HETATM   20  C9  UNL     1      20.089   0.936  51.480  1.00  0.00    -0.048 C 
HETATM   21  C10 UNL     1      19.945   2.228  52.195  1.00  0.00     0.049 C 
HETATM   22  C11 UNL     1      19.039   0.148  51.519  1.00  0.00    -0.016 C 
BRANCH  22  23
HETATM   23  C12 UNL     1      17.651  -0.041  52.000  1.00  0.00     0.054 C 
BRANCH  23  24
HETATM   24  C13 UNL     1      17.504  -1.371  52.709  1.00  0.00     0.168 C 
BRANCH  24  25
HETATM   25  O1  UNL     1      17.476  -1.240  54.086  1.00  0.00    -0.401 OA
HETATM   26  H17 UNL     1      16.590  -0.996  54.443  1.00  0.00     0.209 HD
ENDBRANCH  24  25
ENDBRANCH  23  24
ENDBRANCH  22  23
ENDBRANCH  19  20
ENDBRANCH   6  19
TORSDOF 9
ENDMDL
MODEL 6
REMARK VINA RESULT:      -6.7      2.051      5.755
REMARK  9 active torsions:
REMARK  status: ('A' for Active; 'I' for Inactive)
REMARK    1  A    between atoms: C2_2  and  C3_3 
REMARK    2  A    between atoms: C5_5  and  N1_6 
REMARK    3  A    between atoms: C8_11  and  P1_12 
REMARK    4  A    between atoms: P1_12  and  C9_13 
REMARK    5  A    between atoms: C11_15  and  C12_16 
REMARK    6  A    between atoms: C12_16  and  C13_17 
REMARK    7  A    between atoms: C13_17  and  O1_18 
REMARK    8  A    between atoms: C15_20  and  O2_21 
REMARK    9  A    between atoms: C17_23  and  O3_24 
ROOT
HETATM    1  N1  UNL     1      25.726   1.998  52.825  1.00  0.00    -0.289 N 
HETATM    2  C6  UNL     1      26.224   1.810  54.081  1.00  0.00     0.218 A 
HETATM    3  N2  UNL     1      27.526   1.953  54.354  1.00  0.00    -0.236 NA
HETATM    4  C7  UNL     1      28.412   2.295  53.379  1.00  0.00     0.236 A 
HETATM    5  N3  UNL     1      27.901   2.475  52.149  1.00  0.00    -0.223 NA
HETATM    6  C8  UNL     1      26.593   2.333  51.872  1.00  0.00     0.148 A 
ENDROOT
BRANCH   1   7
HETATM    7  C5  UNL     1      24.318   1.811  52.691  1.00  0.00     0.045 A 
HETATM    8  C4  UNL     1      23.356   2.734  52.327  1.00  0.00     0.040 A 
HETATM    9  C3  UNL     1      22.037   2.369  52.253  1.00  0.00    -0.020 A 
HETATM   10  C17 UNL     1      21.622   1.105  52.530  1.00  0.00     0.105 A 
HETATM   11  C15 UNL     1      22.543   0.148  52.899  1.00  0.00     0.103 A 
HETATM   12  C14 UNL     1      23.877   0.514  52.974  1.00  0.00     0.069 A 
BRANCH   9  13
HETATM   13  C2  UNL     1      21.033   3.391  51.856  1.00  0.00     0.037 C 
HETATM   14  C1  UNL     1      21.701   4.757  51.873  1.00  0.00     0.010 C 
ENDBRANCH   9  13
BRANCH  10  15
HETATM   15  O3  UNL     1      20.274   0.725  52.457  1.00  0.00    -0.357 OA
HETATM   16  H22 UNL     1      19.536   1.361  52.676  1.00  0.00     0.217 HD
ENDBRANCH  10  15
BRANCH  11  17
HETATM   17  O2  UNL     1      22.116  -1.142  53.182  1.00  0.00    -0.353 OA
HETATM   18  C16 UNL     1      21.854  -1.611  54.469  1.00  0.00     0.210 C 
ENDBRANCH  11  17
ENDBRANCH   1   7
BRANCH   6  19
HETATM   19  P1  UNL     1      25.946   2.559  50.338  1.00  0.00     0.026 P 
BRANCH  19  20
HETATM   20  C9  UNL     1      25.902   4.305  49.724  1.00  0.00    -0.048 C 
HETATM   21  C10 UNL     1      27.069   4.783  48.945  1.00  0.00     0.049 C 
HETATM   22  C11 UNL     1      24.943   5.184  49.902  1.00  0.00    -0.016 C 
BRANCH  22  23
HETATM   23  C12 UNL     1      24.464   6.563  49.648  1.00  0.00     0.054 C 
BRANCH  23  24
HETATM   24  C13 UNL     1      24.620   7.423  50.884  1.00  0.00     0.168 C 
BRANCH  24  25
HETATM   25  O1  UNL     1      24.525   6.693  52.056  1.00  0.00    -0.401 OA
HETATM   26  H17 UNL     1      23.678   6.830  52.541  1.00  0.00     0.209 HD
ENDBRANCH  24  25
ENDBRANCH  23  24
ENDBRANCH  22  23
ENDBRANCH  19  20
ENDBRANCH   6  19
TORSDOF 9
ENDMDL
MODEL 7
REMARK VINA RESULT:      -6.7      3.042      5.611
REMARK  9 active torsions:
REMARK  status: ('A' for Active; 'I' for Inactive)
REMARK    1  A    between atoms: C2_2  and  C3_3 
REMARK    2  A    between atoms: C5_5  and  N1_6 
REMARK    3  A    between atoms: C8_11  and  P1_12 
REMARK    4  A    between atoms: P1_12  and  C9_13 
REMARK    5  A    between atoms: C11_15  and  C12_16 
REMARK    6  A    between atoms: C12_16  and  C13_17 
REMARK    7  A    between atoms: C13_17  and  O1_18 
REMARK    8  A    between atoms: C15_20  and  O2_21 
REMARK    9  A    between atoms: C17_23  and  O3_24 
ROOT
HETATM    1  N1  UNL     1      23.386   0.002  53.413  1.00  0.00    -0.289 N 
HETATM    2  C6  UNL     1      23.541  -0.825  54.485  1.00  0.00     0.218 A 
HETATM    3  N2  UNL     1      22.530  -1.558  54.966  1.00  0.00    -0.236 NA
HETATM    4  C7  UNL     1      21.296  -1.503  54.396  1.00  0.00     0.236 A 
HETATM    5  N3  UNL     1      21.163  -0.682  53.340  1.00  0.00    -0.223 NA
HETATM    6  C8  UNL     1      22.178   0.055  52.856  1.00  0.00     0.148 A 
ENDROOT
BRANCH   1   7
HETATM    7  C5  UNL     1      24.557   0.716  53.016  1.00  0.00     0.045 A 
HETATM    8  C4  UNL     1      24.804   1.376  51.828  1.00  0.00     0.040 A 
HETATM    9  C3  UNL     1      26.001   2.012  51.623  1.00  0.00    -0.020 A 
HETATM   10  C17 UNL     1      26.982   2.022  52.563  1.00  0.00     0.105 A 
HETATM   11  C15 UNL     1      26.784   1.377  53.766  1.00  0.00     0.103 A 
HETATM   12  C14 UNL     1      25.575   0.734  53.976  1.00  0.00     0.069 A 
BRANCH   9  13
HETATM   13  C2  UNL     1      26.227   2.711  50.331  1.00  0.00     0.037 C 
HETATM   14  C1  UNL     1      24.877   3.067  49.730  1.00  0.00     0.010 C 
ENDBRANCH   9  13
BRANCH  10  15
HETATM   15  O3  UNL     1      28.209   2.670  52.359  1.00  0.00    -0.357 OA
HETATM   16  H22 UNL     1      28.274   3.664  52.297  1.00  0.00     0.217 HD
ENDBRANCH  10  15
BRANCH  11  17
HETATM   17  O2  UNL     1      27.789   1.389  54.724  1.00  0.00    -0.353 OA
HETATM   18  C16 UNL     1      28.694   0.346  54.915  1.00  0.00     0.210 C 
ENDBRANCH  11  17
ENDBRANCH   1   7
BRANCH   6  19
HETATM   19  P1  UNL     1      22.023   1.082  51.535  1.00  0.00     0.026 P 
BRANCH  19  20
HETATM   20  C9  UNL     1      21.592   2.840  51.920  1.00  0.00    -0.048 C 
HETATM   21  C10 UNL     1      20.152   3.186  52.007  1.00  0.00     0.049 C 
HETATM   22  C11 UNL     1      22.425   3.834  52.127  1.00  0.00    -0.016 C 
BRANCH  22  23
HETATM   23  C12 UNL     1      22.581   5.274  52.437  1.00  0.00     0.054 C 
BRANCH  23  24
HETATM   24  C13 UNL     1      23.671   5.893  51.587  1.00  0.00     0.168 C 
BRANCH  24  25
HETATM   25  O1  UNL     1      24.377   6.875  52.259  1.00  0.00    -0.401 OA
HETATM   26  H17 UNL     1      24.967   7.408  51.675  1.00  0.00     0.209 HD
ENDBRANCH  24  25
ENDBRANCH  23  24
ENDBRANCH  22  23
ENDBRANCH  19  20
ENDBRANCH   6  19
TORSDOF 9
ENDMDL
MODEL 8
REMARK VINA RESULT:      -6.6      3.358      7.577
REMARK  9 active torsions:
REMARK  status: ('A' for Active; 'I' for Inactive)
REMARK    1  A    between atoms: C2_2  and  C3_3 
REMARK    2  A    between atoms: C5_5  and  N1_6 
REMARK    3  A    between atoms: C8_11  and  P1_12 
REMARK    4  A    between atoms: P1_12  and  C9_13 
REMARK    5  A    between atoms: C11_15  and  C12_16 
REMARK    6  A    between atoms: C12_16  and  C13_17 
REMARK    7  A    between atoms: C13_17  and  O1_18 
REMARK    8  A    between atoms: C15_20  and  O2_21 
REMARK    9  A    between atoms: C17_23  and  O3_24 
ROOT
HETATM    1  N1  UNL     1      22.836   1.743  50.846  1.00  0.00    -0.289 N 
HETATM    2  C6  UNL     1      21.836   0.994  50.301  1.00  0.00     0.218 A 
HETATM    3  N2  UNL     1      21.002   1.490  49.378  1.00  0.00    -0.236 NA
HETATM    4  C7  UNL     1      21.124   2.775  48.946  1.00  0.00     0.236 A 
HETATM    5  N3  UNL     1      22.115   3.496  49.496  1.00  0.00    -0.223 NA
HETATM    6  C8  UNL     1      22.954   3.000  50.422  1.00  0.00     0.148 A 
ENDROOT
BRANCH   1   7
HETATM    7  C5  UNL     1      23.643   1.074  51.815  1.00  0.00     0.045 A 
HETATM    8  C4  UNL     1      25.020   1.052  51.924  1.00  0.00     0.040 A 
HETATM    9  C3  UNL     1      25.625   0.346  52.930  1.00  0.00    -0.020 A 
HETATM   10  C17 UNL     1      24.911  -0.354  53.850  1.00  0.00     0.105 A 
HETATM   11  C15 UNL     1      23.534  -0.365  53.784  1.00  0.00     0.103 A 
HETATM   12  C14 UNL     1      22.919   0.349  52.768  1.00  0.00     0.069 A 
BRANCH   9  13
HETATM   13  C2  UNL     1      27.110   0.349  53.014  1.00  0.00     0.037 C 
HETATM   14  C1  UNL     1      27.604   1.768  52.786  1.00  0.00     0.010 C 
ENDBRANCH   9  13
BRANCH  10  15
HETATM   15  O3  UNL     1      25.524  -1.080  54.882  1.00  0.00    -0.357 OA
HETATM   16  H22 UNL     1      26.339  -0.743  55.349  1.00  0.00     0.217 HD
ENDBRANCH  10  15
BRANCH  11  17
HETATM   17  O2  UNL     1      22.807  -1.081  54.725  1.00  0.00    -0.353 OA
HETATM   18  C16 UNL     1      21.570  -1.671  54.468  1.00  0.00     0.210 C 
ENDBRANCH  11  17
ENDBRANCH   1   7
BRANCH   6  19
HETATM   19  P1  UNL     1      24.198   3.893  51.113  1.00  0.00     0.026 P 
BRANCH  19  20
HETATM   20  C9  UNL     1      25.572   4.386  49.976  1.00  0.00    -0.048 C 
HETATM   21  C10 UNL     1      26.510   3.324  49.537  1.00  0.00     0.049 C 
HETATM   22  C11 UNL     1      25.820   5.587  49.505  1.00  0.00    -0.016 C 
BRANCH  22  23
HETATM   23  C12 UNL     1      26.694   6.428  48.654  1.00  0.00     0.054 C 
BRANCH  23  24
HETATM   24  C13 UNL     1      26.860   7.809  49.253  1.00  0.00     0.168 C 
BRANCH  24  25
HETATM   25  O1  UNL     1      26.547   7.846  50.600  1.00  0.00    -0.401 OA
HETATM   26  H17 UNL     1      26.448   8.760  50.959  1.00  0.00     0.209 HD
ENDBRANCH  24  25
ENDBRANCH  23  24
ENDBRANCH  22  23
ENDBRANCH  19  20
ENDBRANCH   6  19
TORSDOF 9
ENDMDL
MODEL 9
REMARK VINA RESULT:      -6.4      2.634      4.135
REMARK  9 active torsions:
REMARK  status: ('A' for Active; 'I' for Inactive)
REMARK    1  A    between atoms: C2_2  and  C3_3 
REMARK    2  A    between atoms: C5_5  and  N1_6 
REMARK    3  A    between atoms: C8_11  and  P1_12 
REMARK    4  A    between atoms: P1_12  and  C9_13 
REMARK    5  A    between atoms: C11_15  and  C12_16 
REMARK    6  A    between atoms: C12_16  and  C13_17 
REMARK    7  A    between atoms: C13_17  and  O1_18 
REMARK    8  A    between atoms: C15_20  and  O2_21 
REMARK    9  A    between atoms: C17_23  and  O3_24 
ROOT
HETATM    1  N1  UNL     1      23.816   0.522  53.283  1.00  0.00    -0.289 N 
HETATM    2  C6  UNL     1      24.569  -0.349  54.014  1.00  0.00     0.218 A 
HETATM    3  N2  UNL     1      24.018  -1.201  54.886  1.00  0.00    -0.236 NA
HETATM    4  C7  UNL     1      22.672  -1.230  55.078  1.00  0.00     0.236 A 
HETATM    5  N3  UNL     1      21.947  -0.364  54.349  1.00  0.00    -0.223 NA
HETATM    6  C8  UNL     1      22.499   0.492  53.472  1.00  0.00     0.148 A 
ENDROOT
BRANCH   1   7
HETATM    7  C5  UNL     1      24.547   1.366  52.394  1.00  0.00     0.045 A 
HETATM    8  C4  UNL     1      24.103   2.009  51.255  1.00  0.00     0.040 A 
HETATM    9  C3  UNL     1      24.959   2.786  50.518  1.00  0.00    -0.020 A 
HETATM   10  C17 UNL     1      26.261   2.955  50.867  1.00  0.00     0.105 A 
HETATM   11  C15 UNL     1      26.754   2.332  51.995  1.00  0.00     0.103 A 
HETATM   12  C14 UNL     1      25.890   1.547  52.742  1.00  0.00     0.069 A 
BRANCH   9  13
HETATM   13  C2  UNL     1      24.441   3.463  49.300  1.00  0.00     0.037 C 
HETATM   14  C1  UNL     1      22.990   3.846  49.539  1.00  0.00     0.010 C 
ENDBRANCH   9  13
BRANCH  10  15
HETATM   15  O3  UNL     1      27.143   3.747  50.117  1.00  0.00    -0.357 OA
HETATM   16  H22 UNL     1      27.377   3.523  49.174  1.00  0.00     0.217 HD
ENDBRANCH  10  15
BRANCH  11  17
HETATM   17  O2  UNL     1      28.084   2.506  52.349  1.00  0.00    -0.353 OA
HETATM   18  C16 UNL     1      28.598   2.213  53.612  1.00  0.00     0.210 C 
ENDBRANCH  11  17
ENDBRANCH   1   7
BRANCH   6  19
HETATM   19  P1  UNL     1      21.602   1.576  52.553  1.00  0.00     0.026 P 
BRANCH  19  20
HETATM   20  C9  UNL     1      20.221   0.849  51.558  1.00  0.00    -0.048 C 
HETATM   21  C10 UNL     1      20.286   1.005  50.084  1.00  0.00     0.049 C 
HETATM   22  C11 UNL     1      19.172   0.202  52.012  1.00  0.00    -0.016 C 
BRANCH  22  23
HETATM   23  C12 UNL     1      17.914  -0.506  51.677  1.00  0.00     0.054 C 
BRANCH  23  24
HETATM   24  C13 UNL     1      17.434  -1.333  52.851  1.00  0.00     0.168 C 
BRANCH  24  25
HETATM   25  O1  UNL     1      18.190  -1.128  53.992  1.00  0.00    -0.401 OA
HETATM   26  H17 UNL     1      18.135  -1.867  54.643  1.00  0.00     0.209 HD
ENDBRANCH  24  25
ENDBRANCH  23  24
ENDBRANCH  22  23
ENDBRANCH  19  20
ENDBRANCH   6  19
TORSDOF 9
ENDMDL
