MODEL 1
REMARK VINA RESULT:      -7.3      0.000      0.000
REMARK  3 active torsions:
REMARK  status: ('A' for Active; 'I' for Inactive)
REMARK    1  A    between atoms: C3_3  and  C4_4 
REMARK    2  A    between atoms: C5_6  and  C6_7 
REMARK    3  A    between atoms: C11_14  and  O1_15 
ROOT
HETATM    1  C6  UNL     1      23.490   0.037  53.628  1.00  0.00     0.072 A 
HETATM    2  N1  UNL     1      23.996  -0.715  54.644  1.00  0.00    -0.241 NA
HETATM    3  C7  UNL     1      23.174  -1.556  55.330  1.00  0.00     0.234 A 
HETATM    4  N2  UNL     1      21.846  -1.714  55.073  1.00  0.00    -0.241 NA
HETATM    5  C8  UNL     1      21.303  -0.988  54.074  1.00  0.00     0.072 A 
HETATM    6  C9  UNL     1      22.151  -0.140  53.392  1.00  0.00     0.024 A 
HETATM    7  C10 UNL     1      21.873   0.792  52.307  1.00  0.00     0.050 C 
HETATM    8  C11 UNL     1      20.944   1.021  51.411  1.00  0.00     0.070 C 
HETATM    9  C13 UNL     1      19.652   0.388  51.064  1.00  0.00     0.238 C 
HETATM   10  O2  UNL     1      18.884  -0.050  52.131  1.00  0.00    -0.357 OA
HETATM   11  C14 UNL     1      18.882  -0.949  53.189  1.00  0.00     0.137 C 
HETATM   12  C15 UNL     1      19.866  -1.336  53.986  1.00  0.00     0.056 C 
ENDROOT
BRANCH   1  13
HETATM   13  C5  UNL     1      24.379   0.917  52.915  1.00  0.00     0.051 C 
HETATM   14  C4  UNL     1      25.579   0.544  52.444  1.00  0.00     0.013 C 
HETATM   15 BR1  UNL     1      26.695   1.812  51.529  1.00  0.00    -0.051 Br
BRANCH  14  16
HETATM   16  C3  UNL     1      26.340  -0.689  52.458  1.00  0.00     0.015 C 
HETATM   17  C2  UNL     1      27.489  -1.201  52.885  1.00  0.00    -0.030 C 
HETATM   18  C1  UNL     1      28.637  -0.671  53.627  1.00  0.00     0.036 C 
ENDBRANCH  14  16
ENDBRANCH   1  13
BRANCH   8  19
HETATM   19  O1  UNL     1      21.272   2.131  50.604  1.00  0.00    -0.358 OA
HETATM   20  C12 UNL     1      22.487   2.189  49.896  1.00  0.00     0.209 C 
ENDBRANCH   8  19
TORSDOF 3
ENDMDL
MODEL 2
REMARK VINA RESULT:      -7.2      2.753      4.691
REMARK  3 active torsions:
REMARK  status: ('A' for Active; 'I' for Inactive)
REMARK    1  A    between atoms: C3_3  and  C4_4 
REMARK    2  A    between atoms: C5_6  and  C6_7 
REMARK    3  A    between atoms: C11_14  and  O1_15 
ROOT
HETATM    1  C6  UNL     1      22.869   2.812  51.997  1.00  0.00     0.072 A 
HETATM    2  N1  UNL     1      21.874   3.710  51.755  1.00  0.00    -0.241 NA
HETATM    3  C7  UNL     1      20.614   3.452  52.203  1.00  0.00     0.234 A 
HETATM    4  N2  UNL     1      20.256   2.335  52.894  1.00  0.00    -0.241 NA
HETATM    5  C8  UNL     1      21.211   1.418  53.155  1.00  0.00     0.072 A 
HETATM    6  C9  UNL     1      22.481   1.697  52.693  1.00  0.00     0.024 A 
HETATM    7  C10 UNL     1      23.703   0.907  52.773  1.00  0.00     0.050 C 
HETATM    8  C11 UNL     1      24.186  -0.105  53.453  1.00  0.00     0.070 C 
HETATM    9  C13 UNL     1      23.670  -0.977  54.532  1.00  0.00     0.238 C 
HETATM   10  O2  UNL     1      22.336  -1.339  54.436  1.00  0.00    -0.357 OA
HETATM   11  C14 UNL     1      21.051  -0.813  54.436  1.00  0.00     0.137 C 
HETATM   12  C15 UNL     1      20.585   0.311  53.915  1.00  0.00     0.056 C 
ENDROOT
BRANCH   1  13
HETATM   13  C5  UNL     1      24.194   3.108  51.518  1.00  0.00     0.051 C 
HETATM   14  C4  UNL     1      24.501   3.260  50.220  1.00  0.00     0.013 C 
HETATM   15 BR1  UNL     1      26.311   3.628  49.693  1.00  0.00    -0.051 Br
BRANCH  14  16
HETATM   16  C3  UNL     1      23.751   3.201  48.983  1.00  0.00     0.015 C 
HETATM   17  C2  UNL     1      22.755   2.544  48.396  1.00  0.00    -0.030 C 
HETATM   18  C1  UNL     1      21.866   1.452  48.802  1.00  0.00     0.036 C 
ENDBRANCH  14  16
ENDBRANCH   1  13
BRANCH   8  19
HETATM   19  O1  UNL     1      25.499  -0.418  53.043  1.00  0.00    -0.358 OA
HETATM   20  C12 UNL     1      26.170   0.355  52.077  1.00  0.00     0.209 C 
ENDBRANCH   8  19
TORSDOF 3
ENDMDL
MODEL 3
REMARK VINA RESULT:      -7.0      2.871      4.868
REMARK  3 active torsions:
REMARK  status: ('A' for Active; 'I' for Inactive)
REMARK    1  A    between atoms: C3_3  and  C4_4 
REMARK    2  A    between atoms: C5_6  and  C6_7 
REMARK    3  A    between atoms: C11_14  and  O1_15 
ROOT
HETATM    1  C6  UNL     1      22.132   0.598  51.968  1.00  0.00     0.072 A 
HETATM    2  N1  UNL     1      20.786   0.465  52.128  1.00  0.00    -0.241 NA
HETATM    3  C7  UNL     1      20.301  -0.159  53.237  1.00  0.00     0.234 A 
HETATM    4  N2  UNL     1      21.075  -0.675  54.231  1.00  0.00    -0.241 NA
HETATM    5  C8  UNL     1      22.414  -0.565  54.113  1.00  0.00     0.072 A 
HETATM    6  C9  UNL     1      22.888   0.068  52.983  1.00  0.00     0.024 A 
HETATM    7  C10 UNL     1      24.256   0.308  52.545  1.00  0.00     0.050 C 
HETATM    8  C11 UNL     1      25.468   0.322  53.045  1.00  0.00     0.070 C 
HETATM    9  C13 UNL     1      26.045   0.082  54.386  1.00  0.00     0.238 C 
HETATM   10  O2  UNL     1      25.472  -0.945  55.120  1.00  0.00    -0.357 OA
HETATM   11  C14 UNL     1      24.281  -1.340  55.713  1.00  0.00     0.137 C 
HETATM   12  C15 UNL     1      23.030  -1.188  55.308  1.00  0.00     0.056 C 
ENDROOT
BRANCH   1  13
HETATM   13  C5  UNL     1      22.623   1.264  50.790  1.00  0.00     0.051 C 
HETATM   14  C4  UNL     1      22.541   2.589  50.594  1.00  0.00     0.013 C 
HETATM   15 BR1  UNL     1      23.206   3.368  48.969  1.00  0.00    -0.051 Br
BRANCH  14  16
HETATM   16  C3  UNL     1      22.018   3.702  51.360  1.00  0.00     0.015 C 
HETATM   17  C2  UNL     1      22.356   4.562  52.315  1.00  0.00    -0.030 C 
HETATM   18  C1  UNL     1      23.566   4.788  53.111  1.00  0.00     0.036 C 
ENDBRANCH  14  16
ENDBRANCH   1  13
BRANCH   8  19
HETATM   19  O1  UNL     1      26.426   0.642  52.059  1.00  0.00    -0.358 OA
HETATM   20  C12 UNL     1      26.459   1.911  51.453  1.00  0.00     0.209 C 
ENDBRANCH   8  19
TORSDOF 3
ENDMDL
MODEL 4
REMARK VINA RESULT:      -7.0      3.145      5.477
REMARK  3 active torsions:
REMARK  status: ('A' for Active; 'I' for Inactive)
REMARK    1  A    between atoms: C3_3  and  C4_4 
REMARK    2  A    between atoms: C5_6  and  C6_7 
REMARK    3  A    between atoms: C11_14  and  O1_15 
ROOT
HETATM    1  C6  UNL     1      23.524   1.453  51.639  1.00  0.00     0.072 A 
HETATM    2  N1  UNL     1      22.193   1.389  51.359  1.00  0.00    -0.241 NA
HETATM    3  C7  UNL     1      21.382   0.613  52.131  1.00  0.00     0.234 A 
HETATM    4  N2  UNL     1      21.806  -0.126  53.192  1.00  0.00    -0.241 NA
HETATM    5  C8  UNL     1      23.119  -0.092  53.505  1.00  0.00     0.072 A 
HETATM    6  C9  UNL     1      23.924   0.699  52.712  1.00  0.00     0.024 A 
HETATM    7  C10 UNL     1      25.364   0.916  52.758  1.00  0.00     0.050 C 
HETATM    8  C11 UNL     1      26.364   0.755  53.591  1.00  0.00     0.070 C 
HETATM    9  C13 UNL     1      26.498   0.238  54.972  1.00  0.00     0.238 C 
HETATM   10  O2  UNL     1      25.714  -0.860  55.289  1.00  0.00    -0.357 OA
HETATM   11  C14 UNL     1      24.393  -1.269  55.411  1.00  0.00     0.137 C 
HETATM   12  C15 UNL     1      23.329  -0.960  54.687  1.00  0.00     0.056 C 
ENDROOT
BRANCH   1  13
HETATM   13  C5  UNL     1      24.362   2.282  50.812  1.00  0.00     0.051 C 
HETATM   14  C4  UNL     1      24.370   3.623  50.867  1.00  0.00     0.013 C 
HETATM   15 BR1  UNL     1      25.511   4.632  49.696  1.00  0.00    -0.051 Br
BRANCH  14  16
HETATM   16  C3  UNL     1      23.662   4.615  51.651  1.00  0.00     0.015 C 
HETATM   17  C2  UNL     1      22.444   5.103  51.863  1.00  0.00    -0.030 C 
HETATM   18  C1  UNL     1      21.113   4.810  51.324  1.00  0.00     0.036 C 
ENDBRANCH  14  16
ENDBRANCH   1  13
BRANCH   8  19
HETATM   19  O1  UNL     1      27.582   1.177  53.018  1.00  0.00    -0.358 OA
HETATM   20  C12 UNL     1      28.765   1.245  53.778  1.00  0.00     0.209 C 
ENDBRANCH   8  19
TORSDOF 3
ENDMDL
MODEL 5
REMARK VINA RESULT:      -7.0      3.228      5.595
REMARK  3 active torsions:
REMARK  status: ('A' for Active; 'I' for Inactive)
REMARK    1  A    between atoms: C3_3  and  C4_4 
REMARK    2  A    between atoms: C5_6  and  C6_7 
REMARK    3  A    between atoms: C11_14  and  O1_15 
ROOT
HETATM    1  C6  UNL     1      23.007   2.547  51.847  1.00  0.00     0.072 A 
HETATM    2  N1  UNL     1      21.759   2.179  52.249  1.00  0.00    -0.241 NA
HETATM    3  C7  UNL     1      21.598   1.041  52.979  1.00  0.00     0.234 A 
HETATM    4  N2  UNL     1      22.614   0.215  53.352  1.00  0.00    -0.241 NA
HETATM    5  C8  UNL     1      23.868   0.541  52.975  1.00  0.00     0.072 A 
HETATM    6  C9  UNL     1      24.011   1.697  52.235  1.00  0.00     0.024 A 
HETATM    7  C10 UNL     1      25.203   2.295  51.649  1.00  0.00     0.050 C 
HETATM    8  C11 UNL     1      26.507   2.223  51.768  1.00  0.00     0.070 C 
HETATM    9  C13 UNL     1      27.436   1.443  52.615  1.00  0.00     0.238 C 
HETATM   10  O2  UNL     1      27.080   0.125  52.855  1.00  0.00    -0.357 OA
HETATM   11  C14 UNL     1      26.099  -0.658  53.448  1.00  0.00     0.137 C 
HETATM   12  C15 UNL     1      24.787  -0.494  53.500  1.00  0.00     0.056 C 
ENDROOT
BRANCH   1  13
HETATM   13  C5  UNL     1      23.154   3.756  51.079  1.00  0.00     0.051 C 
HETATM   14  C4  UNL     1      23.096   3.800  49.739  1.00  0.00     0.013 C 
HETATM   15 BR1  UNL     1      23.332   5.468  48.816  1.00  0.00    -0.051 Br
BRANCH  14  16
HETATM   16  C3  UNL     1      22.894   2.816  48.696  1.00  0.00     0.015 C 
HETATM   17  C2  UNL     1      22.135   1.772  48.379  1.00  0.00    -0.030 C 
HETATM   18  C1  UNL     1      21.028   1.071  49.036  1.00  0.00     0.036 C 
ENDBRANCH  14  16
ENDBRANCH   1  13
BRANCH   8  19
HETATM   19  O1  UNL     1      27.153   3.100  50.870  1.00  0.00    -0.358 OA
HETATM   20  C12 UNL     1      26.615   3.375  49.599  1.00  0.00     0.209 C 
ENDBRANCH   8  19
TORSDOF 3
ENDMDL
MODEL 6
REMARK VINA RESULT:      -6.9      3.596      6.260
REMARK  3 active torsions:
REMARK  status: ('A' for Active; 'I' for Inactive)
REMARK    1  A    between atoms: C3_3  and  C4_4 
REMARK    2  A    between atoms: C5_6  and  C6_7 
REMARK    3  A    between atoms: C11_14  and  O1_15 
ROOT
HETATM    1  C6  UNL     1      24.410   2.029  51.083  1.00  0.00     0.072 A 
HETATM    2  N1  UNL     1      24.981   2.903  50.208  1.00  0.00    -0.241 NA
HETATM    3  C7  UNL     1      26.291   3.242  50.357  1.00  0.00     0.234 A 
HETATM    4  N2  UNL     1      27.103   2.763  51.340  1.00  0.00    -0.241 NA
HETATM    5  C8  UNL     1      26.579   1.895  52.229  1.00  0.00     0.072 A 
HETATM    6  C9  UNL     1      25.250   1.564  52.062  1.00  0.00     0.024 A 
HETATM    7  C10 UNL     1      24.389   0.702  52.862  1.00  0.00     0.050 C 
HETATM    8  C11 UNL     1      24.498  -0.241  53.766  1.00  0.00     0.070 C 
HETATM    9  C13 UNL     1      25.630  -0.914  54.441  1.00  0.00     0.238 C 
HETATM   10  O2  UNL     1      26.705  -0.105  54.777  1.00  0.00    -0.357 OA
HETATM   11  C14 UNL     1      27.692   0.699  54.223  1.00  0.00     0.137 C 
HETATM   12  C15 UNL     1      27.647   1.517  53.183  1.00  0.00     0.056 C 
ENDROOT
BRANCH   1  13
HETATM   13  C5  UNL     1      23.024   1.682  50.903  1.00  0.00     0.051 C 
HETATM   14  C4  UNL     1      22.009   2.534  51.116  1.00  0.00     0.013 C 
HETATM   15 BR1  UNL     1      20.194   1.955  50.870  1.00  0.00    -0.051 Br
BRANCH  14  16
HETATM   16  C3  UNL     1      21.911   3.916  51.539  1.00  0.00     0.015 C 
HETATM   17  C2  UNL     1      22.506   4.814  52.317  1.00  0.00    -0.030 C 
HETATM   18  C1  UNL     1      23.675   4.793  53.201  1.00  0.00     0.036 C 
ENDBRANCH  14  16
ENDBRANCH   1  13
BRANCH   8  19
HETATM   19  O1  UNL     1      23.230  -0.707  54.176  1.00  0.00    -0.358 OA
HETATM   20  C12 UNL     1      22.231  -1.033  53.241  1.00  0.00     0.209 C 
ENDBRANCH   8  19
TORSDOF 3
ENDMDL
MODEL 7
REMARK VINA RESULT:      -6.9      2.696      4.642
REMARK  3 active torsions:
REMARK  status: ('A' for Active; 'I' for Inactive)
REMARK    1  A    between atoms: C3_3  and  C4_4 
REMARK    2  A    between atoms: C5_6  and  C6_7 
REMARK    3  A    between atoms: C11_14  and  O1_15 
ROOT
HETATM    1  C6  UNL     1      24.263   2.715  51.441  1.00  0.00     0.072 A 
HETATM    2  N1  UNL     1      25.567   2.409  51.191  1.00  0.00    -0.241 NA
HETATM    3  C7  UNL     1      26.108   1.285  51.737  1.00  0.00     0.234 A 
HETATM    4  N2  UNL     1      25.432   0.414  52.534  1.00  0.00    -0.241 NA
HETATM    5  C8  UNL     1      24.137   0.678  52.808  1.00  0.00     0.072 A 
HETATM    6  C9  UNL     1      23.607   1.821  52.248  1.00  0.00     0.024 A 
HETATM    7  C10 UNL     1      22.276   2.400  52.379  1.00  0.00     0.050 C 
HETATM    8  C11 UNL     1      21.073   2.042  52.757  1.00  0.00     0.070 C 
HETATM    9  C13 UNL     1      20.469   0.789  53.264  1.00  0.00     0.238 C 
HETATM   10  O2  UNL     1      21.249   0.048  54.137  1.00  0.00    -0.357 OA
HETATM   11  C14 UNL     1      22.443  -0.657  54.218  1.00  0.00     0.137 C 
HETATM   12  C15 UNL     1      23.625  -0.406  53.678  1.00  0.00     0.056 C 
ENDROOT
BRANCH   1  13
HETATM   13  C5  UNL     1      23.711   3.906  50.851  1.00  0.00     0.051 C 
HETATM   14  C4  UNL     1      23.184   3.952  49.617  1.00  0.00     0.013 C 
HETATM   15 BR1  UNL     1      22.498   5.606  48.921  1.00  0.00    -0.051 Br
BRANCH  14  16
HETATM   16  C3  UNL     1      22.988   2.985  48.557  1.00  0.00     0.015 C 
HETATM   17  C2  UNL     1      22.303   1.885  48.262  1.00  0.00    -0.030 C 
HETATM   18  C1  UNL     1      21.320   1.065  48.976  1.00  0.00     0.036 C 
ENDBRANCH  14  16
ENDBRANCH   1  13
BRANCH   8  19
HETATM   19  O1  UNL     1      20.161   3.113  52.649  1.00  0.00    -0.358 OA
HETATM   20  C12 UNL     1      19.957   3.782  51.428  1.00  0.00     0.209 C 
ENDBRANCH   8  19
TORSDOF 3
ENDMDL
MODEL 8
REMARK VINA RESULT:      -6.8      3.448      6.375
REMARK  3 active torsions:
REMARK  status: ('A' for Active; 'I' for Inactive)
REMARK    1  A    between atoms: C3_3  and  C4_4 
REMARK    2  A    between atoms: C5_6  and  C6_7 
REMARK    3  A    between atoms: C11_14  and  O1_15 
ROOT
HETATM    1  C6  UNL     1      23.436   2.435  51.450  1.00  0.00     0.072 A 
HETATM    2  N1  UNL     1      23.656   3.473  50.596  1.00  0.00    -0.241 NA
HETATM    3  C7  UNL     1      24.932   3.875  50.344  1.00  0.00     0.234 A 
HETATM    4  N2  UNL     1      26.041   3.306  50.891  1.00  0.00    -0.241 NA
HETATM    5  C8  UNL     1      25.869   2.274  51.744  1.00  0.00     0.072 A 
HETATM    6  C9  UNL     1      24.569   1.882  51.988  1.00  0.00     0.024 A 
HETATM    7  C10 UNL     1      24.052   0.847  52.873  1.00  0.00     0.050 C 
HETATM    8  C11 UNL     1      24.479  -0.217  53.510  1.00  0.00     0.070 C 
HETATM    9  C13 UNL     1      25.783  -0.906  53.630  1.00  0.00     0.238 C 
HETATM   10  O2  UNL     1      26.899  -0.088  53.711  1.00  0.00    -0.357 OA
HETATM   11  C14 UNL     1      27.621   0.860  52.999  1.00  0.00     0.137 C 
HETATM   12  C15 UNL     1      27.208   1.827  52.195  1.00  0.00     0.056 C 
ENDROOT
BRANCH   1  13
HETATM   13  C5  UNL     1      22.078   2.025  51.700  1.00  0.00     0.051 C 
HETATM   14  C4  UNL     1      21.319   1.376  50.804  1.00  0.00     0.013 C 
HETATM   15 BR1  UNL     1      19.509   0.900  51.235  1.00  0.00    -0.051 Br
BRANCH  14  16
HETATM   16  C3  UNL     1      21.523   0.900  49.451  1.00  0.00     0.015 C 
HETATM   17  C2  UNL     1      21.815   1.328  48.227  1.00  0.00    -0.030 C 
HETATM   18  C1  UNL     1      22.095   2.641  47.638  1.00  0.00     0.036 C 
ENDBRANCH  14  16
ENDBRANCH   1  13
BRANCH   8  19
HETATM   19  O1  UNL     1      23.440  -0.828  54.243  1.00  0.00    -0.358 OA
HETATM   20  C12 UNL     1      22.213  -1.158  53.639  1.00  0.00     0.209 C 
ENDBRANCH   8  19
TORSDOF 3
ENDMDL
MODEL 9
REMARK VINA RESULT:      -6.8      2.715      5.495
REMARK  3 active torsions:
REMARK  status: ('A' for Active; 'I' for Inactive)
REMARK    1  A    between atoms: C3_3  and  C4_4 
REMARK    2  A    between atoms: C5_6  and  C6_7 
REMARK    3  A    between atoms: C11_14  and  O1_15 
ROOT
HETATM    1  C6  UNL     1      21.547   0.923  53.374  1.00  0.00     0.072 A 
HETATM    2  N1  UNL     1      21.044   0.050  54.291  1.00  0.00    -0.241 NA
HETATM    3  C7  UNL     1      21.852  -0.916  54.809  1.00  0.00     0.234 A 
HETATM    4  N2  UNL     1      23.161  -1.086  54.477  1.00  0.00    -0.241 NA
HETATM    5  C8  UNL     1      23.700  -0.242  53.572  1.00  0.00     0.072 A 
HETATM    6  C9  UNL     1      22.867   0.729  53.057  1.00  0.00     0.024 A 
HETATM    7  C10 UNL     1      23.125   1.749  52.050  1.00  0.00     0.050 C 
HETATM    8  C11 UNL     1      24.146   2.339  51.476  1.00  0.00     0.070 C 
HETATM    9  C13 UNL     1      25.617   2.228  51.598  1.00  0.00     0.238 C 
HETATM   10  O2  UNL     1      26.118   0.948  51.772  1.00  0.00    -0.357 OA
HETATM   11  C14 UNL     1      26.103  -0.129  52.648  1.00  0.00     0.137 C 
HETATM   12  C15 UNL     1      25.120  -0.620  53.385  1.00  0.00     0.056 C 
ENDROOT
BRANCH   1  13
HETATM   13  C5  UNL     1      20.676   1.938  52.842  1.00  0.00     0.051 C 
HETATM   14  C4  UNL     1      19.612   1.677  52.066  1.00  0.00     0.013 C 
HETATM   15 BR1  UNL     1      18.533   3.114  51.389  1.00  0.00    -0.051 Br
BRANCH  14  16
HETATM   16  C3  UNL     1      19.007   0.470  51.540  1.00  0.00     0.015 C 
HETATM   17  C2  UNL     1      18.322  -0.604  51.919  1.00  0.00    -0.030 C 
HETATM   18  C1  UNL     1      17.814  -1.098  53.202  1.00  0.00     0.036 C 
ENDBRANCH  14  16
ENDBRANCH   1  13
BRANCH   8  19
HETATM   19  O1  UNL     1      23.721   3.293  50.528  1.00  0.00    -0.358 OA
HETATM   20  C12 UNL     1      22.358   3.475  50.231  1.00  0.00     0.209 C 
ENDBRANCH   8  19
TORSDOF 3
ENDMDL
