MODEL 1
REMARK VINA RESULT:      -8.3      0.000      0.000
REMARK  0 active torsions:
REMARK  status: ('A' for Active; 'I' for Inactive)
ROOT
HETATM    1  F1  UNL     1      25.696  -1.227  53.840  1.00  0.00    -0.208 F 
HETATM    2  C1  UNL     1      24.533  -0.524  53.445  1.00  0.00     0.124 C 
HETATM    3  C2  UNL     1      23.185  -0.504  53.702  1.00  0.00     0.087 C 
HETATM    4  C3  UNL     1      22.496  -1.417  54.686  1.00  0.00    -0.002 C 
HETATM    5  C4  UNL     1      21.150  -1.125  54.632  1.00  0.00     0.060 C 
HETATM    6  N1  UNL     1      20.659  -0.110  53.726  1.00  0.00    -0.254 NA
HETATM    7  C5  UNL     1      20.125   0.223  52.419  1.00  0.00     0.112 A 
HETATM    8  C6  UNL     1      18.824   0.103  51.914  1.00  0.00     0.064 A 
HETATM    9  C7  UNL     1      18.520   0.490  50.626  1.00  0.00     0.124 A 
HETATM   10  N2  UNL     1      19.520   0.987  49.870  1.00  0.00    -0.219 NA
HETATM   11  C8  UNL     1      20.763   1.093  50.375  1.00  0.00     0.275 A 
HETATM   12  N3  UNL     1      21.078   0.724  51.622  1.00  0.00    -0.194 NA
HETATM   13  O1  UNL     1      22.052   1.529  49.987  1.00  0.00    -0.276 OA
HETATM   14  C9  UNL     1      22.544   2.595  50.766  1.00  0.00     0.089 A 
HETATM   15  C10 UNL     1      21.715   3.674  50.620  1.00  0.00     0.038 A 
HETATM   16  C11 UNL     1      21.964   4.852  51.286  1.00  0.00     0.003 A 
HETATM   17  C12 UNL     1      23.025   5.068  52.131  1.00  0.00     0.001 A 
HETATM   18  C13 UNL     1      23.814   3.908  52.213  1.00  0.00     0.014 A 
HETATM   19  C14 UNL     1      23.635   2.662  51.570  1.00  0.00    -0.001 A 
HETATM   20  C15 UNL     1      24.668   1.710  51.937  1.00  0.00     0.041 C 
HETATM   21  C16 UNL     1      25.018   0.594  52.588  1.00  0.00     0.070 C 
HETATM   22 CL1  UNL     1      26.783   0.477  52.217  1.00  0.00    -0.081 Cl
HETATM   23  H4  UNL     1      20.615  -1.067  53.225  1.00  0.00     0.134 HD
ENDROOT
TORSDOF 0
ENDMDL
MODEL 2
REMARK VINA RESULT:      -8.3      2.832      4.863
REMARK  0 active torsions:
REMARK  status: ('A' for Active; 'I' for Inactive)
ROOT
HETATM    1  F1  UNL     1      24.153   4.822  48.328  1.00  0.00    -0.208 F 
HETATM    2  C1  UNL     1      23.842   3.699  49.130  1.00  0.00     0.124 C 
HETATM    3  C2  UNL     1      22.937   2.668  49.182  1.00  0.00     0.087 C 
HETATM    4  C3  UNL     1      21.841   2.451  48.168  1.00  0.00    -0.002 C 
HETATM    5  C4  UNL     1      21.121   1.351  48.583  1.00  0.00     0.060 C 
HETATM    6  N1  UNL     1      21.480   0.660  49.802  1.00  0.00    -0.254 NA
HETATM    7  C5  UNL     1      21.300   0.512  51.233  1.00  0.00     0.112 A 
HETATM    8  C6  UNL     1      20.296  -0.143  51.957  1.00  0.00     0.064 A 
HETATM    9  C7  UNL     1      20.315  -0.174  53.336  1.00  0.00     0.124 A 
HETATM   10  N2  UNL     1      21.333   0.449  53.962  1.00  0.00    -0.219 NA
HETATM   11  C8  UNL     1      22.288   1.073  53.246  1.00  0.00     0.275 A 
HETATM   12  N3  UNL     1      22.288   1.114  51.909  1.00  0.00    -0.194 NA
HETATM   13  O1  UNL     1      23.477   1.814  53.447  1.00  0.00    -0.276 OA
HETATM   14  C9  UNL     1      24.618   1.211  52.881  1.00  0.00     0.089 A 
HETATM   15  C10 UNL     1      24.820  -0.006  53.473  1.00  0.00     0.038 A 
HETATM   16  C11 UNL     1      25.870  -0.811  53.095  1.00  0.00     0.003 A 
HETATM   17  C12 UNL     1      26.792  -0.497  52.126  1.00  0.00     0.001 A 
HETATM   18  C13 UNL     1      26.501   0.766  51.582  1.00  0.00     0.014 A 
HETATM   19  C14 UNL     1      25.451   1.655  51.907  1.00  0.00    -0.001 A 
HETATM   20  C15 UNL     1      25.490   2.859  51.095  1.00  0.00     0.041 C 
HETATM   21  C16 UNL     1      24.951   3.600  50.120  1.00  0.00     0.070 C 
HETATM   22 CL1  UNL     1      26.069   5.020  50.062  1.00  0.00    -0.081 Cl
HETATM   23  H4  UNL     1      20.738   1.410  50.038  1.00  0.00     0.134 HD
ENDROOT
TORSDOF 0
ENDMDL
MODEL 3
REMARK VINA RESULT:      -7.8      2.548      4.736
REMARK  0 active torsions:
REMARK  status: ('A' for Active; 'I' for Inactive)
ROOT
HETATM    1  F1  UNL     1      25.073  -0.815  54.362  1.00  0.00    -0.208 F 
HETATM    2  C1  UNL     1      24.614   0.158  53.444  1.00  0.00     0.124 C 
HETATM    3  C2  UNL     1      25.108   1.017  52.495  1.00  0.00     0.087 C 
HETATM    4  C3  UNL     1      26.568   1.129  52.132  1.00  0.00    -0.002 C 
HETATM    5  C4  UNL     1      26.672   2.119  51.179  1.00  0.00     0.060 C 
HETATM    6  N1  UNL     1      25.494   2.831  50.735  1.00  0.00    -0.254 NA
HETATM    7  C5  UNL     1      24.608   3.970  50.892  1.00  0.00     0.112 A 
HETATM    8  C6  UNL     1      24.747   5.292  50.452  1.00  0.00     0.064 A 
HETATM    9  C7  UNL     1      23.770   6.233  50.703  1.00  0.00     0.124 A 
HETATM   10  N2  UNL     1      22.679   5.835  51.387  1.00  0.00    -0.219 NA
HETATM   11  C8  UNL     1      22.567   4.559  51.801  1.00  0.00     0.275 A 
HETATM   12  N3  UNL     1      23.502   3.632  51.567  1.00  0.00    -0.194 NA
HETATM   13  O1  UNL     1      21.663   3.728  52.505  1.00  0.00    -0.276 OA
HETATM   14  C9  UNL     1      21.183   2.646  51.740  1.00  0.00     0.089 A 
HETATM   15  C10 UNL     1      20.495   3.132  50.662  1.00  0.00     0.038 A 
HETATM   16  C11 UNL     1      19.926   2.280  49.743  1.00  0.00     0.003 A 
HETATM   17  C12 UNL     1      19.981   0.909  49.804  1.00  0.00     0.001 A 
HETATM   18  C13 UNL     1      20.702   0.510  50.942  1.00  0.00     0.014 A 
HETATM   19  C14 UNL     1      21.317   1.309  51.932  1.00  0.00    -0.001 A 
HETATM   20  C15 UNL     1      21.985   0.505  52.941  1.00  0.00     0.041 C 
HETATM   21  C16 UNL     1      23.126   0.079  53.494  1.00  0.00     0.070 C 
HETATM   22 CL1  UNL     1      22.527  -1.005  54.811  1.00  0.00    -0.081 Cl
HETATM   23  H4  UNL     1      25.937   3.379  51.554  1.00  0.00     0.134 HD
ENDROOT
TORSDOF 0
ENDMDL
MODEL 4
REMARK VINA RESULT:      -7.6      4.380      6.931
REMARK  0 active torsions:
REMARK  status: ('A' for Active; 'I' for Inactive)
ROOT
HETATM    1  F1  UNL     1      20.079   4.660  51.222  1.00  0.00    -0.208 F 
HETATM    2  C1  UNL     1      21.490   4.746  51.170  1.00  0.00     0.124 C 
HETATM    3  C2  UNL     1      22.477   5.691  51.039  1.00  0.00     0.087 C 
HETATM    4  C3  UNL     1      22.219   7.171  50.904  1.00  0.00    -0.002 C 
HETATM    5  C4  UNL     1      23.446   7.782  50.753  1.00  0.00     0.060 C 
HETATM    6  N1  UNL     1      24.657   6.991  50.733  1.00  0.00    -0.254 NA
HETATM    7  C5  UNL     1      25.644   6.266  49.956  1.00  0.00     0.112 A 
HETATM    8  C6  UNL     1      26.742   6.734  49.223  1.00  0.00     0.064 A 
HETATM    9  C7  UNL     1      27.575   5.864  48.551  1.00  0.00     0.124 A 
HETATM   10  N2  UNL     1      27.293   4.548  48.623  1.00  0.00    -0.219 NA
HETATM   11  C8  UNL     1      26.232   4.120  49.333  1.00  0.00     0.275 A 
HETATM   12  N3  UNL     1      25.413   4.947  49.992  1.00  0.00    -0.194 NA
HETATM   13  O1  UNL     1      25.582   2.911  49.680  1.00  0.00    -0.276 OA
HETATM   14  C9  UNL     1      25.555   2.665  51.067  1.00  0.00     0.089 A 
HETATM   15  C10 UNL     1      26.839   2.554  51.526  1.00  0.00     0.038 A 
HETATM   16  C11 UNL     1      27.098   2.320  52.857  1.00  0.00     0.003 A 
HETATM   17  C12 UNL     1      26.138   2.178  53.830  1.00  0.00     0.001 A 
HETATM   18  C13 UNL     1      24.860   2.306  53.262  1.00  0.00     0.014 A 
HETATM   19  C14 UNL     1      24.502   2.545  51.916  1.00  0.00    -0.001 A 
HETATM   20  C15 UNL     1      23.063   2.629  51.743  1.00  0.00     0.041 C 
HETATM   21  C16 UNL     1      21.982   3.375  51.487  1.00  0.00     0.070 C 
HETATM   22 CL1  UNL     1      20.651   2.156  51.571  1.00  0.00    -0.081 Cl
HETATM   23  H4  UNL     1      24.312   7.116  49.716  1.00  0.00     0.134 HD
ENDROOT
TORSDOF 0
ENDMDL
MODEL 5
REMARK VINA RESULT:      -7.5      3.358      5.636
REMARK  0 active torsions:
REMARK  status: ('A' for Active; 'I' for Inactive)
ROOT
HETATM    1  F1  UNL     1      20.613   0.671  52.793  1.00  0.00    -0.208 F 
HETATM    2  C1  UNL     1      21.782   1.433  52.565  1.00  0.00     0.124 C 
HETATM    3  C2  UNL     1      22.153   2.731  52.319  1.00  0.00     0.087 C 
HETATM    4  C3  UNL     1      21.187   3.886  52.229  1.00  0.00    -0.002 C 
HETATM    5  C4  UNL     1      21.927   5.009  51.930  1.00  0.00     0.060 C 
HETATM    6  N1  UNL     1      23.359   4.913  51.752  1.00  0.00    -0.254 NA
HETATM    7  C5  UNL     1      24.480   4.723  50.851  1.00  0.00     0.112 A 
HETATM    8  C6  UNL     1      25.114   5.628  49.989  1.00  0.00     0.064 A 
HETATM    9  C7  UNL     1      26.184   5.242  49.210  1.00  0.00     0.124 A 
HETATM   10  N2  UNL     1      26.598   3.962  49.306  1.00  0.00    -0.219 NA
HETATM   11  C8  UNL     1      25.973   3.109  50.140  1.00  0.00     0.275 A 
HETATM   12  N3  UNL     1      24.934   3.464  50.904  1.00  0.00    -0.194 NA
HETATM   13  O1  UNL     1      26.047   1.758  50.556  1.00  0.00    -0.276 OA
HETATM   14  C9  UNL     1      26.302   1.606  51.933  1.00  0.00     0.089 A 
HETATM   15  C10 UNL     1      27.517   2.163  52.225  1.00  0.00     0.038 A 
HETATM   16  C11 UNL     1      28.007   2.159  53.511  1.00  0.00     0.003 A 
HETATM   17  C12 UNL     1      27.360   1.618  54.596  1.00  0.00     0.001 A 
HETATM   18  C13 UNL     1      26.129   1.072  54.195  1.00  0.00     0.014 A 
HETATM   19  C14 UNL     1      25.550   1.033  52.906  1.00  0.00    -0.001 A 
HETATM   20  C15 UNL     1      24.247   0.392  52.917  1.00  0.00     0.041 C 
HETATM   21  C16 UNL     1      22.917   0.499  52.805  1.00  0.00     0.070 C 
HETATM   22 CL1  UNL     1      22.379  -1.210  53.046  1.00  0.00    -0.081 Cl
HETATM   23  H4  UNL     1      22.885   4.798  50.787  1.00  0.00     0.134 HD
ENDROOT
TORSDOF 0
ENDMDL
MODEL 6
REMARK VINA RESULT:      -7.5      3.108      5.410
REMARK  0 active torsions:
REMARK  status: ('A' for Active; 'I' for Inactive)
ROOT
HETATM    1  F1  UNL     1      27.149   1.404  51.805  1.00  0.00    -0.208 F 
HETATM    2  C1  UNL     1      26.064   2.161  51.304  1.00  0.00     0.124 C 
HETATM    3  C2  UNL     1      25.827   3.221  50.466  1.00  0.00     0.087 C 
HETATM    4  C3  UNL     1      26.904   3.971  49.722  1.00  0.00    -0.002 C 
HETATM    5  C4  UNL     1      26.282   4.985  49.026  1.00  0.00     0.060 C 
HETATM    6  N1  UNL     1      24.850   5.163  49.119  1.00  0.00    -0.254 NA
HETATM    7  C5  UNL     1      23.727   5.801  49.778  1.00  0.00     0.112 A 
HETATM    8  C6  UNL     1      23.196   7.087  49.623  1.00  0.00     0.064 A 
HETATM    9  C7  UNL     1      22.102   7.502  50.352  1.00  0.00     0.124 A 
HETATM   10  N2  UNL     1      21.562   6.624  51.222  1.00  0.00    -0.219 NA
HETATM   11  C8  UNL     1      22.089   5.392  51.357  1.00  0.00     0.275 A 
HETATM   12  N3  UNL     1      23.149   4.972  50.658  1.00  0.00    -0.194 NA
HETATM   13  O1  UNL     1      21.877   4.202  52.093  1.00  0.00    -0.276 OA
HETATM   14  C9  UNL     1      21.591   3.084  51.284  1.00  0.00     0.089 A 
HETATM   15  C10 UNL     1      20.434   3.317  50.592  1.00  0.00     0.038 A 
HETATM   16  C11 UNL     1      19.932   2.382  49.717  1.00  0.00     0.003 A 
HETATM   17  C12 UNL     1      20.509   1.163  49.454  1.00  0.00     0.001 A 
HETATM   18  C13 UNL     1      21.684   1.018  50.210  1.00  0.00     0.014 A 
HETATM   19  C14 UNL     1      22.271   1.920  51.126  1.00  0.00    -0.001 A 
HETATM   20  C15 UNL     1      23.504   1.397  51.688  1.00  0.00     0.041 C 
HETATM   21  C16 UNL     1      24.839   1.453  51.771  1.00  0.00     0.070 C 
HETATM   22 CL1  UNL     1      25.202   0.116  52.931  1.00  0.00    -0.081 Cl
HETATM   23  H4  UNL     1      25.322   5.779  49.871  1.00  0.00     0.134 HD
ENDROOT
TORSDOF 0
ENDMDL
MODEL 7
REMARK VINA RESULT:      -7.5      3.166      4.894
REMARK  0 active torsions:
REMARK  status: ('A' for Active; 'I' for Inactive)
ROOT
HETATM    1  F1  UNL     1      17.972  -0.689  53.393  1.00  0.00    -0.208 F 
HETATM    2  C1  UNL     1      19.258  -0.260  52.987  1.00  0.00     0.124 C 
HETATM    3  C2  UNL     1      20.579  -0.546  53.223  1.00  0.00     0.087 C 
HETATM    4  C3  UNL     1      21.058  -1.624  54.165  1.00  0.00    -0.002 C 
HETATM    5  C4  UNL     1      22.435  -1.576  54.165  1.00  0.00     0.060 C 
HETATM    6  N1  UNL     1      23.132  -0.596  53.362  1.00  0.00    -0.254 NA
HETATM    7  C5  UNL     1      23.730   0.723  53.269  1.00  0.00     0.112 A 
HETATM    8  C6  UNL     1      24.979   1.184  53.703  1.00  0.00     0.064 A 
HETATM    9  C7  UNL     1      25.364   2.494  53.508  1.00  0.00     0.124 A 
HETATM   10  N2  UNL     1      24.493   3.315  52.886  1.00  0.00    -0.219 NA
HETATM   11  C8  UNL     1      23.297   2.851  52.478  1.00  0.00     0.275 A 
HETATM   12  N3  UNL     1      22.906   1.584  52.657  1.00  0.00    -0.194 NA
HETATM   13  O1  UNL     1      22.129   3.307  51.822  1.00  0.00    -0.276 OA
HETATM   14  C9  UNL     1      21.868   2.638  50.610  1.00  0.00     0.089 A 
HETATM   15  C10 UNL     1      22.904   2.860  49.745  1.00  0.00     0.038 A 
HETATM   16  C11 UNL     1      22.904   2.309  48.484  1.00  0.00     0.003 A 
HETATM   17  C12 UNL     1      21.907   1.511  47.975  1.00  0.00     0.001 A 
HETATM   18  C13 UNL     1      20.893   1.345  48.933  1.00  0.00     0.014 A 
HETATM   19  C14 UNL     1      20.811   1.869  50.243  1.00  0.00    -0.001 A 
HETATM   20  C15 UNL     1      19.599   1.444  50.923  1.00  0.00     0.041 C 
HETATM   21  C16 UNL     1      19.021   0.704  51.876  1.00  0.00     0.070 C 
HETATM   22 CL1  UNL     1      17.272   1.106  51.659  1.00  0.00    -0.081 Cl
HETATM   23  H4  UNL     1      22.977  -0.184  54.349  1.00  0.00     0.134 HD
ENDROOT
TORSDOF 0
ENDMDL
MODEL 8
REMARK VINA RESULT:      -7.1      3.425      5.236
REMARK  0 active torsions:
REMARK  status: ('A' for Active; 'I' for Inactive)
ROOT
HETATM    1  F1  UNL     1      19.844   6.139  50.076  1.00  0.00    -0.208 F 
HETATM    2  C1  UNL     1      20.671   5.017  50.311  1.00  0.00     0.124 C 
HETATM    3  C2  UNL     1      20.623   3.647  50.238  1.00  0.00     0.087 C 
HETATM    4  C3  UNL     1      19.417   2.866  49.778  1.00  0.00    -0.002 C 
HETATM    5  C4  UNL     1      19.738   1.530  49.884  1.00  0.00     0.060 C 
HETATM    6  N1  UNL     1      21.036   1.128  50.380  1.00  0.00    -0.254 NA
HETATM    7  C5  UNL     1      21.862   0.752  51.512  1.00  0.00     0.112 A 
HETATM    8  C6  UNL     1      21.977  -0.471  52.183  1.00  0.00     0.064 A 
HETATM    9  C7  UNL     1      22.840  -0.623  53.248  1.00  0.00     0.124 A 
HETATM   10  N2  UNL     1      23.567   0.450  53.621  1.00  0.00    -0.219 NA
HETATM   11  C8  UNL     1      23.440   1.617  52.962  1.00  0.00     0.275 A 
HETATM   12  N3  UNL     1      22.609   1.784  51.927  1.00  0.00    -0.194 NA
HETATM   13  O1  UNL     1      23.962   2.932  52.986  1.00  0.00    -0.276 OA
HETATM   14  C9  UNL     1      24.631   3.294  51.801  1.00  0.00     0.089 A 
HETATM   15  C10 UNL     1      25.701   2.461  51.620  1.00  0.00     0.038 A 
HETATM   16  C11 UNL     1      26.524   2.593  50.525  1.00  0.00     0.003 A 
HETATM   17  C12 UNL     1      26.370   3.534  49.536  1.00  0.00     0.001 A 
HETATM   18  C13 UNL     1      25.251   4.338  49.811  1.00  0.00     0.014 A 
HETATM   19  C14 UNL     1      24.356   4.274  50.903  1.00  0.00    -0.001 A 
HETATM   20  C15 UNL     1      23.311   5.279  50.807  1.00  0.00     0.041 C 
HETATM   21  C16 UNL     1      22.023   5.575  50.600  1.00  0.00     0.070 C 
HETATM   22 CL1  UNL     1      22.016   7.375  50.763  1.00  0.00    -0.081 Cl
HETATM   23  H4  UNL     1      20.349   1.173  51.213  1.00  0.00     0.134 HD
ENDROOT
TORSDOF 0
ENDMDL
MODEL 9
REMARK VINA RESULT:      -7.1     11.974     14.168
REMARK  0 active torsions:
REMARK  status: ('A' for Active; 'I' for Inactive)
ROOT
HETATM    1  F1  UNL     1      29.167   7.659  48.615  1.00  0.00    -0.208 F 
HETATM    2  C1  UNL     1      30.399   7.445  47.954  1.00  0.00     0.124 C 
HETATM    3  C2  UNL     1      31.516   8.144  47.570  1.00  0.00     0.087 C 
HETATM    4  C3  UNL     1      31.729   9.614  47.837  1.00  0.00    -0.002 C 
HETATM    5  C4  UNL     1      32.936   9.956  47.268  1.00  0.00     0.060 C 
HETATM    6  N1  UNL     1      33.719   8.964  46.565  1.00  0.00    -0.254 NA
HETATM    7  C5  UNL     1      34.046   8.312  45.310  1.00  0.00     0.112 A 
HETATM    8  C6  UNL     1      34.877   8.729  44.263  1.00  0.00     0.064 A 
HETATM    9  C7  UNL     1      35.061   7.945  43.143  1.00  0.00     0.124 A 
HETATM   10  N2  UNL     1      34.411   6.765  43.092  1.00  0.00    -0.219 NA
HETATM   11  C8  UNL     1      33.616   6.385  44.110  1.00  0.00     0.275 A 
HETATM   12  N3  UNL     1      33.425   7.130  45.204  1.00  0.00    -0.194 NA
HETATM   13  O1  UNL     1      32.785   5.302  44.484  1.00  0.00    -0.276 OA
HETATM   14  C9  UNL     1      33.200   4.656  45.665  1.00  0.00     0.089 A 
HETATM   15  C10 UNL     1      34.449   4.131  45.472  1.00  0.00     0.038 A 
HETATM   16  C11 UNL     1      35.095   3.451  46.479  1.00  0.00     0.003 A 
HETATM   17  C12 UNL     1      34.580   3.232  47.734  1.00  0.00     0.001 A 
HETATM   18  C13 UNL     1      33.301   3.805  47.833  1.00  0.00     0.014 A 
HETATM   19  C14 UNL     1      32.566   4.516  46.857  1.00  0.00    -0.001 A 
HETATM   20  C15 UNL     1      31.281   4.963  47.365  1.00  0.00     0.041 C 
HETATM   21  C16 UNL     1      30.493   5.970  47.761  1.00  0.00     0.070 C 
HETATM   22 CL1  UNL     1      28.969   5.107  48.208  1.00  0.00    -0.081 Cl
HETATM   23  H4  UNL     1      33.080   9.465  45.851  1.00  0.00     0.134 HD
ENDROOT
TORSDOF 0
ENDMDL
