MODEL 1
REMARK VINA RESULT:      -7.9      0.000      0.000
REMARK  5 active torsions:
REMARK  status: ('A' for Active; 'I' for Inactive)
REMARK    1  A    between atoms: C2_2  and  C3_4 
REMARK    2  A    between atoms: C5_6  and  C6_7 
REMARK    3  A    between atoms: C9_12  and  N3_13 
REMARK    4  A    between atoms: N3_13  and  C10_14 
REMARK    5  A    between atoms: C16_20  and  N4_21 
ROOT
HETATM    1  C6  UNL     1      24.400   1.687  52.949  1.00  0.00     0.033 C 
HETATM    2  C7  UNL     1      24.434   2.848  52.327  1.00  0.00     0.059 C 
HETATM    3  N1  UNL     1      23.675   3.965  52.699  1.00  0.00    -0.242 NA
HETATM    4  C8  UNL     1      23.511   5.140  52.221  1.00  0.00     0.235 C 
HETATM    5  N2  UNL     1      24.068   5.759  51.084  1.00  0.00    -0.228 NA
HETATM    6  C9  UNL     1      24.621   5.337  50.008  1.00  0.00     0.110 C 
HETATM    7  C17 UNL     1      24.889   3.959  49.544  1.00  0.00     0.116 C 
HETATM    8  P1  UNL     1      25.575   2.893  50.894  1.00  0.00    -0.067 P 
HETATM    9  H21 UNL     1      26.904   3.323  51.300  1.00  0.00     0.064 HD
ENDROOT
BRANCH   6  10
HETATM   10  N3  UNL     1      25.028   6.408  49.146  1.00  0.00    -0.342 N 
HETATM   11  H10 UNL     1      24.279   6.839  48.533  1.00  0.00     0.167 HD
BRANCH  10  12
HETATM   12  C10 UNL     1      26.357   6.923  49.063  1.00  0.00     0.059 C 
HETATM   13  C11 UNL     1      27.276   6.256  48.373  1.00  0.00     0.031 C 
HETATM   14  C12 UNL     1      28.671   6.539  48.126  1.00  0.00    -0.001 C 
HETATM   15  C13 UNL     1      29.269   7.657  48.500  1.00  0.00    -0.023 C 
HETATM   16  C14 UNL     1      28.935   8.914  49.194  1.00  0.00     0.056 C 
HETATM   17  C15 UNL     1      27.587   8.931  49.796  1.00  0.00     0.008 C 
HETATM   18  C16 UNL     1      26.489   8.178  49.799  1.00  0.00     0.049 C 
BRANCH  18  19
HETATM   19  N4  UNL     1      25.390   8.661  50.588  1.00  0.00    -0.398 N 
HETATM   20  H17 UNL     1      25.668   9.343  51.355  1.00  0.00     0.156 HD
HETATM   21  H18 UNL     1      24.451   8.285  50.313  1.00  0.00     0.156 HD
ENDBRANCH  18  19
ENDBRANCH  10  12
ENDBRANCH   6  10
BRANCH   1  22
HETATM   22  C5  UNL     1      25.209   0.571  52.512  1.00  0.00     0.013 C 
HETATM   23  C3  UNL     1      26.070  -0.138  53.189  1.00  0.00    -0.017 C 
HETATM   24  C4  UNL     1      26.774  -1.251  52.464  1.00  0.00     0.052 C 
BRANCH  23  25
HETATM   25  C2  UNL     1      26.608  -0.188  54.555  1.00  0.00     0.151 C 
HETATM   26  C1  UNL     1      28.021   0.222  54.757  1.00  0.00     0.096 C 
HETATM   27  O1  UNL     1      26.067  -0.533  55.663  1.00  0.00    -0.293 OA
ENDBRANCH  23  25
ENDBRANCH   1  22
TORSDOF 5
ENDMDL
MODEL 2
REMARK VINA RESULT:      -7.9      1.669      2.354
REMARK  5 active torsions:
REMARK  status: ('A' for Active; 'I' for Inactive)
REMARK    1  A    between atoms: C2_2  and  C3_4 
REMARK    2  A    between atoms: C5_6  and  C6_7 
REMARK    3  A    between atoms: C9_12  and  N3_13 
REMARK    4  A    between atoms: N3_13  and  C10_14 
REMARK    5  A    between atoms: C16_20  and  N4_21 
ROOT
HETATM    1  C6  UNL     1      26.588   0.858  54.283  1.00  0.00     0.033 C 
HETATM    2  C7  UNL     1      26.041   1.733  53.463  1.00  0.00     0.059 C 
HETATM    3  N1  UNL     1      24.706   2.154  53.536  1.00  0.00    -0.242 NA
HETATM    4  C8  UNL     1      23.968   2.926  52.833  1.00  0.00     0.235 C 
HETATM    5  N2  UNL     1      24.254   3.668  51.670  1.00  0.00    -0.228 NA
HETATM    6  C9  UNL     1      25.153   3.603  50.757  1.00  0.00     0.110 C 
HETATM    7  C17 UNL     1      26.284   2.666  50.590  1.00  0.00     0.116 C 
HETATM    8  P1  UNL     1      27.183   2.371  52.182  1.00  0.00    -0.067 P 
HETATM    9  H21 UNL     1      27.869   3.568  52.645  1.00  0.00     0.064 HD
ENDROOT
BRANCH   6  10
HETATM   10  N3  UNL     1      24.995   4.623  49.762  1.00  0.00    -0.342 N 
HETATM   11  H10 UNL     1      24.108   4.593  49.185  1.00  0.00     0.167 HD
BRANCH  10  12
HETATM   12  C10 UNL     1      25.944   5.659  49.505  1.00  0.00     0.059 C 
HETATM   13  C11 UNL     1      26.930   5.444  48.641  1.00  0.00     0.031 C 
HETATM   14  C12 UNL     1      28.008   6.298  48.198  1.00  0.00    -0.001 C 
HETATM   15  C13 UNL     1      28.125   7.569  48.540  1.00  0.00    -0.023 C 
HETATM   16  C14 UNL     1      27.407   8.568  49.353  1.00  0.00     0.056 C 
HETATM   17  C15 UNL     1      26.302   8.011  50.158  1.00  0.00     0.008 C 
HETATM   18  C16 UNL     1      25.648   6.858  50.286  1.00  0.00     0.049 C 
BRANCH  18  19
HETATM   19  N4  UNL     1      24.596   6.830  51.263  1.00  0.00    -0.398 N 
HETATM   20  H17 UNL     1      23.752   6.248  50.982  1.00  0.00     0.156 HD
HETATM   21  H18 UNL     1      24.786   7.385  52.132  1.00  0.00     0.156 HD
ENDBRANCH  18  19
ENDBRANCH  10  12
ENDBRANCH   6  10
BRANCH   1  22
HETATM   22  C5  UNL     1      27.973   0.465  54.152  1.00  0.00     0.013 C 
HETATM   23  C3  UNL     1      28.475  -0.636  53.662  1.00  0.00    -0.017 C 
HETATM   24  C4  UNL     1      29.973  -0.772  53.656  1.00  0.00     0.052 C 
BRANCH  23  25
HETATM   25  C2  UNL     1      27.987  -1.887  53.066  1.00  0.00     0.151 C 
HETATM   26  C1  UNL     1      26.746  -1.826  52.251  1.00  0.00     0.096 C 
HETATM   27  O1  UNL     1      28.447  -3.080  53.113  1.00  0.00    -0.293 OA
ENDBRANCH  23  25
ENDBRANCH   1  22
TORSDOF 5
ENDMDL
MODEL 3
REMARK VINA RESULT:      -7.7      5.439      7.933
REMARK  5 active torsions:
REMARK  status: ('A' for Active; 'I' for Inactive)
REMARK    1  A    between atoms: C2_2  and  C3_4 
REMARK    2  A    between atoms: C5_6  and  C6_7 
REMARK    3  A    between atoms: C9_12  and  N3_13 
REMARK    4  A    between atoms: N3_13  and  C10_14 
REMARK    5  A    between atoms: C16_20  and  N4_21 
ROOT
HETATM    1  C6  UNL     1      20.143   0.603  50.992  1.00  0.00     0.033 C 
HETATM    2  C7  UNL     1      21.371   0.928  51.342  1.00  0.00     0.059 C 
HETATM    3  N1  UNL     1      22.271   1.616  50.517  1.00  0.00    -0.242 NA
HETATM    4  C8  UNL     1      23.493   1.975  50.625  1.00  0.00     0.235 C 
HETATM    5  N2  UNL     1      24.419   1.795  51.671  1.00  0.00    -0.228 NA
HETATM    6  C9  UNL     1      24.509   0.993  52.667  1.00  0.00     0.110 C 
HETATM    7  C17 UNL     1      23.614  -0.100  53.102  1.00  0.00     0.116 C 
HETATM    8  P1  UNL     1      21.830   0.393  53.033  1.00  0.00    -0.067 P 
HETATM    9  H21 UNL     1      21.517   1.426  54.009  1.00  0.00     0.064 HD
ENDROOT
BRANCH   6  10
HETATM   10  N3  UNL     1      25.681   1.232  53.458  1.00  0.00    -0.342 N 
HETATM   11  H10 UNL     1      25.662   2.078  54.095  1.00  0.00     0.167 HD
BRANCH  10  12
HETATM   12  C10 UNL     1      26.853   0.416  53.440  1.00  0.00     0.059 C 
HETATM   13  C11 UNL     1      26.745  -0.878  53.161  1.00  0.00     0.031 C 
HETATM   14  C12 UNL     1      27.744  -1.918  53.075  1.00  0.00    -0.001 C 
HETATM   15  C13 UNL     1      29.043  -1.697  53.170  1.00  0.00    -0.023 C 
HETATM   16  C14 UNL     1      29.962  -0.560  53.364  1.00  0.00     0.056 C 
HETATM   17  C15 UNL     1      29.288   0.711  53.696  1.00  0.00     0.008 C 
HETATM   18  C16 UNL     1      28.049   1.195  53.753  1.00  0.00     0.049 C 
BRANCH  18  19
HETATM   19  N4  UNL     1      27.921   2.568  54.152  1.00  0.00    -0.398 N 
HETATM   20  H17 UNL     1      28.130   2.747  55.179  1.00  0.00     0.156 HD
HETATM   21  H18 UNL     1      27.638   3.226  53.386  1.00  0.00     0.156 HD
ENDBRANCH  18  19
ENDBRANCH  10  12
ENDBRANCH   6  10
BRANCH   1  22
HETATM   22  C5  UNL     1      19.264  -0.109  51.892  1.00  0.00     0.013 C 
HETATM   23  C3  UNL     1      17.962  -0.201  51.872  1.00  0.00    -0.017 C 
HETATM   24  C4  UNL     1      17.309  -1.021  52.950  1.00  0.00     0.052 C 
BRANCH  23  25
HETATM   25  C2  UNL     1      16.846   0.290  51.052  1.00  0.00     0.151 C 
HETATM   26  C1  UNL     1      16.400  -0.555  49.915  1.00  0.00     0.096 C 
HETATM   27  O1  UNL     1      16.147   1.359  51.132  1.00  0.00    -0.293 OA
ENDBRANCH  23  25
ENDBRANCH   1  22
TORSDOF 5
ENDMDL
MODEL 4
REMARK VINA RESULT:      -7.6      6.299     10.527
REMARK  5 active torsions:
REMARK  status: ('A' for Active; 'I' for Inactive)
REMARK    1  A    between atoms: C2_2  and  C3_4 
REMARK    2  A    between atoms: C5_6  and  C6_7 
REMARK    3  A    between atoms: C9_12  and  N3_13 
REMARK    4  A    between atoms: N3_13  and  C10_14 
REMARK    5  A    between atoms: C16_20  and  N4_21 
ROOT
HETATM    1  C6  UNL     1      23.939   1.134  51.971  1.00  0.00     0.033 C 
HETATM    2  C7  UNL     1      22.898   0.594  52.570  1.00  0.00     0.059 C 
HETATM    3  N1  UNL     1      22.974  -0.474  53.474  1.00  0.00    -0.242 NA
HETATM    4  C8  UNL     1      22.115  -1.173  54.113  1.00  0.00     0.235 C 
HETATM    5  N2  UNL     1      20.708  -1.113  54.133  1.00  0.00    -0.228 NA
HETATM    6  C9  UNL     1      19.815  -0.629  53.350  1.00  0.00     0.110 C 
HETATM    7  C17 UNL     1      19.953   0.087  52.065  1.00  0.00     0.116 C 
HETATM    8  P1  UNL     1      21.297   1.360  52.118  1.00  0.00    -0.067 P 
HETATM    9  H21 UNL     1      20.969   2.453  53.021  1.00  0.00     0.064 HD
ENDROOT
BRANCH   6  10
HETATM   10  N3  UNL     1      18.485  -0.838  53.843  1.00  0.00    -0.342 N 
HETATM   11  H10 UNL     1      18.141  -0.167  54.587  1.00  0.00     0.167 HD
BRANCH  10  12
HETATM   12  C10 UNL     1      17.609  -1.876  53.402  1.00  0.00     0.059 C 
HETATM   13  C11 UNL     1      17.864  -3.135  53.740  1.00  0.00     0.031 C 
HETATM   14  C12 UNL     1      17.161  -4.361  53.439  1.00  0.00    -0.001 C 
HETATM   15  C13 UNL     1      15.999  -4.404  52.811  1.00  0.00    -0.023 C 
HETATM   16  C14 UNL     1      15.023  -3.470  52.220  1.00  0.00     0.056 C 
HETATM   17  C15 UNL     1      15.488  -2.071  52.157  1.00  0.00     0.008 C 
HETATM   18  C16 UNL     1      16.510  -1.341  52.601  1.00  0.00     0.049 C 
BRANCH  18  19
HETATM   19  N4  UNL     1      16.497   0.051  52.248  1.00  0.00    -0.398 N 
HETATM   20  H17 UNL     1      16.032   0.681  52.968  1.00  0.00     0.156 HD
HETATM   21  H18 UNL     1      16.945   0.277  51.327  1.00  0.00     0.156 HD
ENDBRANCH  18  19
ENDBRANCH  10  12
ENDBRANCH   6  10
BRANCH   1  22
HETATM   22  C5  UNL     1      23.791   2.235  51.046  1.00  0.00     0.013 C 
HETATM   23  C3  UNL     1      24.713   2.970  50.484  1.00  0.00    -0.017 C 
HETATM   24  C4  UNL     1      24.258   4.061  49.554  1.00  0.00     0.052 C 
BRANCH  23  25
HETATM   25  C2  UNL     1      26.179   3.068  50.481  1.00  0.00     0.151 C 
HETATM   26  C1  UNL     1      26.815   3.876  49.410  1.00  0.00     0.096 C 
HETATM   27  O1  UNL     1      27.059   2.566  51.263  1.00  0.00    -0.293 OA
ENDBRANCH  23  25
ENDBRANCH   1  22
TORSDOF 5
ENDMDL
MODEL 5
REMARK VINA RESULT:      -7.5      2.291      2.851
REMARK  5 active torsions:
REMARK  status: ('A' for Active; 'I' for Inactive)
REMARK    1  A    between atoms: C2_2  and  C3_4 
REMARK    2  A    between atoms: C5_6  and  C6_7 
REMARK    3  A    between atoms: C9_12  and  N3_13 
REMARK    4  A    between atoms: N3_13  and  C10_14 
REMARK    5  A    between atoms: C16_20  and  N4_21 
ROOT
HETATM    1  C6  UNL     1      23.956   0.801  52.710  1.00  0.00     0.033 C 
HETATM    2  C7  UNL     1      24.447   1.733  51.919  1.00  0.00     0.059 C 
HETATM    3  N1  UNL     1      25.785   1.791  51.505  1.00  0.00    -0.242 NA
HETATM    4  C8  UNL     1      26.474   2.611  50.807  1.00  0.00     0.235 C 
HETATM    5  N2  UNL     1      26.110   3.814  50.171  1.00  0.00    -0.228 NA
HETATM    6  C9  UNL     1      25.150   4.652  50.310  1.00  0.00     0.110 C 
HETATM    7  C17 UNL     1      24.008   4.655  51.247  1.00  0.00     0.116 C 
HETATM    8  P1  UNL     1      23.220   2.985  51.388  1.00  0.00    -0.067 P 
HETATM    9  H21 UNL     1      22.572   2.587  50.148  1.00  0.00     0.064 HD
ENDROOT
BRANCH   6  10
HETATM   10  N3  UNL     1      25.241   5.745  49.386  1.00  0.00    -0.342 N 
HETATM   11  H10 UNL     1      24.387   5.940  48.791  1.00  0.00     0.167 HD
BRANCH  10  12
HETATM   12  C10 UNL     1      26.392   6.574  49.219  1.00  0.00     0.059 C 
HETATM   13  C11 UNL     1      27.389   6.163  48.442  1.00  0.00     0.031 C 
HETATM   14  C12 UNL     1      28.647   6.785  48.101  1.00  0.00    -0.001 C 
HETATM   15  C13 UNL     1      28.980   8.012  48.462  1.00  0.00    -0.023 C 
HETATM   16  C14 UNL     1      28.403   9.140  49.218  1.00  0.00     0.056 C 
HETATM   17  C15 UNL     1      27.145   8.816  49.920  1.00  0.00     0.008 C 
HETATM   18  C16 UNL     1      26.270   7.815  49.982  1.00  0.00     0.049 C 
BRANCH  18  19
HETATM   19  N4  UNL     1      25.153   8.002  50.864  1.00  0.00    -0.398 N 
HETATM   20  H17 UNL     1      24.328   8.510  50.425  1.00  0.00     0.156 HD
HETATM   21  H18 UNL     1      25.285   7.617  51.831  1.00  0.00     0.156 HD
ENDBRANCH  18  19
ENDBRANCH  10  12
ENDBRANCH   6  10
BRANCH   1  22
HETATM   22  C5  UNL     1      22.564   0.799  53.101  1.00  0.00     0.013 C 
HETATM   23  C3  UNL     1      21.941   0.006  53.930  1.00  0.00    -0.017 C 
HETATM   24  C4  UNL     1      20.471   0.243  54.143  1.00  0.00     0.052 C 
BRANCH  23  25
HETATM   25  C2  UNL     1      22.260  -1.141  54.789  1.00  0.00     0.151 C 
HETATM   26  C1  UNL     1      23.598  -1.172  55.432  1.00  0.00     0.096 C 
HETATM   27  O1  UNL     1      21.573  -2.173  55.108  1.00  0.00    -0.293 OA
ENDBRANCH  23  25
ENDBRANCH   1  22
TORSDOF 5
ENDMDL
MODEL 6
REMARK VINA RESULT:      -7.4      5.822      8.178
REMARK  5 active torsions:
REMARK  status: ('A' for Active; 'I' for Inactive)
REMARK    1  A    between atoms: C2_2  and  C3_4 
REMARK    2  A    between atoms: C5_6  and  C6_7 
REMARK    3  A    between atoms: C9_12  and  N3_13 
REMARK    4  A    between atoms: N3_13  and  C10_14 
REMARK    5  A    between atoms: C16_20  and  N4_21 
ROOT
HETATM    1  C6  UNL     1      19.157  -0.523  52.772  1.00  0.00     0.033 C 
HETATM    2  C7  UNL     1      20.451  -0.296  52.872  1.00  0.00     0.059 C 
HETATM    3  N1  UNL     1      21.200  -0.506  54.038  1.00  0.00    -0.242 NA
HETATM    4  C8  UNL     1      22.418  -0.307  54.370  1.00  0.00     0.235 C 
HETATM    5  N2  UNL     1      23.499   0.226  53.639  1.00  0.00    -0.228 NA
HETATM    6  C9  UNL     1      23.605   0.961  52.594  1.00  0.00     0.110 C 
HETATM    7  C17 UNL     1      22.564   1.549  51.726  1.00  0.00     0.116 C 
HETATM    8  P1  UNL     1      21.219   0.338  51.335  1.00  0.00    -0.067 P 
HETATM    9  H21 UNL     1      21.701  -0.755  50.504  1.00  0.00     0.064 HD
ENDROOT
BRANCH   6  10
HETATM   10  N3  UNL     1      24.971   1.228  52.251  1.00  0.00    -0.342 N 
HETATM   11  H10 UNL     1      25.152   2.064  51.627  1.00  0.00     0.167 HD
BRANCH  10  12
HETATM   12  C10 UNL     1      26.086   0.450  52.690  1.00  0.00     0.059 C 
HETATM   13  C11 UNL     1      26.201  -0.812  52.290  1.00  0.00     0.031 C 
HETATM   14  C12 UNL     1      27.207  -1.810  52.574  1.00  0.00    -0.001 C 
HETATM   15  C13 UNL     1      28.314  -1.563  53.252  1.00  0.00    -0.023 C 
HETATM   16  C14 UNL     1      28.973  -0.427  53.922  1.00  0.00     0.056 C 
HETATM   17  C15 UNL     1      28.136   0.785  54.020  1.00  0.00     0.008 C 
HETATM   18  C16 UNL     1      26.967   1.226  53.560  1.00  0.00     0.049 C 
BRANCH  18  19
HETATM   19  N4  UNL     1      26.582   2.548  53.969  1.00  0.00    -0.398 N 
HETATM   20  H17 UNL     1      27.275   3.025  54.618  1.00  0.00     0.156 HD
HETATM   21  H18 UNL     1      25.667   2.881  53.579  1.00  0.00     0.156 HD
ENDBRANCH  18  19
ENDBRANCH  10  12
ENDBRANCH   6  10
BRANCH   1  22
HETATM   22  C5  UNL     1      18.441  -0.283  51.538  1.00  0.00     0.013 C 
HETATM   23  C3  UNL     1      17.212   0.119  51.363  1.00  0.00    -0.017 C 
HETATM   24  C4  UNL     1      16.732   0.281  49.947  1.00  0.00     0.052 C 
BRANCH  23  25
HETATM   25  C2  UNL     1      16.058   0.493  52.191  1.00  0.00     0.151 C 
HETATM   26  C1  UNL     1      15.362   1.766  51.871  1.00  0.00     0.096 C 
HETATM   27  O1  UNL     1      15.506  -0.095  53.184  1.00  0.00    -0.293 OA
ENDBRANCH  23  25
ENDBRANCH   1  22
TORSDOF 5
ENDMDL
MODEL 7
REMARK VINA RESULT:      -7.3      1.800      2.189
REMARK  5 active torsions:
REMARK  status: ('A' for Active; 'I' for Inactive)
REMARK    1  A    between atoms: C2_2  and  C3_4 
REMARK    2  A    between atoms: C5_6  and  C6_7 
REMARK    3  A    between atoms: C9_12  and  N3_13 
REMARK    4  A    between atoms: N3_13  and  C10_14 
REMARK    5  A    between atoms: C16_20  and  N4_21 
ROOT
HETATM    1  C6  UNL     1      23.288   0.159  52.671  1.00  0.00     0.033 C 
HETATM    2  C7  UNL     1      23.191   1.251  51.941  1.00  0.00     0.059 C 
HETATM    3  N1  UNL     1      22.392   1.365  50.795  1.00  0.00    -0.242 NA
HETATM    4  C8  UNL     1      22.195   2.282  49.925  1.00  0.00     0.235 C 
HETATM    5  N2  UNL     1      22.744   3.574  49.807  1.00  0.00    -0.228 NA
HETATM    6  C9  UNL     1      23.793   4.154  50.261  1.00  0.00     0.110 C 
HETATM    7  C17 UNL     1      24.872   3.639  51.130  1.00  0.00     0.116 C 
HETATM    8  P1  UNL     1      24.211   2.647  52.547  1.00  0.00    -0.067 P 
HETATM    9  H21 UNL     1      23.460   3.473  53.481  1.00  0.00     0.064 HD
ENDROOT
BRANCH   6  10
HETATM   10  N3  UNL     1      23.893   5.518  49.833  1.00  0.00    -0.342 N 
HETATM   11  H10 UNL     1      22.983   6.040  49.684  1.00  0.00     0.167 HD
BRANCH  10  12
HETATM   12  C10 UNL     1      25.121   6.208  49.598  1.00  0.00     0.059 C 
HETATM   13  C11 UNL     1      25.998   5.708  48.733  1.00  0.00     0.031 C 
HETATM   14  C12 UNL     1      27.294   6.186  48.310  1.00  0.00    -0.001 C 
HETATM   15  C13 UNL     1      27.802   7.349  48.677  1.00  0.00    -0.023 C 
HETATM   16  C14 UNL     1      27.427   8.510  49.506  1.00  0.00     0.056 C 
HETATM   17  C15 UNL     1      26.196   8.315  50.296  1.00  0.00     0.008 C 
HETATM   18  C16 UNL     1      25.211   7.425  50.401  1.00  0.00     0.049 C 
BRANCH  18  19
HETATM   19  N4  UNL     1      24.195   7.713  51.374  1.00  0.00    -0.398 N 
HETATM   20  H17 UNL     1      23.935   6.888  51.992  1.00  0.00     0.156 HD
HETATM   21  H18 UNL     1      23.835   8.697  51.358  1.00  0.00     0.156 HD
ENDBRANCH  18  19
ENDBRANCH  10  12
ENDBRANCH   6  10
BRANCH   1  22
HETATM   22  C5  UNL     1      24.132   0.106  53.844  1.00  0.00     0.013 C 
HETATM   23  C3  UNL     1      25.351  -0.343  53.962  1.00  0.00    -0.017 C 
HETATM   24  C4  UNL     1      25.988  -0.271  55.323  1.00  0.00     0.052 C 
BRANCH  23  25
HETATM   25  C2  UNL     1      26.379  -0.948  53.104  1.00  0.00     0.151 C 
HETATM   26  C1  UNL     1      26.862  -0.159  51.943  1.00  0.00     0.096 C 
HETATM   27  O1  UNL     1      26.970  -2.082  53.167  1.00  0.00    -0.293 OA
ENDBRANCH  23  25
ENDBRANCH   1  22
TORSDOF 5
ENDMDL
MODEL 8
REMARK VINA RESULT:      -7.2      3.451      8.453
REMARK  5 active torsions:
REMARK  status: ('A' for Active; 'I' for Inactive)
REMARK    1  A    between atoms: C2_2  and  C3_4 
REMARK    2  A    between atoms: C5_6  and  C6_7 
REMARK    3  A    between atoms: C9_12  and  N3_13 
REMARK    4  A    between atoms: N3_13  and  C10_14 
REMARK    5  A    between atoms: C16_20  and  N4_21 
ROOT
HETATM    1  C6  UNL     1      25.335   6.955  50.252  1.00  0.00     0.033 C 
HETATM    2  C7  UNL     1      24.620   5.890  50.553  1.00  0.00     0.059 C 
HETATM    3  N1  UNL     1      23.639   5.857  51.553  1.00  0.00    -0.242 NA
HETATM    4  C8  UNL     1      22.885   4.947  52.041  1.00  0.00     0.235 C 
HETATM    5  N2  UNL     1      22.770   3.578  51.728  1.00  0.00    -0.228 NA
HETATM    6  C9  UNL     1      23.525   2.720  51.147  1.00  0.00     0.110 C 
HETATM    7  C17 UNL     1      24.872   2.870  50.559  1.00  0.00     0.116 C 
HETATM    8  P1  UNL     1      25.020   4.414  49.546  1.00  0.00    -0.067 P 
HETATM    9  H21 UNL     1      24.190   4.358  48.352  1.00  0.00     0.064 HD
ENDROOT
BRANCH   6  10
HETATM   10  N3  UNL     1      22.923   1.420  51.080  1.00  0.00    -0.342 N 
HETATM   11  H10 UNL     1      22.651   1.069  50.119  1.00  0.00     0.167 HD
BRANCH  10  12
HETATM   12  C10 UNL     1      22.672   0.582  52.209  1.00  0.00     0.059 C 
HETATM   13  C11 UNL     1      23.676   0.251  53.015  1.00  0.00     0.031 C 
HETATM   14  C12 UNL     1      23.709  -0.565  54.206  1.00  0.00    -0.001 C 
HETATM   15  C13 UNL     1      22.629  -1.066  54.781  1.00  0.00    -0.023 C 
HETATM   16  C14 UNL     1      21.168  -1.070  54.583  1.00  0.00     0.056 C 
HETATM   17  C15 UNL     1      20.731  -0.474  53.305  1.00  0.00     0.008 C 
HETATM   18  C16 UNL     1      21.262   0.207  52.292  1.00  0.00     0.049 C 
BRANCH  18  19
HETATM   19  N4  UNL     1      20.364   0.575  51.234  1.00  0.00    -0.398 N 
HETATM   20  H17 UNL     1      20.747   0.407  50.256  1.00  0.00     0.156 HD
HETATM   21  H18 UNL     1      19.444   0.965  51.551  1.00  0.00     0.156 HD
ENDBRANCH  18  19
ENDBRANCH  10  12
ENDBRANCH   6  10
BRANCH   1  22
HETATM   22  C5  UNL     1      26.335   6.923  49.208  1.00  0.00     0.013 C 
HETATM   23  C3  UNL     1      27.291   7.775  48.955  1.00  0.00    -0.017 C 
HETATM   24  C4  UNL     1      28.192   7.479  47.788  1.00  0.00     0.052 C 
BRANCH  23  25
HETATM   25  C2  UNL     1      27.800   9.038  49.505  1.00  0.00     0.151 C 
HETATM   26  C1  UNL     1      29.245   9.335  49.332  1.00  0.00     0.096 C 
HETATM   27  O1  UNL     1      27.210   9.982  50.136  1.00  0.00    -0.293 OA
ENDBRANCH  23  25
ENDBRANCH   1  22
TORSDOF 5
ENDMDL
MODEL 9
REMARK VINA RESULT:      -7.1      6.509      9.617
REMARK  5 active torsions:
REMARK  status: ('A' for Active; 'I' for Inactive)
REMARK    1  A    between atoms: C2_2  and  C3_4 
REMARK    2  A    between atoms: C5_6  and  C6_7 
REMARK    3  A    between atoms: C9_12  and  N3_13 
REMARK    4  A    between atoms: N3_13  and  C10_14 
REMARK    5  A    between atoms: C16_20  and  N4_21 
ROOT
HETATM    1  C6  UNL     1      22.501  -0.475  53.719  1.00  0.00     0.033 C 
HETATM    2  C7  UNL     1      21.220  -0.471  53.407  1.00  0.00     0.059 C 
HETATM    3  N1  UNL     1      20.286  -1.393  53.898  1.00  0.00    -0.242 NA
HETATM    4  C8  UNL     1      19.043  -1.607  53.692  1.00  0.00     0.235 C 
HETATM    5  N2  UNL     1      18.121  -0.954  52.851  1.00  0.00    -0.228 NA
HETATM    6  C9  UNL     1      18.220  -0.202  51.817  1.00  0.00     0.110 C 
HETATM    7  C17 UNL     1      19.414   0.279  51.092  1.00  0.00     0.116 C 
HETATM    8  P1  UNL     1      20.740   0.862  52.246  1.00  0.00    -0.067 P 
HETATM    9  H21 UNL     1      20.339   2.061  52.967  1.00  0.00     0.064 HD
ENDROOT
BRANCH   6  10
HETATM   10  N3  UNL     1      16.941   0.214  51.319  1.00  0.00    -0.342 N 
HETATM   11  H10 UNL     1      16.537  -0.344  50.515  1.00  0.00     0.167 HD
BRANCH  10  12
HETATM   12  C10 UNL     1      16.189   1.314  51.832  1.00  0.00     0.059 C 
HETATM   13  C11 UNL     1      16.584   2.556  51.570  1.00  0.00     0.031 C 
HETATM   14  C12 UNL     1      16.025   3.832  51.953  1.00  0.00    -0.001 C 
HETATM   15  C13 UNL     1      14.877   3.967  52.593  1.00  0.00    -0.023 C 
HETATM   16  C14 UNL     1      13.802   3.114  53.133  1.00  0.00     0.056 C 
HETATM   17  C15 UNL     1      14.106   1.669  53.105  1.00  0.00     0.008 C 
HETATM   18  C16 UNL     1      15.038   0.858  52.608  1.00  0.00     0.049 C 
BRANCH  18  19
HETATM   19  N4  UNL     1      14.868  -0.542  52.874  1.00  0.00    -0.398 N 
HETATM   20  H17 UNL     1      15.754  -1.120  52.762  1.00  0.00     0.156 HD
HETATM   21  H18 UNL     1      13.896  -0.826  53.146  1.00  0.00     0.156 HD
ENDBRANCH  18  19
ENDBRANCH  10  12
ENDBRANCH   6  10
BRANCH   1  22
HETATM   22  C5  UNL     1      23.414   0.506  53.176  1.00  0.00     0.013 C 
HETATM   23  C3  UNL     1      24.719   0.501  53.165  1.00  0.00    -0.017 C 
HETATM   24  C4  UNL     1      25.411   1.671  52.523  1.00  0.00     0.052 C 
BRANCH  23  25
HETATM   25  C2  UNL     1      25.810  -0.368  53.626  1.00  0.00     0.151 C 
HETATM   26  C1  UNL     1      26.581  -1.113  52.599  1.00  0.00     0.096 C 
HETATM   27  O1  UNL     1      26.248  -0.620  54.802  1.00  0.00    -0.293 OA
ENDBRANCH  23  25
ENDBRANCH   1  22
TORSDOF 5
ENDMDL
