MODEL 1
REMARK VINA RESULT:      -9.2      0.000      0.000
REMARK  5 active torsions:
REMARK  status: ('A' for Active; 'I' for Inactive)
REMARK    1  A    between atoms: O1_2  and  C2_3 
REMARK    2  A    between atoms: C5_6  and  C6_7 
REMARK    3  A    between atoms: N2_9  and  C7_10 
REMARK    4  A    between atoms: C8_12  and  O2_13 
REMARK    5  A    between atoms: C10_16  and  P1_17 
ROOT
HETATM    1  C6  UNL     1      25.345   2.419  51.303  1.00  0.00     0.071 A 
HETATM    2  N1  UNL     1      24.179   2.084  51.743  1.00  0.00    -0.169 NA
HETATM    3  N2  UNL     1      24.282   0.921  52.513  1.00  0.00    -0.211 N 
HETATM    4  C10 UNL     1      25.638   0.532  52.522  1.00  0.00     0.056 A 
HETATM    5  C16 UNL     1      26.419   1.482  51.801  1.00  0.00     0.122 A 
ENDROOT
BRANCH   1   6
HETATM    6  C5  UNL     1      25.666   3.544  50.476  1.00  0.00    -0.009 A 
HETATM    7  C4  UNL     1      26.806   3.510  49.709  1.00  0.00     0.016 A 
HETATM    8  C3  UNL     1      27.195   4.554  48.894  1.00  0.00     0.037 A 
HETATM    9  C2  UNL     1      26.377   5.691  48.859  1.00  0.00     0.068 A 
HETATM   10  C18 UNL     1      25.229   5.762  49.612  1.00  0.00     0.037 A 
HETATM   11  C17 UNL     1      24.886   4.691  50.409  1.00  0.00     0.016 A 
BRANCH   9  12
HETATM   12  O1  UNL     1      26.793   6.724  48.032  1.00  0.00    -0.356 OA
HETATM   13  C1  UNL     1      28.178   6.899  47.809  1.00  0.00     0.210 C 
ENDBRANCH   9  12
ENDBRANCH   1   6
BRANCH   3  14
HETATM   14  C7  UNL     1      23.409   0.051  53.278  1.00  0.00     0.196 A 
HETATM   15  N3  UNL     1      23.547  -0.640  54.314  1.00  0.00    -0.198 NA
HETATM   16  C8  UNL     1      22.489  -1.311  54.755  1.00  0.00     0.171 A 
HETATM   17  C9  UNL     1      21.115  -1.297  54.085  1.00  0.00     0.111 A 
HETATM   18  S1  UNL     1      21.617  -0.140  52.694  1.00  0.00    -0.058 SA
BRANCH  16  19
HETATM   19  O2  UNL     1      22.959  -1.986  55.927  1.00  0.00    -0.344 OA
HETATM   20  H6  UNL     1      22.440  -1.825  56.788  1.00  0.00     0.219 HD
ENDBRANCH  16  19
ENDBRANCH   3  14
BRANCH   4  21
HETATM   21  P1  UNL     1      26.581  -0.583  53.238  1.00  0.00    -0.021 P 
HETATM   22  C11 UNL     1      27.920   0.241  53.890  1.00  0.00     0.016 A 
HETATM   23  C12 UNL     1      29.245  -0.374  53.908  1.00  0.00     0.001 A 
HETATM   24  C13 UNL     1      29.377  -1.568  53.407  1.00  0.00     0.000 A 
HETATM   25  C14 UNL     1      28.451  -2.482  52.799  1.00  0.00     0.001 A 
HETATM   26  C15 UNL     1      27.133  -2.188  52.642  1.00  0.00     0.016 A 
ENDBRANCH   4  21
TORSDOF 5
ENDMDL
MODEL 2
REMARK VINA RESULT:      -8.8      2.993      7.589
REMARK  5 active torsions:
REMARK  status: ('A' for Active; 'I' for Inactive)
REMARK    1  A    between atoms: O1_2  and  C2_3 
REMARK    2  A    between atoms: C5_6  and  C6_7 
REMARK    3  A    between atoms: N2_9  and  C7_10 
REMARK    4  A    between atoms: C8_12  and  O2_13 
REMARK    5  A    between atoms: C10_16  and  P1_17 
ROOT
HETATM    1  C6  UNL     1      23.190   0.288  53.170  1.00  0.00     0.071 A 
HETATM    2  N1  UNL     1      24.245  -0.174  53.752  1.00  0.00    -0.169 NA
HETATM    3  N2  UNL     1      25.358   0.588  53.383  1.00  0.00    -0.211 N 
HETATM    4  C10 UNL     1      24.916   1.591  52.496  1.00  0.00     0.056 A 
HETATM    5  C16 UNL     1      23.502   1.509  52.339  1.00  0.00     0.122 A 
ENDROOT
BRANCH   1   6
HETATM    6  C5  UNL     1      21.852  -0.212  53.282  1.00  0.00    -0.009 A 
HETATM    7  C4  UNL     1      20.853   0.370  52.537  1.00  0.00     0.016 A 
HETATM    8  C3  UNL     1      19.537  -0.043  52.593  1.00  0.00     0.037 A 
HETATM    9  C2  UNL     1      19.224  -1.105  53.452  1.00  0.00     0.068 A 
HETATM   10  C18 UNL     1      20.196  -1.712  54.212  1.00  0.00     0.037 A 
HETATM   11  C17 UNL     1      21.495  -1.261  54.119  1.00  0.00     0.016 A 
BRANCH   9  12
HETATM   12  O1  UNL     1      17.894  -1.497  53.487  1.00  0.00    -0.356 OA
HETATM   13  C1  UNL     1      17.595  -2.875  53.581  1.00  0.00     0.210 C 
ENDBRANCH   9  12
ENDBRANCH   1   6
BRANCH   3  14
HETATM   14  C7  UNL     1      26.781   0.626  53.663  1.00  0.00     0.196 A 
HETATM   15  N3  UNL     1      27.538   1.431  54.254  1.00  0.00    -0.198 NA
HETATM   16  C8  UNL     1      28.825   1.118  54.342  1.00  0.00     0.171 A 
HETATM   17  C9  UNL     1      29.447  -0.158  53.773  1.00  0.00     0.111 A 
HETATM   18  S1  UNL     1      27.838  -0.834  53.079  1.00  0.00    -0.058 SA
BRANCH  16  19
HETATM   19  O2  UNL     1      29.409   2.212  55.056  1.00  0.00    -0.344 OA
HETATM   20  H6  UNL     1      28.837   2.648  55.776  1.00  0.00     0.219 HD
ENDBRANCH  16  19
ENDBRANCH   3  14
BRANCH   4  21
HETATM   21  P1  UNL     1      25.519   2.897  51.735  1.00  0.00    -0.021 P 
HETATM   22  C11 UNL     1      24.202   3.910  51.365  1.00  0.00     0.016 A 
HETATM   23  C12 UNL     1      24.180   4.693  50.132  1.00  0.00     0.001 A 
HETATM   24  C13 UNL     1      25.193   4.594  49.321  1.00  0.00     0.000 A 
HETATM   25  C14 UNL     1      26.412   3.835  49.365  1.00  0.00     0.001 A 
HETATM   26  C15 UNL     1      26.717   3.007  50.399  1.00  0.00     0.016 A 
ENDBRANCH   4  21
TORSDOF 5
ENDMDL
MODEL 3
REMARK VINA RESULT:      -8.6      2.601      4.524
REMARK  5 active torsions:
REMARK  status: ('A' for Active; 'I' for Inactive)
REMARK    1  A    between atoms: O1_2  and  C2_3 
REMARK    2  A    between atoms: C5_6  and  C6_7 
REMARK    3  A    between atoms: N2_9  and  C7_10 
REMARK    4  A    between atoms: C8_12  and  O2_13 
REMARK    5  A    between atoms: C10_16  and  P1_17 
ROOT
HETATM    1  C6  UNL     1      25.842   2.481  51.337  1.00  0.00     0.071 A 
HETATM    2  N1  UNL     1      27.018   1.984  51.520  1.00  0.00    -0.169 NA
HETATM    3  N2  UNL     1      26.924   0.820  52.289  1.00  0.00    -0.211 N 
HETATM    4  C10 UNL     1      25.561   0.615  52.591  1.00  0.00     0.056 A 
HETATM    5  C16 UNL     1      24.771   1.622  51.964  1.00  0.00     0.122 A 
ENDROOT
BRANCH   1   6
HETATM    6  C5  UNL     1      25.509   3.669  50.608  1.00  0.00    -0.009 A 
HETATM    7  C4  UNL     1      24.308   4.292  50.852  1.00  0.00     0.016 A 
HETATM    8  C3  UNL     1      23.906   5.433  50.188  1.00  0.00     0.037 A 
HETATM    9  C2  UNL     1      24.773   5.966  49.225  1.00  0.00     0.068 A 
HETATM   10  C18 UNL     1      25.983   5.371  48.954  1.00  0.00     0.037 A 
HETATM   11  C17 UNL     1      26.337   4.233  49.647  1.00  0.00     0.016 A 
BRANCH   9  12
HETATM   12  O1  UNL     1      24.341   7.112  48.574  1.00  0.00    -0.356 OA
HETATM   13  C1  UNL     1      25.154   7.662  47.556  1.00  0.00     0.210 C 
ENDBRANCH   9  12
ENDBRANCH   1   6
BRANCH   3  14
HETATM   14  C7  UNL     1      27.811  -0.194  52.828  1.00  0.00     0.196 A 
HETATM   15  N3  UNL     1      27.795  -1.446  52.860  1.00  0.00    -0.198 NA
HETATM   16  C8  UNL     1      28.822  -2.062  53.435  1.00  0.00     0.171 A 
HETATM   17  C9  UNL     1      30.021  -1.348  54.060  1.00  0.00     0.111 A 
HETATM   18  S1  UNL     1      29.405   0.384  53.673  1.00  0.00    -0.058 SA
BRANCH  16  19
HETATM   19  O2  UNL     1      28.515  -3.455  53.313  1.00  0.00    -0.344 OA
HETATM   20  H6  UNL     1      28.441  -3.827  52.368  1.00  0.00     0.219 HD
ENDBRANCH  16  19
ENDBRANCH   3  14
BRANCH   4  21
HETATM   21  P1  UNL     1      24.627  -0.510  53.304  1.00  0.00    -0.021 P 
HETATM   22  C11 UNL     1      23.018  -0.176  52.856  1.00  0.00     0.016 A 
HETATM   23  C12 UNL     1      21.917  -0.402  53.790  1.00  0.00     0.001 A 
HETATM   24  C13 UNL     1      22.198  -0.861  54.976  1.00  0.00     0.000 A 
HETATM   25  C14 UNL     1      23.431  -1.220  55.619  1.00  0.00     0.001 A 
HETATM   26  C15 UNL     1      24.635  -1.118  54.996  1.00  0.00     0.016 A 
ENDBRANCH   4  21
TORSDOF 5
ENDMDL
MODEL 4
REMARK VINA RESULT:      -8.3      2.538      7.130
REMARK  5 active torsions:
REMARK  status: ('A' for Active; 'I' for Inactive)
REMARK    1  A    between atoms: O1_2  and  C2_3 
REMARK    2  A    between atoms: C5_6  and  C6_7 
REMARK    3  A    between atoms: N2_9  and  C7_10 
REMARK    4  A    between atoms: C8_12  and  O2_13 
REMARK    5  A    between atoms: C10_16  and  P1_17 
ROOT
HETATM    1  C6  UNL     1      22.989   1.160  52.031  1.00  0.00     0.071 A 
HETATM    2  N1  UNL     1      23.079   2.199  51.271  1.00  0.00    -0.169 NA
HETATM    3  N2  UNL     1      24.423   2.555  51.117  1.00  0.00    -0.211 N 
HETATM    4  C10 UNL     1      25.197   1.641  51.862  1.00  0.00     0.056 A 
HETATM    5  C16 UNL     1      24.350   0.658  52.451  1.00  0.00     0.122 A 
ENDROOT
BRANCH   1   6
HETATM    6  C5  UNL     1      21.792   0.487  52.436  1.00  0.00    -0.009 A 
HETATM    7  C4  UNL     1      20.666   0.589  51.653  1.00  0.00     0.016 A 
HETATM    8  C3  UNL     1      19.469  -0.019  51.975  1.00  0.00     0.037 A 
HETATM    9  C2  UNL     1      19.417  -0.770  53.156  1.00  0.00     0.068 A 
HETATM   10  C18 UNL     1      20.523  -0.895  53.965  1.00  0.00     0.037 A 
HETATM   11  C17 UNL     1      21.694  -0.268  53.597  1.00  0.00     0.016 A 
BRANCH   9  12
HETATM   12  O1  UNL     1      18.202  -1.367  53.454  1.00  0.00    -0.356 OA
HETATM   13  C1  UNL     1      17.055  -0.970  52.730  1.00  0.00     0.210 C 
ENDBRANCH   9  12
ENDBRANCH   1   6
BRANCH   3  14
HETATM   14  C7  UNL     1      25.200   3.563  50.420  1.00  0.00     0.196 A 
HETATM   15  N3  UNL     1      26.275   3.552  49.776  1.00  0.00    -0.198 NA
HETATM   16  C8  UNL     1      26.684   4.695  49.237  1.00  0.00     0.171 A 
HETATM   17  C9  UNL     1      25.933   6.022  49.350  1.00  0.00     0.111 A 
HETATM   18  S1  UNL     1      24.522   5.331  50.378  1.00  0.00    -0.058 SA
BRANCH  16  19
HETATM   19  O2  UNL     1      27.912   4.360  48.584  1.00  0.00    -0.344 OA
HETATM   20  H6  UNL     1      28.656   5.055  48.621  1.00  0.00     0.219 HD
ENDBRANCH  16  19
ENDBRANCH   3  14
BRANCH   4  21
HETATM   21  P1  UNL     1      26.766   1.292  52.110  1.00  0.00    -0.021 P 
HETATM   22  C11 UNL     1      26.873  -0.393  52.330  1.00  0.00     0.016 A 
HETATM   23  C12 UNL     1      27.839  -0.968  53.263  1.00  0.00     0.001 A 
HETATM   24  C13 UNL     1      28.613  -0.160  53.927  1.00  0.00     0.000 A 
HETATM   25  C14 UNL     1      28.742   1.271  53.952  1.00  0.00     0.001 A 
HETATM   26  C15 UNL     1      27.972   2.086  53.183  1.00  0.00     0.016 A 
ENDBRANCH   4  21
TORSDOF 5
ENDMDL
MODEL 5
REMARK VINA RESULT:      -8.1      3.519      7.886
REMARK  5 active torsions:
REMARK  status: ('A' for Active; 'I' for Inactive)
REMARK    1  A    between atoms: O1_2  and  C2_3 
REMARK    2  A    between atoms: C5_6  and  C6_7 
REMARK    3  A    between atoms: N2_9  and  C7_10 
REMARK    4  A    between atoms: C8_12  and  O2_13 
REMARK    5  A    between atoms: C10_16  and  P1_17 
ROOT
HETATM    1  C6  UNL     1      20.646   0.861  52.202  1.00  0.00     0.071 A 
HETATM    2  N1  UNL     1      20.746   2.070  51.764  1.00  0.00    -0.169 NA
HETATM    3  N2  UNL     1      22.084   2.474  51.795  1.00  0.00    -0.211 N 
HETATM    4  C10 UNL     1      22.844   1.401  52.305  1.00  0.00     0.056 A 
HETATM    5  C16 UNL     1      21.996   0.282  52.550  1.00  0.00     0.122 A 
ENDROOT
BRANCH   1   6
HETATM    6  C5  UNL     1      19.449   0.085  52.334  1.00  0.00    -0.009 A 
HETATM    7  C4  UNL     1      18.427   0.271  51.433  1.00  0.00     0.016 A 
HETATM    8  C3  UNL     1      17.237  -0.427  51.493  1.00  0.00     0.037 A 
HETATM    9  C2  UNL     1      17.082  -1.362  52.525  1.00  0.00     0.068 A 
HETATM   10  C18 UNL     1      18.082  -1.574  53.445  1.00  0.00     0.037 A 
HETATM   11  C17 UNL     1      19.251  -0.851  53.339  1.00  0.00     0.016 A 
BRANCH   9  12
HETATM   12  O1  UNL     1      15.876  -2.046  52.561  1.00  0.00    -0.356 OA
HETATM   13  C1  UNL     1      15.094  -2.105  51.385  1.00  0.00     0.210 C 
ENDBRANCH   9  12
ENDBRANCH   1   6
BRANCH   3  14
HETATM   14  C7  UNL     1      22.867   3.646  51.450  1.00  0.00     0.196 A 
HETATM   15  N3  UNL     1      23.242   4.665  52.075  1.00  0.00    -0.198 NA
HETATM   16  C8  UNL     1      23.993   5.547  51.424  1.00  0.00     0.171 A 
HETATM   17  C9  UNL     1      24.429   5.403  49.966  1.00  0.00     0.111 A 
HETATM   18  S1  UNL     1      23.561   3.760  49.691  1.00  0.00    -0.058 SA
BRANCH  16  19
HETATM   19  O2  UNL     1      24.251   6.574  52.387  1.00  0.00    -0.344 OA
HETATM   20  H6  UNL     1      24.906   7.304  52.114  1.00  0.00     0.219 HD
ENDBRANCH  16  19
ENDBRANCH   3  14
BRANCH   4  21
HETATM   21  P1  UNL     1      24.407   1.019  52.543  1.00  0.00    -0.021 P 
HETATM   22  C11 UNL     1      24.436  -0.369  53.529  1.00  0.00     0.016 A 
HETATM   23  C12 UNL     1      25.484  -0.557  54.529  1.00  0.00     0.001 A 
HETATM   24  C13 UNL     1      26.393   0.366  54.652  1.00  0.00     0.000 A 
HETATM   25  C14 UNL     1      26.615   1.616  53.980  1.00  0.00     0.001 A 
HETATM   26  C15 UNL     1      25.799   2.067  52.990  1.00  0.00     0.016 A 
ENDBRANCH   4  21
TORSDOF 5
ENDMDL
MODEL 6
REMARK VINA RESULT:      -8.0      2.662      3.574
REMARK  5 active torsions:
REMARK  status: ('A' for Active; 'I' for Inactive)
REMARK    1  A    between atoms: O1_2  and  C2_3 
REMARK    2  A    between atoms: C5_6  and  C6_7 
REMARK    3  A    between atoms: N2_9  and  C7_10 
REMARK    4  A    between atoms: C8_12  and  O2_13 
REMARK    5  A    between atoms: C10_16  and  P1_17 
ROOT
HETATM    1  C6  UNL     1      25.667   4.484  49.618  1.00  0.00     0.071 A 
HETATM    2  N1  UNL     1      24.384   4.432  49.491  1.00  0.00    -0.169 NA
HETATM    3  N2  UNL     1      23.863   3.473  50.366  1.00  0.00    -0.211 N 
HETATM    4  C10 UNL     1      24.943   2.904  51.071  1.00  0.00     0.056 A 
HETATM    5  C16 UNL     1      26.159   3.541  50.689  1.00  0.00     0.122 A 
ENDROOT
BRANCH   1   6
HETATM    6  C5  UNL     1      26.573   5.331  48.901  1.00  0.00    -0.009 A 
HETATM    7  C4  UNL     1      27.870   4.917  48.707  1.00  0.00     0.016 A 
HETATM    8  C3  UNL     1      28.808   5.675  48.037  1.00  0.00     0.037 A 
HETATM    9  C2  UNL     1      28.404   6.921  47.539  1.00  0.00     0.068 A 
HETATM   10  C18 UNL     1      27.115   7.369  47.713  1.00  0.00     0.037 A 
HETATM   11  C17 UNL     1      26.217   6.572  48.389  1.00  0.00     0.016 A 
BRANCH   9  12
HETATM   12  O1  UNL     1      29.369   7.660  46.872  1.00  0.00    -0.356 OA
HETATM   13  C1  UNL     1      30.707   7.204  46.890  1.00  0.00     0.210 C 
ENDBRANCH   9  12
ENDBRANCH   1   6
BRANCH   3  14
HETATM   14  C7  UNL     1      22.565   2.938  50.732  1.00  0.00     0.196 A 
HETATM   15  N3  UNL     1      21.688   3.259  51.567  1.00  0.00    -0.198 NA
HETATM   16  C8  UNL     1      20.578   2.530  51.608  1.00  0.00     0.171 A 
HETATM   17  C9  UNL     1      20.298   1.329  50.705  1.00  0.00     0.111 A 
HETATM   18  S1  UNL     1      21.929   1.430  49.779  1.00  0.00    -0.058 SA
BRANCH  16  19
HETATM   19  O2  UNL     1      19.793   3.135  52.640  1.00  0.00    -0.344 OA
HETATM   20  H6  UNL     1      20.000   2.856  53.597  1.00  0.00     0.219 HD
ENDBRANCH  16  19
ENDBRANCH   3  14
BRANCH   4  21
HETATM   21  P1  UNL     1      25.184   1.858  52.293  1.00  0.00    -0.021 P 
HETATM   22  C11 UNL     1      26.690   1.112  52.020  1.00  0.00     0.016 A 
HETATM   23  C12 UNL     1      26.908  -0.289  52.372  1.00  0.00     0.001 A 
HETATM   24  C13 UNL     1      25.920  -0.955  52.895  1.00  0.00     0.000 A 
HETATM   25  C14 UNL     1      24.569  -0.600  53.228  1.00  0.00     0.001 A 
HETATM   26  C15 UNL     1      24.069   0.647  53.016  1.00  0.00     0.016 A 
ENDBRANCH   4  21
TORSDOF 5
ENDMDL
MODEL 7
REMARK VINA RESULT:      -8.0      5.153      8.748
REMARK  5 active torsions:
REMARK  status: ('A' for Active; 'I' for Inactive)
REMARK    1  A    between atoms: O1_2  and  C2_3 
REMARK    2  A    between atoms: C5_6  and  C6_7 
REMARK    3  A    between atoms: N2_9  and  C7_10 
REMARK    4  A    between atoms: C8_12  and  O2_13 
REMARK    5  A    between atoms: C10_16  and  P1_17 
ROOT
HETATM    1  C6  UNL     1      21.013  -0.308  53.105  1.00  0.00     0.071 A 
HETATM    2  N1  UNL     1      20.659   0.505  52.167  1.00  0.00    -0.169 NA
HETATM    3  N2  UNL     1      19.300   0.332  51.883  1.00  0.00    -0.211 N 
HETATM    4  C10 UNL     1      18.810  -0.682  52.731  1.00  0.00     0.056 A 
HETATM    5  C16 UNL     1      19.845  -1.124  53.606  1.00  0.00     0.122 A 
ENDROOT
BRANCH   1   6
HETATM    6  C5  UNL     1      22.317  -0.447  53.680  1.00  0.00    -0.009 A 
HETATM    7  C4  UNL     1      23.393   0.137  53.055  1.00  0.00     0.016 A 
HETATM    8  C3  UNL     1      24.684   0.043  53.536  1.00  0.00     0.037 A 
HETATM    9  C2  UNL     1      24.888  -0.685  54.715  1.00  0.00     0.068 A 
HETATM   10  C18 UNL     1      23.836  -1.283  55.369  1.00  0.00     0.037 A 
HETATM   11  C17 UNL     1      22.567  -1.158  54.847  1.00  0.00     0.016 A 
BRANCH   9  12
HETATM   12  O1  UNL     1      26.194  -0.763  55.173  1.00  0.00    -0.356 OA
HETATM   13  C1  UNL     1      27.122   0.215  54.747  1.00  0.00     0.210 C 
ENDBRANCH   9  12
ENDBRANCH   1   6
BRANCH   3  14
HETATM   14  C7  UNL     1      18.303   0.898  50.994  1.00  0.00     0.196 A 
HETATM   15  N3  UNL     1      17.741   0.508  49.944  1.00  0.00    -0.198 NA
HETATM   16  C8  UNL     1      16.829   1.305  49.398  1.00  0.00     0.171 A 
HETATM   17  C9  UNL     1      16.420   2.666  49.963  1.00  0.00     0.111 A 
HETATM   18  S1  UNL     1      17.589   2.597  51.431  1.00  0.00    -0.058 SA
BRANCH  16  19
HETATM   19  O2  UNL     1      16.382   0.594  48.240  1.00  0.00    -0.344 OA
HETATM   20  H6  UNL     1      16.661  -0.383  48.165  1.00  0.00     0.219 HD
ENDBRANCH  16  19
ENDBRANCH   3  14
BRANCH   4  21
HETATM   21  P1  UNL     1      17.386  -1.374  53.107  1.00  0.00    -0.021 P 
HETATM   22  C11 UNL     1      17.736  -2.891  53.795  1.00  0.00     0.016 A 
HETATM   23  C12 UNL     1      16.865  -4.040  53.562  1.00  0.00     0.001 A 
HETATM   24  C13 UNL     1      15.815  -3.876  52.810  1.00  0.00     0.000 A 
HETATM   25  C14 UNL     1      15.282  -2.742  52.108  1.00  0.00     0.001 A 
HETATM   26  C15 UNL     1      15.879  -1.520  52.137  1.00  0.00     0.016 A 
ENDBRANCH   4  21
TORSDOF 5
ENDMDL
MODEL 8
REMARK VINA RESULT:      -8.0      1.637      2.250
REMARK  5 active torsions:
REMARK  status: ('A' for Active; 'I' for Inactive)
REMARK    1  A    between atoms: O1_2  and  C2_3 
REMARK    2  A    between atoms: C5_6  and  C6_7 
REMARK    3  A    between atoms: N2_9  and  C7_10 
REMARK    4  A    between atoms: C8_12  and  O2_13 
REMARK    5  A    between atoms: C10_16  and  P1_17 
ROOT
HETATM    1  C6  UNL     1      25.717   3.770  50.137  1.00  0.00     0.071 A 
HETATM    2  N1  UNL     1      24.456   3.511  50.215  1.00  0.00    -0.169 NA
HETATM    3  N2  UNL     1      24.249   2.431  51.079  1.00  0.00    -0.211 N 
HETATM    4  C10 UNL     1      25.511   2.012  51.550  1.00  0.00     0.056 A 
HETATM    5  C16 UNL     1      26.528   2.864  51.031  1.00  0.00     0.122 A 
ENDROOT
BRANCH   1   6
HETATM    6  C5  UNL     1      26.342   4.797  49.357  1.00  0.00    -0.009 A 
HETATM    7  C4  UNL     1      25.609   5.902  48.992  1.00  0.00     0.016 A 
HETATM    8  C3  UNL     1      26.130   6.931  48.233  1.00  0.00     0.037 A 
HETATM    9  C2  UNL     1      27.467   6.828  47.826  1.00  0.00     0.068 A 
HETATM   10  C18 UNL     1      28.231   5.737  48.172  1.00  0.00     0.037 A 
HETATM   11  C17 UNL     1      27.662   4.738  48.931  1.00  0.00     0.016 A 
BRANCH   9  12
HETATM   12  O1  UNL     1      27.962   7.875  47.064  1.00  0.00    -0.356 OA
HETATM   13  C1  UNL     1      29.260   7.763  46.517  1.00  0.00     0.210 C 
ENDBRANCH   9  12
ENDBRANCH   1   6
BRANCH   3  14
HETATM   14  C7  UNL     1      23.134   1.665  51.604  1.00  0.00     0.196 A 
HETATM   15  N3  UNL     1      22.792   1.284  52.748  1.00  0.00    -0.198 NA
HETATM   16  C8  UNL     1      21.659   0.601  52.858  1.00  0.00     0.171 A 
HETATM   17  C9  UNL     1      20.743   0.248  51.685  1.00  0.00     0.111 A 
HETATM   18  S1  UNL     1      21.811   1.078  50.382  1.00  0.00    -0.058 SA
BRANCH  16  19
HETATM   19  O2  UNL     1      21.549   0.317  54.257  1.00  0.00    -0.344 OA
HETATM   20  H6  UNL     1      22.419   0.269  54.784  1.00  0.00     0.219 HD
ENDBRANCH  16  19
ENDBRANCH   3  14
BRANCH   4  21
HETATM   21  P1  UNL     1      26.120   0.953  52.625  1.00  0.00    -0.021 P 
HETATM   22  C11 UNL     1      27.591   1.602  53.184  1.00  0.00     0.016 A 
HETATM   23  C12 UNL     1      28.723   0.734  53.499  1.00  0.00     0.001 A 
HETATM   24  C13 UNL     1      28.579  -0.550  53.339  1.00  0.00     0.000 A 
HETATM   25  C14 UNL     1      27.484  -1.363  52.889  1.00  0.00     0.001 A 
HETATM   26  C15 UNL     1      26.286  -0.834  52.521  1.00  0.00     0.016 A 
ENDBRANCH   4  21
TORSDOF 5
ENDMDL
MODEL 9
REMARK VINA RESULT:      -8.0      4.114      7.376
REMARK  5 active torsions:
REMARK  status: ('A' for Active; 'I' for Inactive)
REMARK    1  A    between atoms: O1_2  and  C2_3 
REMARK    2  A    between atoms: C5_6  and  C6_7 
REMARK    3  A    between atoms: N2_9  and  C7_10 
REMARK    4  A    between atoms: C8_12  and  O2_13 
REMARK    5  A    between atoms: C10_16  and  P1_17 
ROOT
HETATM    1  C6  UNL     1      23.406   2.045  52.605  1.00  0.00     0.071 A 
HETATM    2  N1  UNL     1      22.168   1.682  52.609  1.00  0.00    -0.169 NA
HETATM    3  N2  UNL     1      21.399   2.625  51.919  1.00  0.00    -0.211 N 
HETATM    4  C10 UNL     1      22.268   3.642  51.471  1.00  0.00     0.056 A 
HETATM    5  C16 UNL     1      23.611   3.321  51.826  1.00  0.00     0.122 A 
ENDROOT
BRANCH   1   6
HETATM    6  C5  UNL     1      24.509   1.356  53.206  1.00  0.00    -0.009 A 
HETATM    7  C4  UNL     1      25.666   2.049  53.476  1.00  0.00     0.016 A 
HETATM    8  C3  UNL     1      26.779   1.460  54.044  1.00  0.00     0.037 A 
HETATM    9  C2  UNL     1      26.707   0.096  54.352  1.00  0.00     0.068 A 
HETATM   10  C18 UNL     1      25.567  -0.630  54.097  1.00  0.00     0.037 A 
HETATM   11  C17 UNL     1      24.484   0.006  53.530  1.00  0.00     0.016 A 
BRANCH   9  12
HETATM   12  O1  UNL     1      27.840  -0.467  54.920  1.00  0.00    -0.356 OA
HETATM   13  C1  UNL     1      29.094  -0.232  54.311  1.00  0.00     0.210 C 
ENDBRANCH   9  12
ENDBRANCH   1   6
BRANCH   3  14
HETATM   14  C7  UNL     1      20.010   2.824  51.549  1.00  0.00     0.196 A 
HETATM   15  N3  UNL     1      19.033   3.398  52.084  1.00  0.00    -0.198 NA
HETATM   16  C8  UNL     1      17.881   3.402  51.424  1.00  0.00     0.171 A 
HETATM   17  C9  UNL     1      17.665   2.754  50.056  1.00  0.00     0.111 A 
HETATM   18  S1  UNL     1      19.429   2.130  49.885  1.00  0.00    -0.058 SA
BRANCH  16  19
HETATM   19  O2  UNL     1      16.984   4.119  52.278  1.00  0.00    -0.344 OA
HETATM   20  H6  UNL     1      16.371   3.562  52.870  1.00  0.00     0.219 HD
ENDBRANCH  16  19
ENDBRANCH   3  14
BRANCH   4  21
HETATM   21  P1  UNL     1      22.207   4.976  50.542  1.00  0.00    -0.021 P 
HETATM   22  C11 UNL     1      23.755   5.682  50.581  1.00  0.00     0.016 A 
HETATM   23  C12 UNL     1      23.919   7.133  50.558  1.00  0.00     0.001 A 
HETATM   24  C13 UNL     1      22.850   7.874  50.510  1.00  0.00     0.000 A 
HETATM   25  C14 UNL     1      21.447   7.567  50.474  1.00  0.00     0.001 A 
HETATM   26  C15 UNL     1      20.980   6.290  50.483  1.00  0.00     0.016 A 
ENDBRANCH   4  21
TORSDOF 5
ENDMDL
