MODEL 1
REMARK VINA RESULT:      -8.9      0.000      0.000
REMARK  4 active torsions:
REMARK  status: ('A' for Active; 'I' for Inactive)
REMARK    1  A    between atoms: C5_5  and  C6_6 
REMARK    2  A    between atoms: N2_8  and  C7_9 
REMARK    3  A    between atoms: C8_11  and  O1_12 
REMARK    4  A    between atoms: C10_15  and  C11_16 
ROOT
HETATM    1  C6  UNL     1      22.855   1.014  52.869  1.00  0.00     0.067 C 
HETATM    2  N1  UNL     1      23.951   0.937  53.549  1.00  0.00    -0.173 NA
HETATM    3  N2  UNL     1      24.905   1.860  53.075  1.00  0.00    -0.236 N 
HETATM    4  C10 UNL     1      24.150   2.895  52.422  1.00  0.00     0.151 C 
HETATM    5  C17 UNL     1      23.010   2.061  51.826  1.00  0.00     0.094 C 
ENDROOT
BRANCH   1   6
HETATM    6  C5  UNL     1      21.652   0.187  53.102  1.00  0.00    -0.010 A 
HETATM    7  C4  UNL     1      20.521   0.514  52.381  1.00  0.00     0.014 A 
HETATM    8  C3  UNL     1      19.362  -0.187  52.523  1.00  0.00     0.007 A 
HETATM    9  C2  UNL     1      19.339  -1.238  53.409  1.00  0.00    -0.062 A 
HETATM   10  C1  UNL     1      18.095  -2.022  53.588  1.00  0.00     0.048 C 
HETATM   11  C19 UNL     1      20.487  -1.544  54.119  1.00  0.00     0.007 A 
HETATM   12  C18 UNL     1      21.692  -0.845  53.995  1.00  0.00     0.014 A 
ENDBRANCH   1   6
BRANCH   3  13
HETATM   13  C7  UNL     1      26.279   1.562  53.343  1.00  0.00     0.192 A 
HETATM   14  N3  UNL     1      27.265   2.215  53.868  1.00  0.00    -0.198 NA
HETATM   15  C8  UNL     1      28.429   1.563  53.941  1.00  0.00     0.171 A 
HETATM   16  C9  UNL     1      28.712   0.217  53.504  1.00  0.00     0.111 A 
HETATM   17  S1  UNL     1      26.955  -0.158  52.872  1.00  0.00    -0.058 SA
BRANCH  15  18
HETATM   18  O1  UNL     1      29.405   2.397  54.531  1.00  0.00    -0.344 OA
HETATM   19  H6  UNL     1      29.366   3.378  54.329  1.00  0.00     0.219 HD
ENDBRANCH  15  18
ENDBRANCH   3  13
BRANCH   4  20
HETATM   20  C11 UNL     1      24.877   3.638  51.389  1.00  0.00    -0.033 A 
HETATM   21  C12 UNL     1      25.868   3.073  50.636  1.00  0.00     0.011 A 
HETATM   22  C13 UNL     1      26.505   3.844  49.681  1.00  0.00     0.019 A 
HETATM   23  C14 UNL     1      26.166   5.178  49.467  1.00  0.00     0.011 A 
HETATM   24 BR1  UNL     1      27.027   6.264  48.157  1.00  0.00    -0.051 Br
HETATM   25  C15 UNL     1      25.167   5.727  50.233  1.00  0.00     0.019 A 
HETATM   26  C16 UNL     1      24.526   4.964  51.189  1.00  0.00     0.011 A 
ENDBRANCH   4  20
TORSDOF 4
ENDMDL
MODEL 2
REMARK VINA RESULT:      -8.7      3.837      6.935
REMARK  4 active torsions:
REMARK  status: ('A' for Active; 'I' for Inactive)
REMARK    1  A    between atoms: C5_5  and  C6_6 
REMARK    2  A    between atoms: N2_8  and  C7_9 
REMARK    3  A    between atoms: C8_11  and  O1_12 
REMARK    4  A    between atoms: C10_15  and  C11_16 
ROOT
HETATM    1  C6  UNL     1      25.303   1.450  52.672  1.00  0.00     0.067 C 
HETATM    2  N1  UNL     1      25.120   2.713  52.466  1.00  0.00    -0.173 NA
HETATM    3  N2  UNL     1      23.763   2.989  52.199  1.00  0.00    -0.236 N 
HETATM    4  C10 UNL     1      23.025   1.908  52.792  1.00  0.00     0.151 C 
HETATM    5  C17 UNL     1      23.999   0.750  52.548  1.00  0.00     0.094 C 
ENDROOT
BRANCH   1   6
HETATM    6  C5  UNL     1      26.605   0.822  52.978  1.00  0.00    -0.010 A 
HETATM    7  C4  UNL     1      26.702  -0.541  52.778  1.00  0.00     0.014 A 
HETATM    8  C3  UNL     1      27.859  -1.214  53.029  1.00  0.00     0.007 A 
HETATM    9  C2  UNL     1      28.941  -0.503  53.493  1.00  0.00    -0.062 A 
HETATM   10  C1  UNL     1      30.215  -1.204  53.777  1.00  0.00     0.048 C 
HETATM   11  C19 UNL     1      28.816   0.861  53.685  1.00  0.00     0.007 A 
HETATM   12  C18 UNL     1      27.644   1.582  53.435  1.00  0.00     0.014 A 
ENDBRANCH   1   6
BRANCH   3  13
HETATM   13  C7  UNL     1      23.481   4.184  51.462  1.00  0.00     0.192 A 
HETATM   14  N3  UNL     1      23.365   5.434  51.771  1.00  0.00    -0.198 NA
HETATM   15  C8  UNL     1      23.086   6.265  50.761  1.00  0.00     0.171 A 
HETATM   16  C9  UNL     1      22.902   5.927  49.370  1.00  0.00     0.111 A 
HETATM   17  S1  UNL     1      23.189   4.056  49.582  1.00  0.00    -0.058 SA
BRANCH  15  18
HETATM   18  O1  UNL     1      22.987   7.588  51.247  1.00  0.00    -0.344 OA
HETATM   19  H6  UNL     1      23.831   8.123  51.319  1.00  0.00     0.219 HD
ENDBRANCH  15  18
ENDBRANCH   3  13
BRANCH   4  20
HETATM   20  C11 UNL     1      21.712   1.649  52.195  1.00  0.00    -0.033 A 
HETATM   21  C12 UNL     1      20.558   2.184  52.695  1.00  0.00     0.011 A 
HETATM   22  C13 UNL     1      19.359   1.891  52.071  1.00  0.00     0.019 A 
HETATM   23  C14 UNL     1      19.296   1.066  50.950  1.00  0.00     0.011 A 
HETATM   24 BR1  UNL     1      17.656   0.645  50.071  1.00  0.00    -0.051 Br
HETATM   25  C15 UNL     1      20.466   0.539  50.463  1.00  0.00     0.019 A 
HETATM   26  C16 UNL     1      21.667   0.827  51.079  1.00  0.00     0.011 A 
ENDBRANCH   4  20
TORSDOF 4
ENDMDL
MODEL 3
REMARK VINA RESULT:      -8.6      3.301      4.813
REMARK  4 active torsions:
REMARK  status: ('A' for Active; 'I' for Inactive)
REMARK    1  A    between atoms: C5_5  and  C6_6 
REMARK    2  A    between atoms: N2_8  and  C7_9 
REMARK    3  A    between atoms: C8_11  and  O1_12 
REMARK    4  A    between atoms: C10_15  and  C11_16 
ROOT
HETATM    1  C6  UNL     1      20.593   0.393  52.191  1.00  0.00     0.067 C 
HETATM    2  N1  UNL     1      20.879   1.558  51.712  1.00  0.00    -0.173 NA
HETATM    3  N2  UNL     1      22.264   1.808  51.787  1.00  0.00    -0.236 N 
HETATM    4  C10 UNL     1      22.889   0.514  51.836  1.00  0.00     0.151 C 
HETATM    5  C17 UNL     1      21.846  -0.258  52.652  1.00  0.00     0.094 C 
ENDROOT
BRANCH   1   6
HETATM    6  C5  UNL     1      19.233  -0.184  52.265  1.00  0.00    -0.010 A 
HETATM    7  C4  UNL     1      18.364   0.138  51.241  1.00  0.00     0.014 A 
HETATM    8  C3  UNL     1      17.090  -0.343  51.216  1.00  0.00     0.007 A 
HETATM    9  C2  UNL     1      16.681  -1.163  52.241  1.00  0.00    -0.062 A 
HETATM   10  C1  UNL     1      15.301  -1.704  52.245  1.00  0.00     0.048 C 
HETATM   11  C19 UNL     1      17.573  -1.468  53.254  1.00  0.00     0.007 A 
HETATM   12  C18 UNL     1      18.886  -0.993  53.308  1.00  0.00     0.014 A 
ENDBRANCH   1   6
BRANCH   3  13
HETATM   13  C7  UNL     1      22.672   3.180  51.795  1.00  0.00     0.192 A 
HETATM   14  N3  UNL     1      23.281   3.942  52.645  1.00  0.00    -0.198 NA
HETATM   15  C8  UNL     1      23.481   5.207  52.263  1.00  0.00     0.171 A 
HETATM   16  C9  UNL     1      23.096   5.819  51.014  1.00  0.00     0.111 A 
HETATM   17  S1  UNL     1      22.300   4.258  50.266  1.00  0.00    -0.058 SA
BRANCH  15  18
HETATM   18  O1  UNL     1      24.150   5.913  53.287  1.00  0.00    -0.344 OA
HETATM   19  H6  UNL     1      24.095   5.550  54.219  1.00  0.00     0.219 HD
ENDBRANCH  15  18
ENDBRANCH   3  13
BRANCH   4  20
HETATM   20  C11 UNL     1      24.209   0.483  52.471  1.00  0.00    -0.033 A 
HETATM   21  C12 UNL     1      25.306   1.079  51.917  1.00  0.00     0.011 A 
HETATM   22  C13 UNL     1      26.517   1.004  52.582  1.00  0.00     0.019 A 
HETATM   23  C14 UNL     1      26.647   0.339  53.799  1.00  0.00     0.011 A 
HETATM   24 BR1  UNL     1      28.303   0.220  54.738  1.00  0.00    -0.051 Br
HETATM   25  C15 UNL     1      25.532  -0.252  54.340  1.00  0.00     0.019 A 
HETATM   26  C16 UNL     1      24.320  -0.182  53.683  1.00  0.00     0.011 A 
ENDBRANCH   4  20
TORSDOF 4
ENDMDL
MODEL 4
REMARK VINA RESULT:      -8.5      2.987      7.115
REMARK  4 active torsions:
REMARK  status: ('A' for Active; 'I' for Inactive)
REMARK    1  A    between atoms: C5_5  and  C6_6 
REMARK    2  A    between atoms: N2_8  and  C7_9 
REMARK    3  A    between atoms: C8_11  and  O1_12 
REMARK    4  A    between atoms: C10_15  and  C11_16 
ROOT
HETATM    1  C6  UNL     1      26.158   4.040  50.058  1.00  0.00     0.067 C 
HETATM    2  N1  UNL     1      27.136   3.392  50.599  1.00  0.00    -0.173 NA
HETATM    3  N2  UNL     1      26.660   2.324  51.387  1.00  0.00    -0.236 N 
HETATM    4  C10 UNL     1      25.358   2.010  50.865  1.00  0.00     0.151 C 
HETATM    5  C17 UNL     1      24.877   3.412  50.475  1.00  0.00     0.094 C 
ENDROOT
BRANCH   1   6
HETATM    6  C5  UNL     1      26.306   5.215  49.174  1.00  0.00    -0.010 A 
HETATM    7  C4  UNL     1      27.569   5.467  48.677  1.00  0.00     0.014 A 
HETATM    8  C3  UNL     1      27.809   6.524  47.853  1.00  0.00     0.007 A 
HETATM    9  C2  UNL     1      26.757   7.346  47.521  1.00  0.00    -0.062 A 
HETATM   10  C1  UNL     1      26.984   8.506  46.627  1.00  0.00     0.048 C 
HETATM   11  C19 UNL     1      25.503   7.070  48.033  1.00  0.00     0.007 A 
HETATM   12  C18 UNL     1      25.223   5.993  48.880  1.00  0.00     0.014 A 
ENDBRANCH   1   6
BRANCH   3  13
HETATM   13  C7  UNL     1      27.523   1.855  52.428  1.00  0.00     0.192 A 
HETATM   14  N3  UNL     1      28.305   2.426  53.285  1.00  0.00    -0.198 NA
HETATM   15  C8  UNL     1      28.962   1.611  54.116  1.00  0.00     0.171 A 
HETATM   16  C9  UNL     1      28.899   0.170  54.166  1.00  0.00     0.111 A 
HETATM   17  S1  UNL     1      27.652  -0.022  52.738  1.00  0.00    -0.058 SA
BRANCH  15  18
HETATM   18  O1  UNL     1      29.772   2.372  54.988  1.00  0.00    -0.344 OA
HETATM   19  H6  UNL     1      30.717   2.554  54.709  1.00  0.00     0.219 HD
ENDBRANCH  15  18
ENDBRANCH   3  13
BRANCH   4  20
HETATM   20  C11 UNL     1      24.445   1.367  51.814  1.00  0.00    -0.033 A 
HETATM   21  C12 UNL     1      24.762   0.212  52.472  1.00  0.00     0.011 A 
HETATM   22  C13 UNL     1      23.843  -0.330  53.353  1.00  0.00     0.019 A 
HETATM   23  C14 UNL     1      22.607   0.267  53.586  1.00  0.00     0.011 A 
HETATM   24 BR1  UNL     1      21.323  -0.459  54.795  1.00  0.00    -0.051 Br
HETATM   25  C15 UNL     1      22.308   1.428  52.916  1.00  0.00     0.019 A 
HETATM   26  C16 UNL     1      23.219   1.976  52.036  1.00  0.00     0.011 A 
ENDBRANCH   4  20
TORSDOF 4
ENDMDL
MODEL 5
REMARK VINA RESULT:      -8.4      1.509      2.037
REMARK  4 active torsions:
REMARK  status: ('A' for Active; 'I' for Inactive)
REMARK    1  A    between atoms: C5_5  and  C6_6 
REMARK    2  A    between atoms: N2_8  and  C7_9 
REMARK    3  A    between atoms: C8_11  and  O1_12 
REMARK    4  A    between atoms: C10_15  and  C11_16 
ROOT
HETATM    1  C6  UNL     1      21.117   1.275  52.204  1.00  0.00     0.067 C 
HETATM    2  N1  UNL     1      22.100   1.159  53.034  1.00  0.00    -0.173 NA
HETATM    3  N2  UNL     1      23.122   2.085  52.739  1.00  0.00    -0.236 N 
HETATM    4  C10 UNL     1      22.480   3.151  52.019  1.00  0.00     0.151 C 
HETATM    5  C17 UNL     1      21.433   2.355  51.234  1.00  0.00     0.094 C 
ENDROOT
BRANCH   1   6
HETATM    6  C5  UNL     1      19.885   0.458  52.229  1.00  0.00    -0.010 A 
HETATM    7  C4  UNL     1      19.717  -0.384  53.310  1.00  0.00     0.014 A 
HETATM    8  C3  UNL     1      18.617  -1.177  53.427  1.00  0.00     0.007 A 
HETATM    9  C2  UNL     1      17.665  -1.124  52.435  1.00  0.00    -0.062 A 
HETATM   10  C1  UNL     1      16.455  -1.974  52.531  1.00  0.00     0.048 C 
HETATM   11  C19 UNL     1      17.859  -0.272  51.364  1.00  0.00     0.007 A 
HETATM   12  C18 UNL     1      18.976   0.556  51.215  1.00  0.00     0.014 A 
ENDBRANCH   1   6
BRANCH   3  13
HETATM   13  C7  UNL     1      24.439   1.759  53.195  1.00  0.00     0.192 A 
HETATM   14  N3  UNL     1      25.506   2.443  53.452  1.00  0.00    -0.198 NA
HETATM   15  C8  UNL     1      26.566   1.743  53.870  1.00  0.00     0.171 A 
HETATM   16  C9  UNL     1      26.655   0.316  54.066  1.00  0.00     0.111 A 
HETATM   17  S1  UNL     1      24.864  -0.067  53.545  1.00  0.00    -0.058 SA
BRANCH  15  18
HETATM   18  O1  UNL     1      27.649   2.618  54.109  1.00  0.00    -0.344 OA
HETATM   19  H6  UNL     1      28.474   2.235  54.529  1.00  0.00     0.219 HD
ENDBRANCH  15  18
ENDBRANCH   3  13
BRANCH   4  20
HETATM   20  C11 UNL     1      23.358   3.919  51.132  1.00  0.00    -0.033 A 
HETATM   21  C12 UNL     1      23.857   3.407  49.968  1.00  0.00     0.011 A 
HETATM   22  C13 UNL     1      24.679   4.199  49.186  1.00  0.00     0.019 A 
HETATM   23  C14 UNL     1      25.011   5.500  49.553  1.00  0.00     0.011 A 
HETATM   24 BR1  UNL     1      26.142   6.613  48.494  1.00  0.00    -0.051 Br
HETATM   25  C15 UNL     1      24.499   5.997  50.725  1.00  0.00     0.019 A 
HETATM   26  C16 UNL     1      23.677   5.214  51.511  1.00  0.00     0.011 A 
ENDBRANCH   4  20
TORSDOF 4
ENDMDL
MODEL 6
REMARK VINA RESULT:      -8.3      3.598      6.165
REMARK  4 active torsions:
REMARK  status: ('A' for Active; 'I' for Inactive)
REMARK    1  A    between atoms: C5_5  and  C6_6 
REMARK    2  A    between atoms: N2_8  and  C7_9 
REMARK    3  A    between atoms: C8_11  and  O1_12 
REMARK    4  A    between atoms: C10_15  and  C11_16 
ROOT
HETATM    1  C6  UNL     1      23.062   2.982  51.012  1.00  0.00     0.067 C 
HETATM    2  N1  UNL     1      22.420   2.341  51.932  1.00  0.00    -0.173 NA
HETATM    3  N2  UNL     1      23.307   1.618  52.756  1.00  0.00    -0.236 N 
HETATM    4  C10 UNL     1      24.576   2.283  52.635  1.00  0.00     0.151 C 
HETATM    5  C17 UNL     1      24.516   2.714  51.165  1.00  0.00     0.094 C 
ENDROOT
BRANCH   1   6
HETATM    6  C5  UNL     1      22.437   3.837  49.981  1.00  0.00    -0.010 A 
HETATM    7  C4  UNL     1      23.239   4.231  48.928  1.00  0.00     0.014 A 
HETATM    8  C3  UNL     1      22.757   5.018  47.926  1.00  0.00     0.007 A 
HETATM    9  C2  UNL     1      21.443   5.419  47.985  1.00  0.00    -0.062 A 
HETATM   10  C1  UNL     1      20.887   6.276  46.911  1.00  0.00     0.048 C 
HETATM   11  C19 UNL     1      20.663   5.010  49.051  1.00  0.00     0.007 A 
HETATM   12  C18 UNL     1      21.126   4.201  50.094  1.00  0.00     0.014 A 
ENDBRANCH   1   6
BRANCH   3  13
HETATM   13  C7  UNL     1      22.765   0.492  53.453  1.00  0.00     0.192 A 
HETATM   14  N3  UNL     1      23.176  -0.260  54.422  1.00  0.00    -0.198 NA
HETATM   15  C8  UNL     1      22.349  -1.240  54.797  1.00  0.00     0.171 A 
HETATM   16  C9  UNL     1      21.053  -1.556  54.247  1.00  0.00     0.111 A 
HETATM   17  S1  UNL     1      21.047  -0.164  52.946  1.00  0.00    -0.058 SA
BRANCH  15  18
HETATM   18  O1  UNL     1      22.929  -1.974  55.857  1.00  0.00    -0.344 OA
HETATM   19  H6  UNL     1      23.769  -1.615  56.268  1.00  0.00     0.219 HD
ENDBRANCH  15  18
ENDBRANCH   3  13
BRANCH   4  20
HETATM   20  C11 UNL     1      25.746   1.445  52.908  1.00  0.00    -0.033 A 
HETATM   21  C12 UNL     1      26.553   1.639  53.994  1.00  0.00     0.011 A 
HETATM   22  C13 UNL     1      27.638   0.802  54.179  1.00  0.00     0.019 A 
HETATM   23  C14 UNL     1      27.931  -0.230  53.292  1.00  0.00     0.011 A 
HETATM   24 BR1  UNL     1      29.421  -1.399  53.523  1.00  0.00    -0.051 Br
HETATM   25  C15 UNL     1      27.108  -0.410  52.208  1.00  0.00     0.019 A 
HETATM   26  C16 UNL     1      26.022   0.420  52.015  1.00  0.00     0.011 A 
ENDBRANCH   4  20
TORSDOF 4
ENDMDL
MODEL 7
REMARK VINA RESULT:      -8.3      3.276      6.229
REMARK  4 active torsions:
REMARK  status: ('A' for Active; 'I' for Inactive)
REMARK    1  A    between atoms: C5_5  and  C6_6 
REMARK    2  A    between atoms: N2_8  and  C7_9 
REMARK    3  A    between atoms: C8_11  and  O1_12 
REMARK    4  A    between atoms: C10_15  and  C11_16 
ROOT
HETATM    1  C6  UNL     1      25.645   1.500  51.852  1.00  0.00     0.067 C 
HETATM    2  N1  UNL     1      24.416   1.103  51.797  1.00  0.00    -0.173 NA
HETATM    3  N2  UNL     1      23.590   2.095  51.230  1.00  0.00    -0.236 N 
HETATM    4  C10 UNL     1      24.462   2.914  50.432  1.00  0.00     0.151 C 
HETATM    5  C17 UNL     1      25.731   2.873  51.291  1.00  0.00     0.094 C 
ENDROOT
BRANCH   1   6
HETATM    6  C5  UNL     1      26.769   0.705  52.390  1.00  0.00    -0.010 A 
HETATM    7  C4  UNL     1      27.832   1.409  52.921  1.00  0.00     0.014 A 
HETATM    8  C3  UNL     1      28.915   0.770  53.442  1.00  0.00     0.007 A 
HETATM    9  C2  UNL     1      28.932  -0.606  53.430  1.00  0.00    -0.062 A 
HETATM   10  C1  UNL     1      30.095  -1.333  53.990  1.00  0.00     0.048 C 
HETATM   11  C19 UNL     1      27.853  -1.285  52.892  1.00  0.00     0.007 A 
HETATM   12  C18 UNL     1      26.726  -0.659  52.350  1.00  0.00     0.014 A 
ENDBRANCH   1   6
BRANCH   3  13
HETATM   13  C7  UNL     1      22.199   2.043  51.562  1.00  0.00     0.192 A 
HETATM   14  N3  UNL     1      21.277   2.929  51.752  1.00  0.00    -0.198 NA
HETATM   15  C8  UNL     1      20.063   2.459  52.056  1.00  0.00     0.171 A 
HETATM   16  C9  UNL     1      19.665   1.079  52.197  1.00  0.00     0.111 A 
HETATM   17  S1  UNL     1      21.378   0.339  51.814  1.00  0.00    -0.058 SA
BRANCH  15  18
HETATM   18  O1  UNL     1      19.166   3.537  52.234  1.00  0.00    -0.344 OA
HETATM   19  H6  UNL     1      19.131   4.238  51.520  1.00  0.00     0.219 HD
ENDBRANCH  15  18
ENDBRANCH   3  13
BRANCH   4  20
HETATM   20  C11 UNL     1      23.998   4.286  50.213  1.00  0.00    -0.033 A 
HETATM   21  C12 UNL     1      24.033   5.240  51.190  1.00  0.00     0.011 A 
HETATM   22  C13 UNL     1      23.576   6.513  50.901  1.00  0.00     0.019 A 
HETATM   23  C14 UNL     1      23.081   6.848  49.643  1.00  0.00     0.011 A 
HETATM   24 BR1  UNL     1      22.445   8.594  49.217  1.00  0.00    -0.051 Br
HETATM   25  C15 UNL     1      23.055   5.876  48.674  1.00  0.00     0.019 A 
HETATM   26  C16 UNL     1      23.509   4.603  48.954  1.00  0.00     0.011 A 
ENDBRANCH   4  20
TORSDOF 4
ENDMDL
MODEL 8
REMARK VINA RESULT:      -8.0      4.682      8.618
REMARK  4 active torsions:
REMARK  status: ('A' for Active; 'I' for Inactive)
REMARK    1  A    between atoms: C5_5  and  C6_6 
REMARK    2  A    between atoms: N2_8  and  C7_9 
REMARK    3  A    between atoms: C8_11  and  O1_12 
REMARK    4  A    between atoms: C10_15  and  C11_16 
ROOT
HETATM    1  C6  UNL     1      24.596   4.483  49.975  1.00  0.00     0.067 C 
HETATM    2  N1  UNL     1      23.387   4.876  49.744  1.00  0.00    -0.173 NA
HETATM    3  N2  UNL     1      22.461   4.145  50.516  1.00  0.00    -0.236 N 
HETATM    4  C10 UNL     1      23.203   3.654  51.645  1.00  0.00     0.151 C 
HETATM    5  C17 UNL     1      24.560   3.391  50.983  1.00  0.00     0.094 C 
ENDROOT
BRANCH   1   6
HETATM    6  C5  UNL     1      25.806   5.038  49.333  1.00  0.00    -0.010 A 
HETATM    7  C4  UNL     1      25.737   6.347  48.901  1.00  0.00     0.014 A 
HETATM    8  C3  UNL     1      26.798   6.951  48.298  1.00  0.00     0.007 A 
HETATM    9  C2  UNL     1      27.953   6.223  48.125  1.00  0.00    -0.062 A 
HETATM   10  C1  UNL     1      29.126   6.850  47.472  1.00  0.00     0.048 C 
HETATM   11  C19 UNL     1      27.993   4.914  48.567  1.00  0.00     0.007 A 
HETATM   12  C18 UNL     1      26.923   4.265  49.191  1.00  0.00     0.014 A 
ENDBRANCH   1   6
BRANCH   3  13
HETATM   13  C7  UNL     1      21.119   4.080  50.024  1.00  0.00     0.192 A 
HETATM   14  N3  UNL     1      20.044   4.770  50.225  1.00  0.00    -0.198 NA
HETATM   15  C8  UNL     1      18.958   4.376  49.552  1.00  0.00     0.171 A 
HETATM   16  C9  UNL     1      18.848   3.272  48.630  1.00  0.00     0.111 A 
HETATM   17  S1  UNL     1      20.663   2.712  48.775  1.00  0.00    -0.058 SA
BRANCH  15  18
HETATM   18  O1  UNL     1      17.868   5.217  49.871  1.00  0.00    -0.344 OA
HETATM   19  H6  UNL     1      17.204   5.416  49.148  1.00  0.00     0.219 HD
ENDBRANCH  15  18
ENDBRANCH   3  13
BRANCH   4  20
HETATM   20  C11 UNL     1      22.659   2.445  52.269  1.00  0.00    -0.033 A 
HETATM   21  C12 UNL     1      21.347   2.330  52.631  1.00  0.00     0.011 A 
HETATM   22  C13 UNL     1      20.914   1.153  53.214  1.00  0.00     0.019 A 
HETATM   23  C14 UNL     1      21.777   0.085  53.443  1.00  0.00     0.011 A 
HETATM   24 BR1  UNL     1      21.206  -1.549  54.246  1.00  0.00    -0.051 Br
HETATM   25  C15 UNL     1      23.092   0.219  53.072  1.00  0.00     0.019 A 
HETATM   26  C16 UNL     1      23.533   1.390  52.489  1.00  0.00     0.011 A 
ENDBRANCH   4  20
TORSDOF 4
ENDMDL
MODEL 9
REMARK VINA RESULT:      -8.0      6.556      9.245
REMARK  4 active torsions:
REMARK  status: ('A' for Active; 'I' for Inactive)
REMARK    1  A    between atoms: C5_5  and  C6_6 
REMARK    2  A    between atoms: N2_8  and  C7_9 
REMARK    3  A    between atoms: C8_11  and  O1_12 
REMARK    4  A    between atoms: C10_15  and  C11_16 
ROOT
HETATM    1  C6  UNL     1      27.490   6.384  48.383  1.00  0.00     0.067 C 
HETATM    2  N1  UNL     1      27.315   7.628  48.081  1.00  0.00    -0.173 NA
HETATM    3  N2  UNL     1      28.536   8.239  47.727  1.00  0.00    -0.236 N 
HETATM    4  C10 UNL     1      29.392   7.167  47.295  1.00  0.00     0.151 C 
HETATM    5  C17 UNL     1      28.932   6.055  48.244  1.00  0.00     0.094 C 
ENDROOT
BRANCH   1   6
HETATM    6  C5  UNL     1      26.419   5.454  48.799  1.00  0.00    -0.010 A 
HETATM    7  C4  UNL     1      26.814   4.207  49.240  1.00  0.00     0.014 A 
HETATM    8  C3  UNL     1      25.904   3.278  49.646  1.00  0.00     0.007 A 
HETATM    9  C2  UNL     1      24.570   3.610  49.608  1.00  0.00    -0.062 A 
HETATM   10  C1  UNL     1      23.553   2.624  50.043  1.00  0.00     0.048 C 
HETATM   11  C19 UNL     1      24.203   4.867  49.161  1.00  0.00     0.007 A 
HETATM   12  C18 UNL     1      25.111   5.842  48.739  1.00  0.00     0.014 A 
ENDBRANCH   1   6
BRANCH   3  13
HETATM   13  C7  UNL     1      28.613   9.660  47.872  1.00  0.00     0.192 A 
HETATM   14  N3  UNL     1      28.487  10.479  48.865  1.00  0.00    -0.198 NA
HETATM   15  C8  UNL     1      28.635  11.777  48.579  1.00  0.00     0.171 A 
HETATM   16  C9  UNL     1      28.919  12.366  47.293  1.00  0.00     0.111 A 
HETATM   17  S1  UNL     1      28.980  10.723  46.332  1.00  0.00    -0.058 SA
BRANCH  15  18
HETATM   18  O1  UNL     1      28.470  12.545  49.753  1.00  0.00    -0.344 OA
HETATM   19  H6  UNL     1      27.896  12.167  50.482  1.00  0.00     0.219 HD
ENDBRANCH  15  18
ENDBRANCH   3  13
BRANCH   4  20
HETATM   20  C11 UNL     1      30.828   7.429  47.420  1.00  0.00    -0.033 A 
HETATM   21  C12 UNL     1      31.620   7.716  46.344  1.00  0.00     0.011 A 
HETATM   22  C13 UNL     1      32.968   7.951  46.548  1.00  0.00     0.019 A 
HETATM   23  C14 UNL     1      33.538   7.904  47.818  1.00  0.00     0.011 A 
HETATM   24 BR1  UNL     1      35.392   8.225  48.128  1.00  0.00    -0.051 Br
HETATM   25  C15 UNL     1      32.726   7.617  48.886  1.00  0.00     0.019 A 
HETATM   26  C16 UNL     1      31.380   7.380  48.692  1.00  0.00     0.011 A 
ENDBRANCH   4  20
TORSDOF 4
ENDMDL
