MODEL 1
REMARK VINA RESULT:      -7.7      0.000      0.000
REMARK  4 active torsions:
REMARK  status: ('A' for Active; 'I' for Inactive)
REMARK    1  A    between atoms: C3_4  and  S1_5 
REMARK    2  A    between atoms: C4_7  and  C5_8 
REMARK    3  A    between atoms: C5_8  and  C6_9 
REMARK       I    between atoms: C6_9  and  N3_11 
REMARK    4  A    between atoms: N3_11  and  C7_12 
ROOT
HETATM    1  C1  UNL     1      26.438   9.585  49.728  1.00  0.00     0.070 C 
HETATM    2  C2  UNL     1      27.064   8.347  49.247  1.00  0.00     0.030 C 
HETATM    3  N1  UNL     1      26.363   7.400  49.655  1.00  0.00    -0.259 NA
HETATM    4  C3  UNL     1      25.204   7.227  50.408  1.00  0.00     0.268 C 
HETATM    5  N2  UNL     1      24.962   5.842  50.789  1.00  0.00    -0.347 N 
HETATM    6  C4  UNL     1      24.977   4.876  49.700  1.00  0.00     0.110 C 
HETATM    7  N4  UNL     1      26.229   4.992  49.690  1.00  0.00    -0.247 NA
HETATM    8  C13 UNL     1      27.245   4.446  48.958  1.00  0.00     0.120 C 
HETATM    9  C14 UNL     1      28.219   5.119  48.322  1.00  0.00     0.043 C 
HETATM   10  C15 UNL     1      28.435   6.522  48.248  1.00  0.00     0.037 C 
HETATM   11 CL2  UNL     1      29.906   6.826  47.275  1.00  0.00    -0.084 Cl
HETATM   12  C16 UNL     1      28.148   7.753  48.499  1.00  0.00     0.050 C 
HETATM   13  H6  UNL     1      24.781   5.489  51.773  1.00  0.00     0.163 HD
ENDROOT
BRANCH   6  14
HETATM   14  C5  UNL     1      23.552   4.529  49.475  1.00  0.00     0.181 C 
BRANCH  14  15
HETATM   15  C6  UNL     1      23.054   3.555  50.480  1.00  0.00     0.229 C 
HETATM   16  O1  UNL     1      22.447   3.937  51.537  1.00  0.00    -0.273 OA
HETATM   17  N3  UNL     1      23.251   2.165  50.273  1.00  0.00    -0.327 N 
HETATM   18  H9  UNL     1      23.752   1.913  49.398  1.00  0.00     0.169 HD
BRANCH  17  19
HETATM   19  C7  UNL     1      22.731   1.314  51.295  1.00  0.00     0.034 A 
HETATM   20  C8  UNL     1      21.458   0.802  51.370  1.00  0.00     0.031 A 
HETATM   21  C9  UNL     1      21.189  -0.004  52.454  1.00  0.00     0.026 A 
HETATM   22  C10 UNL     1      22.120  -0.294  53.415  1.00  0.00     0.034 A 
HETATM   23 CL1  UNL     1      21.746  -1.323  54.782  1.00  0.00    -0.084 Cl
HETATM   24  C11 UNL     1      23.408   0.230  53.329  1.00  0.00     0.026 A 
HETATM   25  C12 UNL     1      23.707   1.052  52.235  1.00  0.00     0.031 A 
ENDBRANCH  17  19
ENDBRANCH  14  15
ENDBRANCH   6  14
BRANCH   4  26
HETATM   26  S1  UNL     1      23.752   7.797  49.493  1.00  0.00    -0.135 SA
HETATM   27  H5  UNL     1      22.540   7.415  50.075  1.00  0.00     0.105 HD
ENDBRANCH   4  26
TORSDOF 4
ENDMDL
MODEL 2
REMARK VINA RESULT:      -7.6      3.169      4.363
REMARK  4 active torsions:
REMARK  status: ('A' for Active; 'I' for Inactive)
REMARK    1  A    between atoms: C3_4  and  S1_5 
REMARK    2  A    between atoms: C4_7  and  C5_8 
REMARK    3  A    between atoms: C5_8  and  C6_9 
REMARK       I    between atoms: C6_9  and  N3_11 
REMARK    4  A    between atoms: N3_11  and  C7_12 
ROOT
HETATM    1  C1  UNL     1      26.749   4.349  49.098  1.00  0.00     0.070 C 
HETATM    2  C2  UNL     1      26.408   3.528  50.266  1.00  0.00     0.030 C 
HETATM    3  N1  UNL     1      25.407   4.048  50.799  1.00  0.00    -0.259 NA
HETATM    4  C3  UNL     1      24.579   5.147  50.580  1.00  0.00     0.268 C 
HETATM    5  N2  UNL     1      23.677   5.422  51.690  1.00  0.00    -0.347 N 
HETATM    6  C4  UNL     1      22.873   4.297  52.144  1.00  0.00     0.110 C 
HETATM    7  N4  UNL     1      23.915   3.842  52.682  1.00  0.00    -0.247 NA
HETATM    8  C13 UNL     1      24.218   2.730  53.414  1.00  0.00     0.120 C 
HETATM    9  C14 UNL     1      25.220   1.866  53.171  1.00  0.00     0.043 C 
HETATM   10  C15 UNL     1      26.184   1.886  52.128  1.00  0.00     0.037 C 
HETATM   11 CL2  UNL     1      27.279   0.486  52.332  1.00  0.00    -0.084 Cl
HETATM   12  C16 UNL     1      26.733   2.370  51.067  1.00  0.00     0.050 C 
HETATM   13  H6  UNL     1      23.562   6.354  52.183  1.00  0.00     0.163 HD
ENDROOT
BRANCH   6  14
HETATM   14  C5  UNL     1      21.507   4.569  51.632  1.00  0.00     0.181 C 
BRANCH  14  15
HETATM   15  C6  UNL     1      20.587   3.428  51.874  1.00  0.00     0.229 C 
HETATM   16  O1  UNL     1      19.409   3.606  52.333  1.00  0.00    -0.273 OA
HETATM   17  N3  UNL     1      21.015   2.105  51.591  1.00  0.00    -0.327 N 
HETATM   18  H9  UNL     1      21.982   2.021  51.221  1.00  0.00     0.169 HD
BRANCH  17  19
HETATM   19  C7  UNL     1      20.055   1.081  51.854  1.00  0.00     0.034 A 
HETATM   20  C8  UNL     1      18.982   0.739  51.066  1.00  0.00     0.031 A 
HETATM   21  C9  UNL     1      18.192  -0.291  51.527  1.00  0.00     0.026 A 
HETATM   22  C10 UNL     1      18.442  -0.952  52.699  1.00  0.00     0.034 A 
HETATM   23 CL1  UNL     1      17.419  -2.258  53.258  1.00  0.00    -0.084 Cl
HETATM   24  C11 UNL     1      19.532  -0.597  53.490  1.00  0.00     0.026 A 
HETATM   25  C12 UNL     1      20.351   0.448  53.043  1.00  0.00     0.031 A 
ENDBRANCH  17  19
ENDBRANCH  14  15
ENDBRANCH   6  14
BRANCH   4  26
HETATM   26  S1  UNL     1      23.562   4.902  49.106  1.00  0.00    -0.135 SA
HETATM   27  H5  UNL     1      22.897   3.672  49.084  1.00  0.00     0.105 HD
ENDBRANCH   4  26
TORSDOF 4
ENDMDL
MODEL 3
REMARK VINA RESULT:      -7.5      2.087      8.175
REMARK  4 active torsions:
REMARK  status: ('A' for Active; 'I' for Inactive)
REMARK    1  A    between atoms: C3_4  and  S1_5 
REMARK    2  A    between atoms: C4_7  and  C5_8 
REMARK    3  A    between atoms: C5_8  and  C6_9 
REMARK       I    between atoms: C6_9  and  N3_11 
REMARK    4  A    between atoms: N3_11  and  C7_12 
ROOT
HETATM    1  C1  UNL     1      20.155  -0.589  53.465  1.00  0.00     0.070 C 
HETATM    2  C2  UNL     1      21.611  -0.396  53.498  1.00  0.00     0.030 C 
HETATM    3  N1  UNL     1      21.907   0.322  52.522  1.00  0.00    -0.259 NA
HETATM    4  C3  UNL     1      21.246   0.951  51.469  1.00  0.00     0.268 C 
HETATM    5  N2  UNL     1      22.147   1.479  50.454  1.00  0.00    -0.347 N 
HETATM    6  C4  UNL     1      23.210   2.346  50.942  1.00  0.00     0.110 C 
HETATM    7  N4  UNL     1      23.781   1.311  51.371  1.00  0.00    -0.247 NA
HETATM    8  C13 UNL     1      24.943   1.056  52.040  1.00  0.00     0.120 C 
HETATM    9  C14 UNL     1      25.071   0.331  53.166  1.00  0.00     0.043 C 
HETATM   10  C15 UNL     1      24.066  -0.329  53.923  1.00  0.00     0.037 C 
HETATM   11 CL2  UNL     1      24.840  -1.150  55.312  1.00  0.00    -0.084 Cl
HETATM   12  C16 UNL     1      22.853  -0.680  54.180  1.00  0.00     0.050 C 
HETATM   13  H6  UNL     1      22.094   1.286  49.412  1.00  0.00     0.163 HD
ENDROOT
BRANCH   6  14
HETATM   14  C5  UNL     1      22.793   3.717  50.557  1.00  0.00     0.181 C 
BRANCH  14  15
HETATM   15  C6  UNL     1      23.870   4.441  49.833  1.00  0.00     0.229 C 
HETATM   16  O1  UNL     1      23.720   4.828  48.626  1.00  0.00    -0.273 OA
HETATM   17  N3  UNL     1      25.099   4.716  50.489  1.00  0.00    -0.327 N 
HETATM   18  H9  UNL     1      25.165   4.377  51.469  1.00  0.00     0.169 HD
BRANCH  17  19
HETATM   19  C7  UNL     1      26.066   5.419  49.707  1.00  0.00     0.034 A 
HETATM   20  C8  UNL     1      26.088   6.768  49.447  1.00  0.00     0.031 A 
HETATM   21  C9  UNL     1      27.129   7.221  48.667  1.00  0.00     0.026 A 
HETATM   22  C10 UNL     1      28.098   6.393  48.168  1.00  0.00     0.034 A 
HETATM   23 CL1  UNL     1      29.410   6.999  47.179  1.00  0.00    -0.084 Cl
HETATM   24  C11 UNL     1      28.066   5.027  48.438  1.00  0.00     0.026 A 
HETATM   25  C12 UNL     1      27.018   4.542  49.230  1.00  0.00     0.031 A 
ENDBRANCH  17  19
ENDBRANCH  14  15
ENDBRANCH   6  14
BRANCH   4  26
HETATM   26  S1  UNL     1      20.244   2.329  52.071  1.00  0.00    -0.135 SA
HETATM   27  H5  UNL     1      19.658   2.092  53.318  1.00  0.00     0.105 HD
ENDBRANCH   4  26
TORSDOF 4
ENDMDL
MODEL 4
REMARK VINA RESULT:      -7.4      3.133      8.371
REMARK  4 active torsions:
REMARK  status: ('A' for Active; 'I' for Inactive)
REMARK    1  A    between atoms: C3_4  and  S1_5 
REMARK    2  A    between atoms: C4_7  and  C5_8 
REMARK    3  A    between atoms: C5_8  and  C6_9 
REMARK       I    between atoms: C6_9  and  N3_11 
REMARK    4  A    between atoms: N3_11  and  C7_12 
ROOT
HETATM    1  C1  UNL     1      24.852  -0.987  54.738  1.00  0.00     0.070 C 
HETATM    2  C2  UNL     1      23.929  -0.254  53.862  1.00  0.00     0.030 C 
HETATM    3  N1  UNL     1      24.552   0.729  53.414  1.00  0.00    -0.259 NA
HETATM    4  C3  UNL     1      25.828   1.277  53.527  1.00  0.00     0.268 C 
HETATM    5  N2  UNL     1      25.938   2.611  52.953  1.00  0.00    -0.347 N 
HETATM    6  C4  UNL     1      25.476   2.747  51.579  1.00  0.00     0.110 C 
HETATM    7  N4  UNL     1      24.303   2.686  52.027  1.00  0.00    -0.247 NA
HETATM    8  C13 UNL     1      23.054   2.725  51.475  1.00  0.00     0.120 C 
HETATM    9  C14 UNL     1      22.066   1.837  51.678  1.00  0.00     0.043 C 
HETATM   10  C15 UNL     1      22.066   0.669  52.488  1.00  0.00     0.037 C 
HETATM   11 CL2  UNL     1      20.456  -0.105  52.379  1.00  0.00    -0.084 Cl
HETATM   12  C16 UNL     1      22.603  -0.183  53.292  1.00  0.00     0.050 C 
HETATM   13  H6  UNL     1      26.317   3.472  53.444  1.00  0.00     0.163 HD
ENDROOT
BRANCH   6  14
HETATM   14  C5  UNL     1      26.713   2.849  50.767  1.00  0.00     0.181 C 
BRANCH  14  15
HETATM   15  C6  UNL     1      26.682   4.023  49.856  1.00  0.00     0.229 C 
HETATM   16  O1  UNL     1      27.392   4.064  48.795  1.00  0.00    -0.273 OA
HETATM   17  N3  UNL     1      25.849   5.130  50.161  1.00  0.00    -0.327 N 
HETATM   18  H9  UNL     1      25.296   5.043  51.036  1.00  0.00     0.169 HD
BRANCH  17  19
HETATM   19  C7  UNL     1      25.889   6.204  49.220  1.00  0.00     0.034 A 
HETATM   20  C8  UNL     1      26.929   7.079  49.016  1.00  0.00     0.031 A 
HETATM   21  C9  UNL     1      26.738   8.036  48.044  1.00  0.00     0.026 A 
HETATM   22  C10 UNL     1      25.587   8.130  47.309  1.00  0.00     0.034 A 
HETATM   23 CL1  UNL     1      25.374   9.358  46.080  1.00  0.00    -0.084 Cl
HETATM   24  C11 UNL     1      24.539   7.238  47.524  1.00  0.00     0.026 A 
HETATM   25  C12 UNL     1      24.709   6.254  48.507  1.00  0.00     0.031 A 
ENDBRANCH  17  19
ENDBRANCH  14  15
ENDBRANCH   6  14
BRANCH   4  26
HETATM   26  S1  UNL     1      27.052   0.232  52.704  1.00  0.00    -0.135 SA
HETATM   27  H5  UNL     1      26.490  -0.822  51.978  1.00  0.00     0.105 HD
ENDBRANCH   4  26
TORSDOF 4
ENDMDL
MODEL 5
REMARK VINA RESULT:      -7.3      4.614      6.553
REMARK  4 active torsions:
REMARK  status: ('A' for Active; 'I' for Inactive)
REMARK    1  A    between atoms: C3_4  and  S1_5 
REMARK    2  A    between atoms: C4_7  and  C5_8 
REMARK    3  A    between atoms: C5_8  and  C6_9 
REMARK       I    between atoms: C6_9  and  N3_11 
REMARK    4  A    between atoms: N3_11  and  C7_12 
ROOT
HETATM    1  C1  UNL     1      34.736   7.551  48.615  1.00  0.00     0.070 C 
HETATM    2  C2  UNL     1      34.235   6.330  47.970  1.00  0.00     0.030 C 
HETATM    3  N1  UNL     1      33.018   6.252  48.232  1.00  0.00    -0.259 NA
HETATM    4  C3  UNL     1      32.068   6.985  48.939  1.00  0.00     0.268 C 
HETATM    5  N2  UNL     1      30.807   6.278  49.117  1.00  0.00    -0.347 N 
HETATM    6  C4  UNL     1      30.202   5.751  47.902  1.00  0.00     0.110 C 
HETATM    7  N4  UNL     1      31.080   4.851  47.922  1.00  0.00    -0.247 NA
HETATM    8  C13 UNL     1      31.384   3.780  47.132  1.00  0.00     0.120 C 
HETATM    9  C14 UNL     1      32.589   3.494  46.609  1.00  0.00     0.043 C 
HETATM   10  C15 UNL     1      33.811   4.206  46.737  1.00  0.00     0.037 C 
HETATM   11 CL2  UNL     1      35.084   3.331  45.833  1.00  0.00    -0.084 Cl
HETATM   12  C16 UNL     1      34.548   5.177  47.158  1.00  0.00     0.050 C 
HETATM   13  H6  UNL     1      30.306   6.119  50.038  1.00  0.00     0.163 HD
ENDROOT
BRANCH   6  14
HETATM   14  C5  UNL     1      29.065   6.661  47.614  1.00  0.00     0.181 C 
BRANCH  14  15
HETATM   15  C6  UNL     1      27.818   6.220  48.292  1.00  0.00     0.229 C 
HETATM   16  O1  UNL     1      27.698   5.042  48.769  1.00  0.00    -0.273 OA
HETATM   17  N3  UNL     1      26.729   7.120  48.417  1.00  0.00    -0.327 N 
HETATM   18  H9  UNL     1      26.882   8.063  48.009  1.00  0.00     0.169 HD
BRANCH  17  19
HETATM   19  C7  UNL     1      25.579   6.600  49.087  1.00  0.00     0.034 A 
HETATM   20  C8  UNL     1      24.667   5.706  48.580  1.00  0.00     0.031 A 
HETATM   21  C9  UNL     1      23.636   5.345  49.419  1.00  0.00     0.026 A 
HETATM   22  C10 UNL     1      23.508   5.835  50.691  1.00  0.00     0.034 A 
HETATM   23 CL1  UNL     1      22.186   5.356  51.735  1.00  0.00    -0.084 Cl
HETATM   24  C11 UNL     1      24.438   6.740  51.195  1.00  0.00     0.026 A 
HETATM   25  C12 UNL     1      25.496   7.123  50.361  1.00  0.00     0.031 A 
ENDBRANCH  17  19
ENDBRANCH  14  15
ENDBRANCH   6  14
BRANCH   4  26
HETATM   26  S1  UNL     1      31.701   8.542  48.098  1.00  0.00    -0.135 SA
HETATM   27  H5  UNL     1      30.344   8.881  48.118  1.00  0.00     0.105 HD
ENDBRANCH   4  26
TORSDOF 4
ENDMDL
MODEL 6
REMARK VINA RESULT:      -7.2      5.120      6.725
REMARK  4 active torsions:
REMARK  status: ('A' for Active; 'I' for Inactive)
REMARK    1  A    between atoms: C3_4  and  S1_5 
REMARK    2  A    between atoms: C4_7  and  C5_8 
REMARK    3  A    between atoms: C5_8  and  C6_9 
REMARK       I    between atoms: C6_9  and  N3_11 
REMARK    4  A    between atoms: N3_11  and  C7_12 
ROOT
HETATM    1  C1  UNL     1      18.082   2.480  49.377  1.00  0.00     0.070 C 
HETATM    2  C2  UNL     1      19.503   2.629  49.040  1.00  0.00     0.030 C 
HETATM    3  N1  UNL     1      20.150   2.453  50.092  1.00  0.00    -0.259 NA
HETATM    4  C3  UNL     1      19.882   2.167  51.428  1.00  0.00     0.268 C 
HETATM    5  N2  UNL     1      21.043   2.313  52.296  1.00  0.00    -0.347 N 
HETATM    6  C4  UNL     1      22.237   1.592  51.879  1.00  0.00     0.110 C 
HETATM    7  N4  UNL     1      22.387   2.468  50.990  1.00  0.00    -0.247 NA
HETATM    8  C13 UNL     1      23.300   2.693  49.999  1.00  0.00     0.120 C 
HETATM    9  C14 UNL     1      23.027   2.912  48.701  1.00  0.00     0.043 C 
HETATM   10  C15 UNL     1      21.766   2.963  48.049  1.00  0.00     0.037 C 
HETATM   11 CL2  UNL     1      22.030   3.310  46.313  1.00  0.00    -0.084 Cl
HETATM   12  C16 UNL     1      20.480   2.893  48.007  1.00  0.00     0.050 C 
HETATM   13  H6  UNL     1      21.088   2.890  53.185  1.00  0.00     0.163 HD
ENDROOT
BRANCH   6  14
HETATM   14  C5  UNL     1      22.328   0.435  52.804  1.00  0.00     0.181 C 
BRANCH  14  15
HETATM   15  C6  UNL     1      23.732   0.154  53.203  1.00  0.00     0.229 C 
HETATM   16  O1  UNL     1      24.006  -0.599  54.197  1.00  0.00    -0.273 OA
HETATM   17  N3  UNL     1      24.801   0.730  52.470  1.00  0.00    -0.327 N 
HETATM   18  H9  UNL     1      24.520   1.335  51.673  1.00  0.00     0.169 HD
BRANCH  17  19
HETATM   19  C7  UNL     1      26.111   0.395  52.931  1.00  0.00     0.034 A 
HETATM   20  C8  UNL     1      26.890   1.126  53.795  1.00  0.00     0.031 A 
HETATM   21  C9  UNL     1      28.124   0.595  54.101  1.00  0.00     0.026 A 
HETATM   22  C10 UNL     1      28.570  -0.592  53.586  1.00  0.00     0.034 A 
HETATM   23 CL1  UNL     1      30.145  -1.240  53.994  1.00  0.00    -0.084 Cl
HETATM   24  C11 UNL     1      27.772  -1.325  52.712  1.00  0.00     0.026 A 
HETATM   25  C12 UNL     1      26.512  -0.807  52.385  1.00  0.00     0.031 A 
ENDBRANCH  17  19
ENDBRANCH  14  15
ENDBRANCH   6  14
BRANCH   4  26
HETATM   26  S1  UNL     1      19.278   0.473  51.615  1.00  0.00    -0.135 SA
HETATM   27  H5  UNL     1      17.895   0.352  51.454  1.00  0.00     0.105 HD
ENDBRANCH   4  26
TORSDOF 4
ENDMDL
MODEL 7
REMARK VINA RESULT:      -7.2      4.640      6.048
REMARK  4 active torsions:
REMARK  status: ('A' for Active; 'I' for Inactive)
REMARK    1  A    between atoms: C3_4  and  S1_5 
REMARK    2  A    between atoms: C4_7  and  C5_8 
REMARK    3  A    between atoms: C5_8  and  C6_9 
REMARK       I    between atoms: C6_9  and  N3_11 
REMARK    4  A    between atoms: N3_11  and  C7_12 
ROOT
HETATM    1  C1  UNL     1      19.947   3.783  47.996  1.00  0.00     0.070 C 
HETATM    2  C2  UNL     1      20.858   4.434  48.947  1.00  0.00     0.030 C 
HETATM    3  N1  UNL     1      20.896   3.717  49.967  1.00  0.00    -0.259 NA
HETATM    4  C3  UNL     1      20.327   2.524  50.408  1.00  0.00     0.268 C 
HETATM    5  N2  UNL     1      20.546   2.268  51.825  1.00  0.00    -0.347 N 
HETATM    6  C4  UNL     1      21.929   2.337  52.273  1.00  0.00     0.110 C 
HETATM    7  N4  UNL     1      21.838   3.587  52.183  1.00  0.00    -0.247 NA
HETATM    8  C13 UNL     1      22.682   4.637  52.407  1.00  0.00     0.120 C 
HETATM    9  C14 UNL     1      22.951   5.638  51.550  1.00  0.00     0.043 C 
HETATM   10  C15 UNL     1      22.446   5.854  50.240  1.00  0.00     0.037 C 
HETATM   11 CL2  UNL     1      23.150   7.368  49.596  1.00  0.00    -0.084 Cl
HETATM   12  C16 UNL     1      21.734   5.553  49.209  1.00  0.00     0.050 C 
HETATM   13  H6  UNL     1      19.796   2.043  52.540  1.00  0.00     0.163 HD
ENDROOT
BRANCH   6  14
HETATM   14  C5  UNL     1      22.336   0.924  52.477  1.00  0.00     0.181 C 
BRANCH  14  15
HETATM   15  C6  UNL     1      23.800   0.796  52.698  1.00  0.00     0.229 C 
HETATM   16  O1  UNL     1      24.635   1.555  52.100  1.00  0.00    -0.273 OA
HETATM   17  N3  UNL     1      24.294  -0.187  53.594  1.00  0.00    -0.327 N 
HETATM   18  H9  UNL     1      23.570  -0.776  54.050  1.00  0.00     0.169 HD
BRANCH  17  19
HETATM   19  C7  UNL     1      25.715  -0.225  53.738  1.00  0.00     0.034 A 
HETATM   20  C8  UNL     1      26.470   0.504  54.625  1.00  0.00     0.031 A 
HETATM   21  C9  UNL     1      27.831   0.294  54.583  1.00  0.00     0.026 A 
HETATM   22  C10 UNL     1      28.420  -0.587  53.716  1.00  0.00     0.034 A 
HETATM   23 CL1  UNL     1      30.154  -0.831  53.686  1.00  0.00    -0.084 Cl
HETATM   24  C11 UNL     1      27.645  -1.320  52.821  1.00  0.00     0.026 A 
HETATM   25  C12 UNL     1      26.258  -1.125  52.845  1.00  0.00     0.031 A 
ENDBRANCH  17  19
ENDBRANCH  14  15
ENDBRANCH   6  14
BRANCH   4  26
HETATM   26  S1  UNL     1      20.998   1.116  49.495  1.00  0.00    -0.135 SA
HETATM   27  H5  UNL     1      21.325   1.414  48.168  1.00  0.00     0.105 HD
ENDBRANCH   4  26
TORSDOF 4
ENDMDL
MODEL 8
REMARK VINA RESULT:      -7.1      3.365      3.899
REMARK  4 active torsions:
REMARK  status: ('A' for Active; 'I' for Inactive)
REMARK    1  A    between atoms: C3_4  and  S1_5 
REMARK    2  A    between atoms: C4_7  and  C5_8 
REMARK    3  A    between atoms: C5_8  and  C6_9 
REMARK       I    between atoms: C6_9  and  N3_11 
REMARK    4  A    between atoms: N3_11  and  C7_12 
ROOT
HETATM    1  C1  UNL     1      21.879   9.223  49.008  1.00  0.00     0.070 C 
HETATM    2  C2  UNL     1      23.172   8.635  48.633  1.00  0.00     0.030 C 
HETATM    3  N1  UNL     1      23.507   7.867  49.557  1.00  0.00    -0.259 NA
HETATM    4  C3  UNL     1      22.996   7.449  50.783  1.00  0.00     0.268 C 
HETATM    5  N2  UNL     1      23.953   6.696  51.583  1.00  0.00    -0.347 N 
HETATM    6  C4  UNL     1      24.584   5.568  50.915  1.00  0.00     0.110 C 
HETATM    7  N4  UNL     1      25.280   6.404  50.283  1.00  0.00    -0.247 NA
HETATM    8  C13 UNL     1      26.257   6.326  49.332  1.00  0.00     0.120 C 
HETATM    9  C14 UNL     1      26.279   6.983  48.159  1.00  0.00     0.043 C 
HETATM   10  C15 UNL     1      25.327   7.892  47.625  1.00  0.00     0.037 C 
HETATM   11 CL2  UNL     1      25.908   8.462  46.031  1.00  0.00    -0.084 Cl
HETATM   12  C16 UNL     1      24.227   8.563  47.648  1.00  0.00     0.050 C 
HETATM   13  H6  UNL     1      24.221   6.900  52.589  1.00  0.00     0.163 HD
ENDROOT
BRANCH   6  14
HETATM   14  C5  UNL     1      23.931   4.367  51.491  1.00  0.00     0.181 C 
BRANCH  14  15
HETATM   15  C6  UNL     1      24.892   3.248  51.675  1.00  0.00     0.229 C 
HETATM   16  O1  UNL     1      25.549   2.764  50.693  1.00  0.00    -0.273 OA
HETATM   17  N3  UNL     1      25.094   2.698  52.967  1.00  0.00    -0.327 N 
HETATM   18  H9  UNL     1      24.532   3.129  53.727  1.00  0.00     0.169 HD
BRANCH  17  19
HETATM   19  C7  UNL     1      26.040   1.630  53.036  1.00  0.00     0.034 A 
HETATM   20  C8  UNL     1      25.813   0.310  52.731  1.00  0.00     0.031 A 
HETATM   21  C9  UNL     1      26.887  -0.541  52.871  1.00  0.00     0.026 A 
HETATM   22  C10 UNL     1      28.120  -0.119  53.289  1.00  0.00     0.034 A 
HETATM   23 CL1  UNL     1      29.467  -1.226  53.458  1.00  0.00    -0.084 Cl
HETATM   24  C11 UNL     1      28.340   1.222  53.596  1.00  0.00     0.026 A 
HETATM   25  C12 UNL     1      27.263   2.108  53.461  1.00  0.00     0.031 A 
ENDBRANCH  17  19
ENDBRANCH  14  15
ENDBRANCH   6  14
BRANCH   4  26
HETATM   26  S1  UNL     1      21.543   6.399  50.550  1.00  0.00    -0.135 SA
HETATM   27  H5  UNL     1      21.664   5.508  49.480  1.00  0.00     0.105 HD
ENDBRANCH   4  26
TORSDOF 4
ENDMDL
MODEL 9
REMARK VINA RESULT:      -6.9      5.079      6.959
REMARK  4 active torsions:
REMARK  status: ('A' for Active; 'I' for Inactive)
REMARK    1  A    between atoms: C3_4  and  S1_5 
REMARK    2  A    between atoms: C4_7  and  C5_8 
REMARK    3  A    between atoms: C5_8  and  C6_9 
REMARK       I    between atoms: C6_9  and  N3_11 
REMARK    4  A    between atoms: N3_11  and  C7_12 
ROOT
HETATM    1  C1  UNL     1      21.811   2.221  47.436  1.00  0.00     0.070 C 
HETATM    2  C2  UNL     1      20.947   2.644  48.545  1.00  0.00     0.030 C 
HETATM    3  N1  UNL     1      21.601   2.496  49.597  1.00  0.00    -0.259 NA
HETATM    4  C3  UNL     1      22.871   2.056  49.965  1.00  0.00     0.268 C 
HETATM    5  N2  UNL     1      23.022   1.863  51.401  1.00  0.00    -0.347 N 
HETATM    6  C4  UNL     1      22.644   2.995  52.234  1.00  0.00     0.110 C 
HETATM    7  N4  UNL     1      21.445   2.700  51.994  1.00  0.00    -0.247 NA
HETATM    8  C13 UNL     1      20.233   3.214  52.354  1.00  0.00     0.120 C 
HETATM    9  C14 UNL     1      19.229   3.542  51.521  1.00  0.00     0.043 C 
HETATM   10  C15 UNL     1      19.174   3.443  50.104  1.00  0.00     0.037 C 
HETATM   11 CL2  UNL     1      17.570   4.011  49.551  1.00  0.00    -0.084 Cl
HETATM   12  C16 UNL     1      19.658   3.162  48.943  1.00  0.00     0.050 C 
HETATM   13  H6  UNL     1      23.375   0.984  51.877  1.00  0.00     0.163 HD
ENDROOT
BRANCH   6  14
HETATM   14  C5  UNL     1      23.928   3.580  52.692  1.00  0.00     0.181 C 
BRANCH  14  15
HETATM   15  C6  UNL     1      24.938   2.531  52.993  1.00  0.00     0.229 C 
HETATM   16  O1  UNL     1      24.691   1.581  53.810  1.00  0.00    -0.273 OA
HETATM   17  N3  UNL     1      26.209   2.575  52.364  1.00  0.00    -0.327 N 
HETATM   18  H9  UNL     1      26.354   3.370  51.711  1.00  0.00     0.169 HD
BRANCH  17  19
HETATM   19  C7  UNL     1      27.104   1.520  52.718  1.00  0.00     0.034 A 
HETATM   20  C8  UNL     1      26.981   0.192  52.386  1.00  0.00     0.031 A 
HETATM   21  C9  UNL     1      27.977  -0.644  52.840  1.00  0.00     0.026 A 
HETATM   22  C10 UNL     1      29.040  -0.200  53.581  1.00  0.00     0.034 A 
HETATM   23 CL1  UNL     1      30.291  -1.288  54.144  1.00  0.00    -0.084 Cl
HETATM   24  C11 UNL     1      29.154   1.147  53.912  1.00  0.00     0.026 A 
HETATM   25  C12 UNL     1      28.154   2.019  53.461  1.00  0.00     0.031 A 
ENDBRANCH  17  19
ENDBRANCH  14  15
ENDBRANCH   6  14
BRANCH   4  26
HETATM   26  S1  UNL     1      24.137   3.236  49.443  1.00  0.00    -0.135 SA
HETATM   27  H5  UNL     1      25.128   3.454  50.405  1.00  0.00     0.105 HD
ENDBRANCH   4  26
TORSDOF 4
ENDMDL
