MODEL 1
REMARK VINA RESULT:      -9.3      0.000      0.000
REMARK  6 active torsions:
REMARK  status: ('A' for Active; 'I' for Inactive)
REMARK       I    between atoms: N1_1  and  C1_2 
REMARK       I    between atoms: C1_2  and  N2_4 
REMARK    1  A    between atoms: N2_4  and  C2_5 
REMARK    2  A    between atoms: C5_8  and  N3_9 
REMARK    3  A    between atoms: N3_9  and  C6_10 
REMARK    4  A    between atoms: C9_13  and  O2_14 
REMARK    5  A    between atoms: O2_14  and  C10_15 
REMARK    6  A    between atoms: C10_15  and  C11_16 
ROOT
HETATM    1  N3  UNL     1      23.891   1.984  50.464  1.00  0.00    -0.340 N 
HETATM    2  H6  UNL     1      23.652   1.582  49.545  1.00  0.00     0.167 HD
ENDROOT
BRANCH   1   3
HETATM    3  C5  UNL     1      23.603   1.336  51.669  1.00  0.00     0.141 A 
HETATM    4  C4  UNL     1      24.614   0.719  52.368  1.00  0.00     0.041 A 
HETATM    5  C3  UNL     1      25.881   0.694  52.000  1.00  0.00     0.039 C 
HETATM    6  C20 UNL     1      24.380   0.061  53.548  1.00  0.00     0.102 A 
HETATM    7  C2  UNL     1      26.978   0.030  52.751  1.00  0.00     0.235 C 
HETATM    8  N6  UNL     1      26.421  -0.835  53.779  1.00  0.00    -0.255 NA
HETATM    9  C21 UNL     1      25.280  -0.544  54.264  1.00  0.00     0.114 C 
HETATM   10  N5  UNL     1      23.129   0.011  54.048  1.00  0.00    -0.239 NA
HETATM   11  C19 UNL     1      22.136   0.605  53.377  1.00  0.00     0.236 A 
HETATM   12  N4  UNL     1      22.398   1.237  52.233  1.00  0.00    -0.224 NA
BRANCH   7  13
HETATM   13  N2  UNL     1      27.814   1.006  53.424  1.00  0.00    -0.317 N 
HETATM   14  C1  UNL     1      29.146   0.956  53.897  1.00  0.00     0.315 C 
HETATM   15  N1  UNL     1      29.593   2.178  54.517  1.00  0.00    -0.352 N 
HETATM   16  O1  UNL     1      29.808  -0.103  53.744  1.00  0.00    -0.248 OA
HETATM   17  H1  UNL     1      29.535   2.029  55.558  1.00  0.00     0.160 HD
HETATM   18  H2  UNL     1      29.936   3.112  54.153  1.00  0.00     0.160 HD
HETATM   19  H3  UNL     1      27.196   1.856  53.513  1.00  0.00     0.166 HD
ENDBRANCH   7  13
ENDBRANCH   1   3
BRANCH   1  20
HETATM   20  C6  UNL     1      24.523   3.232  50.237  1.00  0.00     0.035 A 
HETATM   21  C7  UNL     1      25.714   3.425  49.533  1.00  0.00     0.032 A 
HETATM   22  C8  UNL     1      26.286   4.658  49.350  1.00  0.00     0.041 A 
HETATM   23  C9  UNL     1      25.705   5.796  49.860  1.00  0.00     0.091 A 
HETATM   24  C17 UNL     1      24.518   5.644  50.566  1.00  0.00     0.069 A 
HETATM   25 CL1  UNL     1      23.834   7.129  51.188  1.00  0.00    -0.081 Cl
HETATM   26  C18 UNL     1      23.981   4.395  50.727  1.00  0.00     0.056 A 
BRANCH  23  27
HETATM   27  O2  UNL     1      26.304   7.030  49.660  1.00  0.00    -0.345 OA
BRANCH  27  28
HETATM   28  C10 UNL     1      26.789   7.374  48.383  1.00  0.00     0.214 C 
BRANCH  28  29
HETATM   29  C11 UNL     1      28.273   7.481  48.379  1.00  0.00    -0.031 A 
HETATM   30  C12 UNL     1      29.049   6.510  47.739  1.00  0.00     0.009 A 
HETATM   31  C13 UNL     1      30.424   6.692  47.786  1.00  0.00     0.004 A 
HETATM   32  C14 UNL     1      30.940   7.786  48.441  1.00  0.00     0.042 A 
HETATM   33  C15 UNL     1      30.171   8.741  49.071  1.00  0.00     0.117 A 
HETATM   34  F1  UNL     1      30.673   9.816  49.715  1.00  0.00    -0.206 F 
HETATM   35  C16 UNL     1      28.798   8.573  49.032  1.00  0.00     0.051 A 
ENDBRANCH  28  29
ENDBRANCH  27  28
ENDBRANCH  23  27
ENDBRANCH   1  20
TORSDOF 6
ENDMDL
MODEL 2
REMARK VINA RESULT:      -9.2      4.574      8.225
REMARK  6 active torsions:
REMARK  status: ('A' for Active; 'I' for Inactive)
REMARK       I    between atoms: N1_1  and  C1_2 
REMARK       I    between atoms: C1_2  and  N2_4 
REMARK    1  A    between atoms: N2_4  and  C2_5 
REMARK    2  A    between atoms: C5_8  and  N3_9 
REMARK    3  A    between atoms: N3_9  and  C6_10 
REMARK    4  A    between atoms: C9_13  and  O2_14 
REMARK    5  A    between atoms: O2_14  and  C10_15 
REMARK    6  A    between atoms: C10_15  and  C11_16 
ROOT
HETATM    1  N3  UNL     1      27.522   6.557  48.133  1.00  0.00    -0.340 N 
HETATM    2  H6  UNL     1      27.122   6.557  47.182  1.00  0.00     0.167 HD
ENDROOT
BRANCH   1   3
HETATM    3  C5  UNL     1      28.563   7.411  48.513  1.00  0.00     0.141 A 
HETATM    4  C4  UNL     1      29.858   6.950  48.502  1.00  0.00     0.041 A 
HETATM    5  C3  UNL     1      30.226   5.736  48.137  1.00  0.00     0.039 C 
HETATM    6  C20 UNL     1      30.912   7.745  48.876  1.00  0.00     0.102 A 
HETATM    7  C2  UNL     1      31.624   5.233  48.122  1.00  0.00     0.235 C 
HETATM    8  N6  UNL     1      32.489   6.153  48.842  1.00  0.00    -0.255 NA
HETATM    9  C21 UNL     1      32.159   7.383  48.892  1.00  0.00     0.114 C 
HETATM   10  N5  UNL     1      30.683   9.014  49.269  1.00  0.00    -0.239 NA
HETATM   11  C19 UNL     1      29.428   9.474  49.285  1.00  0.00     0.236 A 
HETATM   12  N4  UNL     1      28.427   8.676  48.915  1.00  0.00    -0.224 NA
BRANCH   7  13
HETATM   13  N2  UNL     1      32.131   5.145  46.766  1.00  0.00    -0.317 N 
HETATM   14  C1  UNL     1      32.458   4.044  45.940  1.00  0.00     0.315 C 
HETATM   15  N1  UNL     1      32.939   4.416  44.633  1.00  0.00    -0.352 N 
HETATM   16  O1  UNL     1      32.309   2.878  46.390  1.00  0.00    -0.248 OA
HETATM   17  H1  UNL     1      33.988   4.325  44.657  1.00  0.00     0.160 HD
HETATM   18  H2  UNL     1      32.474   4.734  43.735  1.00  0.00     0.160 HD
HETATM   19  H3  UNL     1      32.227   6.150  46.461  1.00  0.00     0.166 HD
ENDBRANCH   7  13
ENDBRANCH   1   3
BRANCH   1  20
HETATM   20  C6  UNL     1      26.830   5.581  48.892  1.00  0.00     0.035 A 
HETATM   21  C7  UNL     1      27.170   4.230  48.982  1.00  0.00     0.032 A 
HETATM   22  C8  UNL     1      26.458   3.325  49.728  1.00  0.00     0.041 A 
HETATM   23  C9  UNL     1      25.346   3.709  50.443  1.00  0.00     0.091 A 
HETATM   24  C17 UNL     1      24.977   5.046  50.378  1.00  0.00     0.069 A 
HETATM   25 CL1  UNL     1      23.556   5.466  51.308  1.00  0.00    -0.081 Cl
HETATM   26  C18 UNL     1      25.715   5.916  49.621  1.00  0.00     0.056 A 
BRANCH  23  27
HETATM   27  O2  UNL     1      24.645   2.775  51.189  1.00  0.00    -0.345 OA
BRANCH  27  28
HETATM   28  C10 UNL     1      24.939   2.609  52.558  1.00  0.00     0.214 C 
BRANCH  28  29
HETATM   29  C11 UNL     1      26.019   1.607  52.761  1.00  0.00    -0.031 A 
HETATM   30  C12 UNL     1      25.855   0.291  52.318  1.00  0.00     0.009 A 
HETATM   31  C13 UNL     1      26.915  -0.574  52.550  1.00  0.00     0.004 A 
HETATM   32  C14 UNL     1      28.041  -0.108  53.188  1.00  0.00     0.042 A 
HETATM   33  C15 UNL     1      28.199   1.190  53.625  1.00  0.00     0.117 A 
HETATM   34  F1  UNL     1      29.302   1.651  54.251  1.00  0.00    -0.206 F 
HETATM   35  C16 UNL     1      27.150   2.064  53.399  1.00  0.00     0.051 A 
ENDBRANCH  28  29
ENDBRANCH  27  28
ENDBRANCH  23  27
ENDBRANCH   1  20
TORSDOF 6
ENDMDL
MODEL 3
REMARK VINA RESULT:      -9.1      4.927      8.952
REMARK  6 active torsions:
REMARK  status: ('A' for Active; 'I' for Inactive)
REMARK       I    between atoms: N1_1  and  C1_2 
REMARK       I    between atoms: C1_2  and  N2_4 
REMARK    1  A    between atoms: N2_4  and  C2_5 
REMARK    2  A    between atoms: C5_8  and  N3_9 
REMARK    3  A    between atoms: N3_9  and  C6_10 
REMARK    4  A    between atoms: C9_13  and  O2_14 
REMARK    5  A    between atoms: O2_14  and  C10_15 
REMARK    6  A    between atoms: C10_15  and  C11_16 
ROOT
HETATM    1  N3  UNL     1      27.755   6.631  48.049  1.00  0.00    -0.340 N 
HETATM    2  H6  UNL     1      27.426   6.599  47.072  1.00  0.00     0.167 HD
ENDROOT
BRANCH   1   3
HETATM    3  C5  UNL     1      28.820   7.440  48.460  1.00  0.00     0.141 A 
HETATM    4  C4  UNL     1      30.095   6.928  48.476  1.00  0.00     0.041 A 
HETATM    5  C3  UNL     1      30.423   5.702  48.113  1.00  0.00     0.039 C 
HETATM    6  C20 UNL     1      31.170   7.677  48.881  1.00  0.00     0.102 A 
HETATM    7  C2  UNL     1      31.800   5.144  48.128  1.00  0.00     0.235 C 
HETATM    8  N6  UNL     1      32.683   6.024  48.875  1.00  0.00    -0.255 NA
HETATM    9  C21 UNL     1      32.401   7.266  48.925  1.00  0.00     0.114 C 
HETATM   10  N5  UNL     1      30.983   8.953  49.277  1.00  0.00    -0.239 NA
HETATM   11  C19 UNL     1      29.747   9.463  49.266  1.00  0.00     0.236 A 
HETATM   12  N4  UNL     1      28.724   8.707  48.866  1.00  0.00    -0.224 NA
BRANCH   7  13
HETATM   13  N2  UNL     1      32.336   5.043  46.784  1.00  0.00    -0.317 N 
HETATM   14  C1  UNL     1      32.515   3.946  45.908  1.00  0.00     0.315 C 
HETATM   15  N1  UNL     1      33.096   4.301  44.638  1.00  0.00    -0.352 N 
HETATM   16  O1  UNL     1      32.168   2.798  46.291  1.00  0.00    -0.248 OA
HETATM   17  H1  UNL     1      34.116   4.043  44.687  1.00  0.00     0.160 HD
HETATM   18  H2  UNL     1      32.720   4.733  43.746  1.00  0.00     0.160 HD
HETATM   19  H3  UNL     1      32.600   6.033  46.537  1.00  0.00     0.166 HD
ENDBRANCH   7  13
ENDBRANCH   1   3
BRANCH   1  20
HETATM   20  C6  UNL     1      26.947   5.746  48.805  1.00  0.00     0.035 A 
HETATM   21  C7  UNL     1      27.152   4.372  48.940  1.00  0.00     0.032 A 
HETATM   22  C8  UNL     1      26.332   3.559  49.681  1.00  0.00     0.041 A 
HETATM   23  C9  UNL     1      25.239   4.067  50.346  1.00  0.00     0.091 A 
HETATM   24  C17 UNL     1      25.002   5.431  50.235  1.00  0.00     0.069 A 
HETATM   25 CL1  UNL     1      23.597   6.009  51.103  1.00  0.00    -0.081 Cl
HETATM   26  C18 UNL     1      25.846   6.206  49.485  1.00  0.00     0.056 A 
BRANCH  23  27
HETATM   27  O2  UNL     1      24.426   3.224  51.088  1.00  0.00    -0.345 OA
BRANCH  27  28
HETATM   28  C10 UNL     1      25.007   2.290  51.970  1.00  0.00     0.214 C 
BRANCH  28  29
HETATM   29  C11 UNL     1      24.036   1.229  52.350  1.00  0.00    -0.031 A 
HETATM   30  C12 UNL     1      24.344   0.322  53.367  1.00  0.00     0.009 A 
HETATM   31  C13 UNL     1      23.378  -0.633  53.654  1.00  0.00     0.004 A 
HETATM   32  C14 UNL     1      22.201  -0.640  52.942  1.00  0.00     0.042 A 
HETATM   33  C15 UNL     1      21.902   0.256  51.938  1.00  0.00     0.117 A 
HETATM   34  F1  UNL     1      20.748   0.253  51.238  1.00  0.00    -0.206 F 
HETATM   35  C16 UNL     1      22.854   1.214  51.642  1.00  0.00     0.051 A 
ENDBRANCH  28  29
ENDBRANCH  27  28
ENDBRANCH  23  27
ENDBRANCH   1  20
TORSDOF 6
ENDMDL
MODEL 4
REMARK VINA RESULT:      -8.9      1.976      2.561
REMARK  6 active torsions:
REMARK  status: ('A' for Active; 'I' for Inactive)
REMARK       I    between atoms: N1_1  and  C1_2 
REMARK       I    between atoms: C1_2  and  N2_4 
REMARK    1  A    between atoms: N2_4  and  C2_5 
REMARK    2  A    between atoms: C5_8  and  N3_9 
REMARK    3  A    between atoms: N3_9  and  C6_10 
REMARK    4  A    between atoms: C9_13  and  O2_14 
REMARK    5  A    between atoms: O2_14  and  C10_15 
REMARK    6  A    between atoms: C10_15  and  C11_16 
ROOT
HETATM    1  N3  UNL     1      25.081   3.043  49.610  1.00  0.00    -0.340 N 
HETATM    2  H6  UNL     1      25.286   2.426  48.810  1.00  0.00     0.167 HD
ENDROOT
BRANCH   1   3
HETATM    3  C5  UNL     1      24.424   2.594  50.760  1.00  0.00     0.141 A 
HETATM    4  C4  UNL     1      25.097   1.806  51.663  1.00  0.00     0.041 A 
HETATM    5  C3  UNL     1      26.358   1.432  51.549  1.00  0.00     0.039 C 
HETATM    6  C20 UNL     1      24.494   1.332  52.800  1.00  0.00     0.102 A 
HETATM    7  C2  UNL     1      27.090   0.581  52.522  1.00  0.00     0.235 C 
HETATM    8  N6  UNL     1      26.153  -0.025  53.454  1.00  0.00    -0.255 NA
HETATM    9  C21 UNL     1      25.061   0.584  53.698  1.00  0.00     0.114 C 
HETATM   10  N5  UNL     1      23.205   1.641  53.050  1.00  0.00    -0.239 NA
HETATM   11  C19 UNL     1      22.539   2.406  52.179  1.00  0.00     0.236 A 
HETATM   12  N4  UNL     1      23.155   2.850  51.084  1.00  0.00    -0.224 NA
BRANCH   7  13
HETATM   13  N2  UNL     1      28.020   1.370  53.307  1.00  0.00    -0.317 N 
HETATM   14  C1  UNL     1      29.060   1.012  54.197  1.00  0.00     0.315 C 
HETATM   15  N1  UNL     1      29.750   2.139  54.774  1.00  0.00    -0.352 N 
HETATM   16  O1  UNL     1      29.291  -0.207  54.406  1.00  0.00    -0.248 OA
HETATM   17  H1  UNL     1      29.367   2.265  55.747  1.00  0.00     0.160 HD
HETATM   18  H2  UNL     1      30.503   2.802  54.430  1.00  0.00     0.160 HD
HETATM   19  H3  UNL     1      27.767   2.368  53.080  1.00  0.00     0.166 HD
ENDBRANCH   7  13
ENDBRANCH   1   3
BRANCH   1  20
HETATM   20  C6  UNL     1      25.579   4.332  49.298  1.00  0.00     0.035 A 
HETATM   21  C7  UNL     1      24.833   5.512  49.285  1.00  0.00     0.032 A 
HETATM   22  C8  UNL     1      25.366   6.735  48.967  1.00  0.00     0.041 A 
HETATM   23  C9  UNL     1      26.696   6.868  48.637  1.00  0.00     0.091 A 
HETATM   24  C17 UNL     1      27.471   5.716  48.639  1.00  0.00     0.069 A 
HETATM   25 CL1  UNL     1      29.150   5.956  48.209  1.00  0.00    -0.081 Cl
HETATM   26  C18 UNL     1      26.899   4.515  48.962  1.00  0.00     0.056 A 
BRANCH  23  27
HETATM   27  O2  UNL     1      27.210   8.116  48.320  1.00  0.00    -0.345 OA
BRANCH  27  28
HETATM   28  C10 UNL     1      27.201   9.143  49.285  1.00  0.00     0.214 C 
BRANCH  28  29
HETATM   29  C11 UNL     1      28.420   9.989  49.187  1.00  0.00    -0.031 A 
HETATM   30  C12 UNL     1      29.684   9.433  49.403  1.00  0.00     0.009 A 
HETATM   31  C13 UNL     1      30.764  10.298  49.291  1.00  0.00     0.004 A 
HETATM   32  C14 UNL     1      30.544  11.620  48.981  1.00  0.00     0.042 A 
HETATM   33  C15 UNL     1      29.295  12.164  48.770  1.00  0.00     0.117 A 
HETATM   34  F1  UNL     1      29.074  13.461  48.467  1.00  0.00    -0.206 F 
HETATM   35  C16 UNL     1      28.208  11.314  48.879  1.00  0.00     0.051 A 
ENDBRANCH  28  29
ENDBRANCH  27  28
ENDBRANCH  23  27
ENDBRANCH   1  20
TORSDOF 6
ENDMDL
MODEL 5
REMARK VINA RESULT:      -8.8      1.386      2.062
REMARK  6 active torsions:
REMARK  status: ('A' for Active; 'I' for Inactive)
REMARK       I    between atoms: N1_1  and  C1_2 
REMARK       I    between atoms: C1_2  and  N2_4 
REMARK    1  A    between atoms: N2_4  and  C2_5 
REMARK    2  A    between atoms: C5_8  and  N3_9 
REMARK    3  A    between atoms: N3_9  and  C6_10 
REMARK    4  A    between atoms: C9_13  and  O2_14 
REMARK    5  A    between atoms: O2_14  and  C10_15 
REMARK    6  A    between atoms: C10_15  and  C11_16 
ROOT
HETATM    1  N3  UNL     1      25.116   3.283  49.643  1.00  0.00    -0.340 N 
HETATM    2  H6  UNL     1      25.320   2.727  48.799  1.00  0.00     0.167 HD
ENDROOT
BRANCH   1   3
HETATM    3  C5  UNL     1      24.458   2.750  50.757  1.00  0.00     0.141 A 
HETATM    4  C4  UNL     1      25.142   1.926  51.620  1.00  0.00     0.041 A 
HETATM    5  C3  UNL     1      26.413   1.591  51.499  1.00  0.00     0.039 C 
HETATM    6  C20 UNL     1      24.538   1.371  52.719  1.00  0.00     0.102 A 
HETATM    7  C2  UNL     1      27.156   0.702  52.429  1.00  0.00     0.235 C 
HETATM    8  N6  UNL     1      26.225   0.019  53.311  1.00  0.00    -0.255 NA
HETATM    9  C21 UNL     1      25.115   0.585  53.578  1.00  0.00     0.114 C 
HETATM   10  N5  UNL     1      23.240   1.632  52.971  1.00  0.00    -0.239 NA
HETATM   11  C19 UNL     1      22.563   2.430  52.138  1.00  0.00     0.236 A 
HETATM   12  N4  UNL     1      23.180   2.955  51.079  1.00  0.00    -0.224 NA
BRANCH   7  13
HETATM   13  N2  UNL     1      28.057   1.466  53.270  1.00  0.00    -0.317 N 
HETATM   14  C1  UNL     1      29.151   1.089  54.085  1.00  0.00     0.315 C 
HETATM   15  N1  UNL     1      29.782   2.193  54.764  1.00  0.00    -0.352 N 
HETATM   16  O1  UNL     1      29.473  -0.126  54.149  1.00  0.00    -0.248 OA
HETATM   17  H1  UNL     1      29.426   2.183  55.755  1.00  0.00     0.160 HD
HETATM   18  H2  UNL     1      30.474   2.942  54.476  1.00  0.00     0.160 HD
HETATM   19  H3  UNL     1      27.728   2.462  53.164  1.00  0.00     0.166 HD
ENDBRANCH   7  13
ENDBRANCH   1   3
BRANCH   1  20
HETATM   20  C6  UNL     1      25.616   4.592  49.429  1.00  0.00     0.035 A 
HETATM   21  C7  UNL     1      26.840   4.909  48.837  1.00  0.00     0.032 A 
HETATM   22  C8  UNL     1      27.278   6.196  48.660  1.00  0.00     0.041 A 
HETATM   23  C9  UNL     1      26.518   7.269  49.067  1.00  0.00     0.091 A 
HETATM   24  C17 UNL     1      25.293   6.994  49.661  1.00  0.00     0.069 A 
HETATM   25 CL1  UNL     1      24.378   8.402  50.154  1.00  0.00    -0.081 Cl
HETATM   26  C18 UNL     1      24.893   5.693  49.818  1.00  0.00     0.056 A 
BRANCH  23  27
HETATM   27  O2  UNL     1      26.983   8.561  48.877  1.00  0.00    -0.345 OA
BRANCH  27  28
HETATM   28  C10 UNL     1      27.818   9.154  49.846  1.00  0.00     0.214 C 
BRANCH  28  29
HETATM   29  C11 UNL     1      29.093   9.628  49.244  1.00  0.00    -0.031 A 
HETATM   30  C12 UNL     1      29.239  10.965  48.862  1.00  0.00     0.009 A 
HETATM   31  C13 UNL     1      30.462  11.318  48.310  1.00  0.00     0.004 A 
HETATM   32  C14 UNL     1      31.442  10.362  48.169  1.00  0.00     0.042 A 
HETATM   33  C15 UNL     1      31.293   9.044  48.546  1.00  0.00     0.117 A 
HETATM   34  F1  UNL     1      32.252   8.104  48.410  1.00  0.00    -0.206 F 
HETATM   35  C16 UNL     1      30.079   8.678  49.099  1.00  0.00     0.051 A 
ENDBRANCH  28  29
ENDBRANCH  27  28
ENDBRANCH  23  27
ENDBRANCH   1  20
TORSDOF 6
ENDMDL
MODEL 6
REMARK VINA RESULT:      -8.7      2.162      2.747
REMARK  6 active torsions:
REMARK  status: ('A' for Active; 'I' for Inactive)
REMARK       I    between atoms: N1_1  and  C1_2 
REMARK       I    between atoms: C1_2  and  N2_4 
REMARK    1  A    between atoms: N2_4  and  C2_5 
REMARK    2  A    between atoms: C5_8  and  N3_9 
REMARK    3  A    between atoms: N3_9  and  C6_10 
REMARK    4  A    between atoms: C9_13  and  O2_14 
REMARK    5  A    between atoms: O2_14  and  C10_15 
REMARK    6  A    between atoms: C10_15  and  C11_16 
ROOT
HETATM    1  N3  UNL     1      23.044   1.435  51.434  1.00  0.00    -0.340 N 
HETATM    2  H6  UNL     1      23.029   1.012  50.494  1.00  0.00     0.167 HD
ENDROOT
BRANCH   1   3
HETATM    3  C5  UNL     1      23.059   0.670  52.605  1.00  0.00     0.141 A 
HETATM    4  C4  UNL     1      24.247   0.150  53.061  1.00  0.00     0.041 A 
HETATM    5  C3  UNL     1      25.421   0.324  52.482  1.00  0.00     0.039 C 
HETATM    6  C20 UNL     1      24.313  -0.615  54.198  1.00  0.00     0.102 A 
HETATM    7  C2  UNL     1      26.708  -0.236  52.971  1.00  0.00     0.235 C 
HETATM    8  N6  UNL     1      26.456  -1.238  53.993  1.00  0.00    -0.255 NA
HETATM    9  C21 UNL     1      25.394  -1.140  54.690  1.00  0.00     0.114 C 
HETATM   10  N5  UNL     1      23.188  -0.870  54.895  1.00  0.00    -0.239 NA
HETATM   11  C19 UNL     1      22.026  -0.371  54.462  1.00  0.00     0.236 A 
HETATM   12  N4  UNL     1      21.997   0.369  53.354  1.00  0.00    -0.224 NA
BRANCH   7  13
HETATM   13  N2  UNL     1      27.526   0.796  53.580  1.00  0.00    -0.317 N 
HETATM   14  C1  UNL     1      28.907   0.865  53.880  1.00  0.00     0.315 C 
HETATM   15  N1  UNL     1      29.310   2.103  54.497  1.00  0.00    -0.352 N 
HETATM   16  O1  UNL     1      29.642  -0.117  53.597  1.00  0.00    -0.248 OA
HETATM   17  H1  UNL     1      29.402   1.913  55.529  1.00  0.00     0.160 HD
HETATM   18  H2  UNL     1      29.514   3.079  54.137  1.00  0.00     0.160 HD
HETATM   19  H3  UNL     1      26.847   1.576  53.785  1.00  0.00     0.166 HD
ENDBRANCH   7  13
ENDBRANCH   1   3
BRANCH   1  20
HETATM   20  C6  UNL     1      23.046   2.843  51.273  1.00  0.00     0.035 A 
HETATM   21  C7  UNL     1      23.243   3.778  52.290  1.00  0.00     0.032 A 
HETATM   22  C8  UNL     1      23.228   5.133  52.078  1.00  0.00     0.041 A 
HETATM   23  C9  UNL     1      23.012   5.655  50.823  1.00  0.00     0.091 A 
HETATM   24  C17 UNL     1      22.812   4.755  49.784  1.00  0.00     0.069 A 
HETATM   25 CL1  UNL     1      22.543   5.485  48.217  1.00  0.00    -0.081 Cl
HETATM   26  C18 UNL     1      22.835   3.410  50.039  1.00  0.00     0.056 A 
BRANCH  23  27
HETATM   27  O2  UNL     1      23.002   7.029  50.635  1.00  0.00    -0.345 OA
BRANCH  27  28
HETATM   28  C10 UNL     1      24.184   7.771  50.832  1.00  0.00     0.214 C 
BRANCH  28  29
HETATM   29  C11 UNL     1      25.035   7.767  49.612  1.00  0.00    -0.031 A 
HETATM   30  C12 UNL     1      24.798   8.684  48.584  1.00  0.00     0.009 A 
HETATM   31  C13 UNL     1      25.641   8.608  47.484  1.00  0.00     0.004 A 
HETATM   32  C14 UNL     1      26.639   7.661  47.461  1.00  0.00     0.042 A 
HETATM   33  C15 UNL     1      26.868   6.758  48.477  1.00  0.00     0.117 A 
HETATM   34  F1  UNL     1      27.846   5.828  48.458  1.00  0.00    -0.206 F 
HETATM   35  C16 UNL     1      26.036   6.823  49.580  1.00  0.00     0.051 A 
ENDBRANCH  28  29
ENDBRANCH  27  28
ENDBRANCH  23  27
ENDBRANCH   1  20
TORSDOF 6
ENDMDL
MODEL 7
REMARK VINA RESULT:      -8.7      6.079     10.524
REMARK  6 active torsions:
REMARK  status: ('A' for Active; 'I' for Inactive)
REMARK       I    between atoms: N1_1  and  C1_2 
REMARK       I    between atoms: C1_2  and  N2_4 
REMARK    1  A    between atoms: N2_4  and  C2_5 
REMARK    2  A    between atoms: C5_8  and  N3_9 
REMARK    3  A    between atoms: N3_9  and  C6_10 
REMARK    4  A    between atoms: C9_13  and  O2_14 
REMARK    5  A    between atoms: O2_14  and  C10_15 
REMARK    6  A    between atoms: C10_15  and  C11_16 
ROOT
HETATM    1  N3  UNL     1      22.267   2.915  52.406  1.00  0.00    -0.340 N 
HETATM    2  H6  UNL     1      22.135   3.588  53.176  1.00  0.00     0.167 HD
ENDROOT
BRANCH   1   3
HETATM    3  C5  UNL     1      23.201   3.112  51.384  1.00  0.00     0.141 A 
HETATM    4  C4  UNL     1      24.515   2.759  51.586  1.00  0.00     0.041 A 
HETATM    5  C3  UNL     1      24.991   2.217  52.691  1.00  0.00     0.039 C 
HETATM    6  C20 UNL     1      25.470   2.942  50.619  1.00  0.00     0.102 A 
HETATM    7  C2  UNL     1      26.409   1.833  52.914  1.00  0.00     0.235 C 
HETATM    8  N6  UNL     1      27.247   2.405  51.874  1.00  0.00    -0.255 NA
HETATM    9  C21 UNL     1      26.727   2.635  50.734  1.00  0.00     0.114 C 
HETATM   10  N5  UNL     1      25.124   3.483  49.433  1.00  0.00    -0.239 NA
HETATM   11  C19 UNL     1      23.850   3.832  49.224  1.00  0.00     0.236 A 
HETATM   12  N4  UNL     1      22.946   3.640  50.185  1.00  0.00    -0.224 NA
BRANCH   7  13
HETATM   13  N2  UNL     1      26.574   0.393  52.850  1.00  0.00    -0.317 N 
HETATM   14  C1  UNL     1      27.521  -0.485  53.428  1.00  0.00     0.315 C 
HETATM   15  N1  UNL     1      27.312  -1.872  53.097  1.00  0.00    -0.352 N 
HETATM   16  O1  UNL     1      28.431  -0.007  54.155  1.00  0.00    -0.248 OA
HETATM   17  H1  UNL     1      28.001  -2.110  52.337  1.00  0.00     0.160 HD
HETATM   18  H2  UNL     1      26.653  -2.626  53.445  1.00  0.00     0.160 HD
HETATM   19  H3  UNL     1      25.784   0.070  52.232  1.00  0.00     0.166 HD
ENDBRANCH   7  13
ENDBRANCH   1   3
BRANCH   1  20
HETATM   20  C6  UNL     1      21.364   1.842  52.612  1.00  0.00     0.035 A 
HETATM   21  C7  UNL     1      20.073   1.753  52.088  1.00  0.00     0.032 A 
HETATM   22  C8  UNL     1      19.238   0.692  52.326  1.00  0.00     0.041 A 
HETATM   23  C9  UNL     1      19.635  -0.365  53.112  1.00  0.00     0.091 A 
HETATM   24  C17 UNL     1      20.914  -0.313  53.651  1.00  0.00     0.069 A 
HETATM   25 CL1  UNL     1      21.355  -1.687  54.641  1.00  0.00    -0.081 Cl
HETATM   26  C18 UNL     1      21.716   0.765  53.389  1.00  0.00     0.056 A 
BRANCH  23  27
HETATM   27  O2  UNL     1      18.771  -1.425  53.337  1.00  0.00    -0.345 OA
BRANCH  27  28
HETATM   28  C10 UNL     1      17.402  -1.289  53.032  1.00  0.00     0.214 C 
BRANCH  28  29
HETATM   29  C11 UNL     1      16.717  -2.610  53.019  1.00  0.00    -0.031 A 
HETATM   30  C12 UNL     1      17.289  -3.708  53.666  1.00  0.00     0.009 A 
HETATM   31  C13 UNL     1      16.579  -4.899  53.603  1.00  0.00     0.004 A 
HETATM   32  C14 UNL     1      15.383  -4.938  52.925  1.00  0.00     0.042 A 
HETATM   33  C15 UNL     1      14.822  -3.852  52.288  1.00  0.00     0.117 A 
HETATM   34  F1  UNL     1      13.648  -3.887  51.622  1.00  0.00    -0.206 F 
HETATM   35  C16 UNL     1      15.518  -2.658  52.343  1.00  0.00     0.051 A 
ENDBRANCH  28  29
ENDBRANCH  27  28
ENDBRANCH  23  27
ENDBRANCH   1  20
TORSDOF 6
ENDMDL
MODEL 8
REMARK VINA RESULT:      -8.7      2.500      3.580
REMARK  6 active torsions:
REMARK  status: ('A' for Active; 'I' for Inactive)
REMARK       I    between atoms: N1_1  and  C1_2 
REMARK       I    between atoms: C1_2  and  N2_4 
REMARK    1  A    between atoms: N2_4  and  C2_5 
REMARK    2  A    between atoms: C5_8  and  N3_9 
REMARK    3  A    between atoms: N3_9  and  C6_10 
REMARK    4  A    between atoms: C9_13  and  O2_14 
REMARK    5  A    between atoms: O2_14  and  C10_15 
REMARK    6  A    between atoms: C10_15  and  C11_16 
ROOT
HETATM    1  N3  UNL     1      25.577   4.397  49.117  1.00  0.00    -0.340 N 
HETATM    2  H6  UNL     1      25.414   3.830  48.272  1.00  0.00     0.167 HD
ENDROOT
BRANCH   1   3
HETATM    3  C5  UNL     1      24.797   4.274  50.271  1.00  0.00     0.141 A 
HETATM    4  C4  UNL     1      25.150   3.360  51.236  1.00  0.00     0.041 A 
HETATM    5  C3  UNL     1      26.206   2.570  51.179  1.00  0.00     0.039 C 
HETATM    6  C20 UNL     1      24.412   3.194  52.380  1.00  0.00     0.102 A 
HETATM    7  C2  UNL     1      26.593   1.582  52.219  1.00  0.00     0.235 C 
HETATM    8  N6  UNL     1      25.497   1.394  53.156  1.00  0.00    -0.255 NA
HETATM    9  C21 UNL     1      24.680   2.355  53.334  1.00  0.00     0.114 C 
HETATM   10  N5  UNL     1      23.306   3.941  52.574  1.00  0.00    -0.239 NA
HETATM   11  C19 UNL     1      22.951   4.832  51.643  1.00  0.00     0.236 A 
HETATM   12  N4  UNL     1      23.691   4.969  50.543  1.00  0.00    -0.224 NA
BRANCH   7  13
HETATM   13  N2  UNL     1      27.732   2.052  52.984  1.00  0.00    -0.317 N 
HETATM   14  C1  UNL     1      28.632   1.393  53.855  1.00  0.00     0.315 C 
HETATM   15  N1  UNL     1      29.640   2.258  54.417  1.00  0.00    -0.352 N 
HETATM   16  O1  UNL     1      28.490   0.160  54.061  1.00  0.00    -0.248 OA
HETATM   17  H1  UNL     1      29.331   2.488  55.397  1.00  0.00     0.160 HD
HETATM   18  H2  UNL     1      30.550   2.666  54.059  1.00  0.00     0.160 HD
HETATM   19  H3  UNL     1      27.786   3.080  52.762  1.00  0.00     0.166 HD
ENDBRANCH   7  13
ENDBRANCH   1   3
BRANCH   1  20
HETATM   20  C6  UNL     1      26.678   5.251  48.857  1.00  0.00     0.035 A 
HETATM   21  C7  UNL     1      27.969   4.835  48.525  1.00  0.00     0.032 A 
HETATM   22  C8  UNL     1      29.002   5.707  48.290  1.00  0.00     0.041 A 
HETATM   23  C9  UNL     1      28.817   7.068  48.371  1.00  0.00     0.091 A 
HETATM   24  C17 UNL     1      27.545   7.521  48.699  1.00  0.00     0.069 A 
HETATM   25 CL1  UNL     1      27.379   9.260  48.786  1.00  0.00    -0.081 Cl
HETATM   26  C18 UNL     1      26.542   6.616  48.926  1.00  0.00     0.056 A 
BRANCH  23  27
HETATM   27  O2  UNL     1      29.877   7.928  48.129  1.00  0.00    -0.345 OA
BRANCH  27  28
HETATM   28  C10 UNL     1      31.038   7.849  48.924  1.00  0.00     0.214 C 
BRANCH  28  29
HETATM   29  C11 UNL     1      32.143   7.164  48.200  1.00  0.00    -0.031 A 
HETATM   30  C12 UNL     1      32.213   7.218  46.805  1.00  0.00     0.009 A 
HETATM   31  C13 UNL     1      33.278   6.551  46.216  1.00  0.00     0.004 A 
HETATM   32  C14 UNL     1      34.185   5.888  47.011  1.00  0.00     0.042 A 
HETATM   33  C15 UNL     1      34.111   5.837  48.387  1.00  0.00     0.117 A 
HETATM   34  F1  UNL     1      34.999   5.189  49.170  1.00  0.00    -0.206 F 
HETATM   35  C16 UNL     1      33.055   6.498  48.988  1.00  0.00     0.051 A 
ENDBRANCH  28  29
ENDBRANCH  27  28
ENDBRANCH  23  27
ENDBRANCH   1  20
TORSDOF 6
ENDMDL
MODEL 9
REMARK VINA RESULT:      -8.4      3.876      5.847
REMARK  6 active torsions:
REMARK  status: ('A' for Active; 'I' for Inactive)
REMARK       I    between atoms: N1_1  and  C1_2 
REMARK       I    between atoms: C1_2  and  N2_4 
REMARK    1  A    between atoms: N2_4  and  C2_5 
REMARK    2  A    between atoms: C5_8  and  N3_9 
REMARK    3  A    between atoms: N3_9  and  C6_10 
REMARK    4  A    between atoms: C9_13  and  O2_14 
REMARK    5  A    between atoms: O2_14  and  C10_15 
REMARK    6  A    between atoms: C10_15  and  C11_16 
ROOT
HETATM    1  N3  UNL     1      26.106   6.295  48.268  1.00  0.00    -0.340 N 
HETATM    2  H6  UNL     1      25.809   5.909  47.359  1.00  0.00     0.167 HD
ENDROOT
BRANCH   1   3
HETATM    3  C5  UNL     1      25.196   6.661  49.265  1.00  0.00     0.141 A 
HETATM    4  C4  UNL     1      24.770   5.722  50.174  1.00  0.00     0.041 A 
HETATM    5  C3  UNL     1      25.166   4.463  50.204  1.00  0.00     0.039 C 
HETATM    6  C20 UNL     1      23.871   6.029  51.164  1.00  0.00     0.102 A 
HETATM    7  C2  UNL     1      24.710   3.445  51.184  1.00  0.00     0.235 C 
HETATM    8  N6  UNL     1      23.553   3.941  51.911  1.00  0.00    -0.255 NA
HETATM    9  C21 UNL     1      23.421   5.200  52.056  1.00  0.00     0.114 C 
HETATM   10  N5  UNL     1      23.383   7.283  51.257  1.00  0.00    -0.239 NA
HETATM   11  C19 UNL     1      23.789   8.205  50.378  1.00  0.00     0.236 A 
HETATM   12  N4  UNL     1      24.664   7.874  49.429  1.00  0.00    -0.224 NA
BRANCH   7  13
HETATM   13  N2  UNL     1      25.742   3.167  52.165  1.00  0.00    -0.317 N 
HETATM   14  C1  UNL     1      25.852   2.191  53.183  1.00  0.00     0.315 C 
HETATM   15  N1  UNL     1      27.073   2.275  53.944  1.00  0.00    -0.352 N 
HETATM   16  O1  UNL     1      24.918   1.361  53.336  1.00  0.00    -0.248 OA
HETATM   17  H1  UNL     1      26.834   2.758  54.849  1.00  0.00     0.160 HD
HETATM   18  H2  UNL     1      28.074   1.969  53.777  1.00  0.00     0.160 HD
HETATM   19  H3  UNL     1      26.481   3.894  51.974  1.00  0.00     0.166 HD
ENDBRANCH   7  13
ENDBRANCH   1   3
BRANCH   1  20
HETATM   20  C6  UNL     1      27.521   6.360  48.268  1.00  0.00     0.035 A 
HETATM   21  C7  UNL     1      28.386   5.264  48.304  1.00  0.00     0.032 A 
HETATM   22  C8  UNL     1      29.752   5.385  48.310  1.00  0.00     0.041 A 
HETATM   23  C9  UNL     1      30.358   6.620  48.279  1.00  0.00     0.091 A 
HETATM   24  C17 UNL     1      29.530   7.735  48.242  1.00  0.00     0.069 A 
HETATM   25 CL1  UNL     1      30.365   9.273  48.205  1.00  0.00    -0.081 Cl
HETATM   26  C18 UNL     1      28.171   7.570  48.238  1.00  0.00     0.056 A 
BRANCH  23  27
HETATM   27  O2  UNL     1      31.741   6.715  48.285  1.00  0.00    -0.345 OA
BRANCH  27  28
HETATM   28  C10 UNL     1      32.507   5.724  48.931  1.00  0.00     0.214 C 
BRANCH  28  29
HETATM   29  C11 UNL     1      33.197   4.847  47.947  1.00  0.00    -0.031 A 
HETATM   30  C12 UNL     1      34.244   5.347  47.168  1.00  0.00     0.009 A 
HETATM   31  C13 UNL     1      34.828   4.457  46.278  1.00  0.00     0.004 A 
HETATM   32  C14 UNL     1      34.362   3.164  46.208  1.00  0.00     0.042 A 
HETATM   33  C15 UNL     1      33.329   2.676  46.979  1.00  0.00     0.117 A 
HETATM   34  F1  UNL     1      32.868   1.408  46.914  1.00  0.00    -0.206 F 
HETATM   35  C16 UNL     1      32.737   3.551  47.871  1.00  0.00     0.051 A 
ENDBRANCH  28  29
ENDBRANCH  27  28
ENDBRANCH  23  27
ENDBRANCH   1  20
TORSDOF 6
ENDMDL
