MODEL 1
REMARK VINA RESULT:      -9.5      0.000      0.000
REMARK  6 active torsions:
REMARK  status: ('A' for Active; 'I' for Inactive)
REMARK    1  A    between atoms: C7_11  and  N3_12 
REMARK    2  A    between atoms: N3_12  and  C8_13 
REMARK    3  A    between atoms: N4_22  and  C17_23 
REMARK    4  A    between atoms: C17_23  and  C18_24 
REMARK    5  A    between atoms: C18_24  and  C19_25 
REMARK    6  A    between atoms: C19_25  and  N5_26 
ROOT
HETATM    1  O1  UNL     1      19.185   1.323  49.818  1.00  0.00    -0.271 OA
HETATM    2  C1  UNL     1      19.613   0.722  50.845  1.00  0.00     0.248 C 
HETATM    3  C2  UNL     1      18.668   0.087  51.796  1.00  0.00     0.279 C 
HETATM    4  O2  UNL     1      19.273  -0.330  52.982  1.00  0.00    -0.340 OA
HETATM    5  C3  UNL     1      20.661  -0.320  53.113  1.00  0.00     0.098 A 
HETATM    6  C4  UNL     1      21.089  -0.878  54.314  1.00  0.00     0.071 A 
HETATM    7  C5  UNL     1      22.450  -0.942  54.593  1.00  0.00     0.075 A 
HETATM    8  N1  UNL     1      22.947  -1.478  55.748  1.00  0.00    -0.241 NA
HETATM    9  C6  UNL     1      24.268  -1.509  55.944  1.00  0.00     0.236 A 
HETATM   10  N2  UNL     1      25.162  -1.022  55.032  1.00  0.00    -0.224 NA
HETATM   11  C7  UNL     1      24.699  -0.479  53.867  1.00  0.00     0.142 A 
HETATM   12  C14 UNL     1      23.344  -0.446  53.662  1.00  0.00     0.041 A 
HETATM   13  C15 UNL     1      22.919   0.109  52.471  1.00  0.00     0.050 A 
HETATM   14  C16 UNL     1      21.562   0.180  52.178  1.00  0.00     0.071 A 
HETATM   15  N4  UNL     1      21.054   0.744  50.960  1.00  0.00    -0.314 N 
ENDROOT
BRANCH  15  16
HETATM   16  C17 UNL     1      21.993   1.224  50.055  1.00  0.00     0.134 C 
BRANCH  16  17
HETATM   17  C18 UNL     1      22.020   2.708  49.870  1.00  0.00     0.050 C 
BRANCH  17  18
HETATM   18  C19 UNL     1      23.088   3.477  50.533  1.00  0.00     0.274 C 
BRANCH  18  19
HETATM   19  N5  UNL     1      24.445   3.214  50.168  1.00  0.00     0.092 N 
HETATM   20  C20 UNL     1      25.255   2.654  51.237  1.00  0.00     0.298 C 
HETATM   21  C21 UNL     1      26.722   2.986  50.942  1.00  0.00     0.198 C 
HETATM   22  O3  UNL     1      26.840   3.108  49.536  1.00  0.00    -0.388 OA
HETATM   23  C22 UNL     1      26.399   4.419  49.256  1.00  0.00     0.198 C 
HETATM   24  C23 UNL     1      25.024   4.533  49.803  1.00  0.00     0.298 C 
ENDBRANCH  18  19
ENDBRANCH  17  18
ENDBRANCH  16  17
ENDBRANCH  15  16
BRANCH  11  25
HETATM   25  N3  UNL     1      25.730  -0.019  53.008  1.00  0.00    -0.340 N 
HETATM   26  H5  UNL     1      25.347   0.492  52.191  1.00  0.00     0.167 HD
BRANCH  25  27
HETATM   27  C8  UNL     1      27.123  -0.225  53.231  1.00  0.00     0.033 A 
HETATM   28  C9  UNL     1      27.692  -1.419  52.947  1.00  0.00     0.029 A 
HETATM   29  C10 UNL     1      29.026  -1.693  53.150  1.00  0.00     0.002 A 
HETATM   30  C11 UNL     1      29.748  -0.613  53.684  1.00  0.00     0.000 A 
HETATM   31  C12 UNL     1      29.256   0.627  54.002  1.00  0.00     0.002 A 
HETATM   32  C13 UNL     1      27.887   0.795  53.754  1.00  0.00     0.029 A 
ENDBRANCH  25  27
ENDBRANCH  11  25
TORSDOF 6
ENDMDL
MODEL 2
REMARK VINA RESULT:      -9.1      2.703      5.652
REMARK  6 active torsions:
REMARK  status: ('A' for Active; 'I' for Inactive)
REMARK    1  A    between atoms: C7_11  and  N3_12 
REMARK    2  A    between atoms: N3_12  and  C8_13 
REMARK    3  A    between atoms: N4_22  and  C17_23 
REMARK    4  A    between atoms: C17_23  and  C18_24 
REMARK    5  A    between atoms: C18_24  and  C19_25 
REMARK    6  A    between atoms: C19_25  and  N5_26 
ROOT
HETATM    1  O1  UNL     1      28.301   2.150  52.713  1.00  0.00    -0.271 OA
HETATM    2  C1  UNL     1      27.403   1.435  53.245  1.00  0.00     0.248 C 
HETATM    3  C2  UNL     1      27.764   0.347  54.185  1.00  0.00     0.279 C 
HETATM    4  O2  UNL     1      26.693  -0.488  54.503  1.00  0.00    -0.340 OA
HETATM    5  C3  UNL     1      25.395  -0.156  54.117  1.00  0.00     0.098 A 
HETATM    6  C4  UNL     1      24.444  -1.039  54.620  1.00  0.00     0.071 A 
HETATM    7  C5  UNL     1      23.100  -0.841  54.323  1.00  0.00     0.075 A 
HETATM    8  N1  UNL     1      22.109  -1.663  54.783  1.00  0.00    -0.241 NA
HETATM    9  C6  UNL     1      20.839  -1.406  54.459  1.00  0.00     0.236 A 
HETATM   10  N2  UNL     1      20.475  -0.346  53.676  1.00  0.00    -0.224 NA
HETATM   11  C7  UNL     1      21.440   0.495  53.200  1.00  0.00     0.142 A 
HETATM   12  C14 UNL     1      22.745   0.235  53.531  1.00  0.00     0.041 A 
HETATM   13  C15 UNL     1      23.688   1.111  53.031  1.00  0.00     0.050 A 
HETATM   14  C16 UNL     1      25.036   0.926  53.319  1.00  0.00     0.071 A 
HETATM   15  N4  UNL     1      26.066   1.798  52.832  1.00  0.00    -0.314 N 
ENDROOT
BRANCH  15  16
HETATM   16  C17 UNL     1      25.658   2.868  52.044  1.00  0.00     0.134 C 
BRANCH  16  17
HETATM   17  C18 UNL     1      25.553   2.595  50.578  1.00  0.00     0.050 C 
BRANCH  17  18
HETATM   18  C19 UNL     1      26.523   3.238  49.674  1.00  0.00     0.274 C 
BRANCH  18  19
HETATM   19  N5  UNL     1      26.523   4.664  49.576  1.00  0.00     0.092 N 
HETATM   20  C20 UNL     1      25.271   5.234  49.108  1.00  0.00     0.298 C 
HETATM   21  C21 UNL     1      25.577   6.601  48.487  1.00  0.00     0.198 C 
HETATM   22  O3  UNL     1      26.738   7.094  49.130  1.00  0.00    -0.388 OA
HETATM   23  C22 UNL     1      27.808   6.458  48.465  1.00  0.00     0.198 C 
HETATM   24  C23 UNL     1      27.574   4.996  48.580  1.00  0.00     0.298 C 
ENDBRANCH  18  19
ENDBRANCH  17  18
ENDBRANCH  16  17
ENDBRANCH  15  16
BRANCH  11  25
HETATM   25  N3  UNL     1      20.928   1.556  52.410  1.00  0.00    -0.340 N 
HETATM   26  H5  UNL     1      20.274   2.153  52.949  1.00  0.00     0.167 HD
BRANCH  25  27
HETATM   27  C8  UNL     1      21.267   1.784  51.044  1.00  0.00     0.033 A 
HETATM   28  C9  UNL     1      21.201   0.775  50.145  1.00  0.00     0.029 A 
HETATM   29  C10 UNL     1      21.525   0.919  48.814  1.00  0.00     0.002 A 
HETATM   30  C11 UNL     1      21.935   2.218  48.473  1.00  0.00     0.000 A 
HETATM   31  C12 UNL     1      22.031   3.297  49.313  1.00  0.00     0.002 A 
HETATM   32  C13 UNL     1      21.676   3.036  50.644  1.00  0.00     0.029 A 
ENDBRANCH  25  27
ENDBRANCH  11  25
TORSDOF 6
ENDMDL
MODEL 3
REMARK VINA RESULT:      -9.0      1.834      5.738
REMARK  6 active torsions:
REMARK  status: ('A' for Active; 'I' for Inactive)
REMARK    1  A    between atoms: C7_11  and  N3_12 
REMARK    2  A    between atoms: N3_12  and  C8_13 
REMARK    3  A    between atoms: N4_22  and  C17_23 
REMARK    4  A    between atoms: C17_23  and  C18_24 
REMARK    5  A    between atoms: C18_24  and  C19_25 
REMARK    6  A    between atoms: C19_25  and  N5_26 
ROOT
HETATM    1  O1  UNL     1      22.412  -1.721  55.216  1.00  0.00    -0.271 OA
HETATM    2  C1  UNL     1      21.953  -1.018  54.271  1.00  0.00     0.248 C 
HETATM    3  C2  UNL     1      20.513  -1.076  53.918  1.00  0.00     0.279 C 
HETATM    4  O2  UNL     1      20.209  -0.426  52.722  1.00  0.00    -0.340 OA
HETATM    5  C3  UNL     1      21.164   0.363  52.081  1.00  0.00     0.098 A 
HETATM    6  C4  UNL     1      20.651   1.026  50.970  1.00  0.00     0.071 A 
HETATM    7  C5  UNL     1      21.481   1.855  50.222  1.00  0.00     0.075 A 
HETATM    8  N1  UNL     1      21.050   2.541  49.121  1.00  0.00    -0.241 NA
HETATM    9  C6  UNL     1      21.906   3.321  48.456  1.00  0.00     0.236 A 
HETATM   10  N2  UNL     1      23.213   3.470  48.827  1.00  0.00    -0.224 NA
HETATM   11  C7  UNL     1      23.677   2.798  49.922  1.00  0.00     0.142 A 
HETATM   12  C14 UNL     1      22.801   1.996  50.609  1.00  0.00     0.041 A 
HETATM   13  C15 UNL     1      23.311   1.338  51.710  1.00  0.00     0.050 A 
HETATM   14  C16 UNL     1      22.493   0.505  52.467  1.00  0.00     0.071 A 
HETATM   15  N4  UNL     1      22.958  -0.207  53.622  1.00  0.00    -0.314 N 
ENDROOT
BRANCH  15  16
HETATM   16  C17 UNL     1      24.291  -0.027  53.972  1.00  0.00     0.134 C 
BRANCH  16  17
HETATM   17  C18 UNL     1      25.239  -1.077  53.485  1.00  0.00     0.050 C 
BRANCH  17  18
HETATM   18  C19 UNL     1      26.545  -0.649  52.952  1.00  0.00     0.274 C 
BRANCH  18  19
HETATM   19  N5  UNL     1      27.184   0.487  53.541  1.00  0.00     0.092 N 
HETATM   20  C20 UNL     1      27.218   1.665  52.691  1.00  0.00     0.298 C 
HETATM   21  C21 UNL     1      28.390   2.541  53.144  1.00  0.00     0.198 C 
HETATM   22  O3  UNL     1      28.592   2.277  54.520  1.00  0.00    -0.388 OA
HETATM   23  C22 UNL     1      29.359   1.092  54.545  1.00  0.00     0.198 C 
HETATM   24  C23 UNL     1      28.587   0.069  53.795  1.00  0.00     0.298 C 
ENDBRANCH  18  19
ENDBRANCH  17  18
ENDBRANCH  16  17
ENDBRANCH  15  16
BRANCH  11  25
HETATM   25  N3  UNL     1      25.046   3.046  50.201  1.00  0.00    -0.340 N 
HETATM   26  H5  UNL     1      25.455   2.303  50.798  1.00  0.00     0.167 HD
BRANCH  25  27
HETATM   27  C8  UNL     1      25.779   4.172  49.724  1.00  0.00     0.033 A 
HETATM   28  C9  UNL     1      25.311   5.426  49.922  1.00  0.00     0.029 A 
HETATM   29  C10 UNL     1      25.958   6.557  49.477  1.00  0.00     0.002 A 
HETATM   30  C11 UNL     1      27.155   6.289  48.793  1.00  0.00     0.000 A 
HETATM   31  C12 UNL     1      27.702   5.056  48.547  1.00  0.00     0.002 A 
HETATM   32  C13 UNL     1      26.960   3.977  49.045  1.00  0.00     0.029 A 
ENDBRANCH  25  27
ENDBRANCH  11  25
TORSDOF 6
ENDMDL
MODEL 4
REMARK VINA RESULT:      -8.9      2.422      6.551
REMARK  6 active torsions:
REMARK  status: ('A' for Active; 'I' for Inactive)
REMARK    1  A    between atoms: C7_11  and  N3_12 
REMARK    2  A    between atoms: N3_12  and  C8_13 
REMARK    3  A    between atoms: N4_22  and  C17_23 
REMARK    4  A    between atoms: C17_23  and  C18_24 
REMARK    5  A    between atoms: C18_24  and  C19_25 
REMARK    6  A    between atoms: C19_25  and  N5_26 
ROOT
HETATM    1  O1  UNL     1      23.455  -0.029  53.967  1.00  0.00    -0.271 OA
HETATM    2  C1  UNL     1      22.917   0.397  52.905  1.00  0.00     0.248 C 
HETATM    3  C2  UNL     1      21.821  -0.365  52.257  1.00  0.00     0.279 C 
HETATM    4  O2  UNL     1      21.493   0.110  50.986  1.00  0.00    -0.340 OA
HETATM    5  C3  UNL     1      22.027   1.310  50.518  1.00  0.00     0.098 A 
HETATM    6  C4  UNL     1      21.500   1.684  49.285  1.00  0.00     0.071 A 
HETATM    7  C5  UNL     1      21.931   2.862  48.684  1.00  0.00     0.075 A 
HETATM    8  N1  UNL     1      21.458   3.296  47.477  1.00  0.00    -0.241 NA
HETATM    9  C6  UNL     1      21.918   4.441  46.965  1.00  0.00     0.236 A 
HETATM   10  N2  UNL     1      22.853   5.211  47.596  1.00  0.00    -0.224 NA
HETATM   11  C7  UNL     1      23.347   4.806  48.804  1.00  0.00     0.142 A 
HETATM   12  C14 UNL     1      22.877   3.632  49.334  1.00  0.00     0.041 A 
HETATM   13  C15 UNL     1      23.401   3.260  50.556  1.00  0.00     0.050 A 
HETATM   14  C16 UNL     1      22.980   2.086  51.170  1.00  0.00     0.071 A 
HETATM   15  N4  UNL     1      23.483   1.643  52.438  1.00  0.00    -0.314 N 
ENDROOT
BRANCH  15  16
HETATM   16  C17 UNL     1      24.429   2.454  53.053  1.00  0.00     0.134 C 
BRANCH  16  17
HETATM   17  C18 UNL     1      25.852   2.015  52.916  1.00  0.00     0.050 C 
BRANCH  17  18
HETATM   18  C19 UNL     1      26.562   1.551  54.121  1.00  0.00     0.274 C 
BRANCH  18  19
HETATM   19  N5  UNL     1      27.251   0.300  54.067  1.00  0.00     0.092 N 
HETATM   20  C20 UNL     1      28.699   0.414  54.017  1.00  0.00     0.298 C 
HETATM   21  C21 UNL     1      29.251  -0.861  53.370  1.00  0.00     0.198 C 
HETATM   22  O3  UNL     1      28.324  -1.895  53.645  1.00  0.00    -0.388 OA
HETATM   23  C22 UNL     1      27.317  -1.736  52.669  1.00  0.00     0.198 C 
HETATM   24  C23 UNL     1      26.802  -0.350  52.809  1.00  0.00     0.298 C 
ENDBRANCH  18  19
ENDBRANCH  17  18
ENDBRANCH  16  17
ENDBRANCH  15  16
BRANCH  11  25
HETATM   25  N3  UNL     1      24.303   5.698  49.353  1.00  0.00    -0.340 N 
HETATM   26  H5  UNL     1      23.891   6.287  50.101  1.00  0.00     0.167 HD
BRANCH  25  27
HETATM   27  C8  UNL     1      25.666   5.780  48.940  1.00  0.00     0.033 A 
HETATM   28  C9  UNL     1      26.490   4.717  49.085  1.00  0.00     0.029 A 
HETATM   29  C10 UNL     1      27.818   4.730  48.721  1.00  0.00     0.002 A 
HETATM   30  C11 UNL     1      28.242   5.955  48.182  1.00  0.00     0.000 A 
HETATM   31  C12 UNL     1      27.480   7.080  47.997  1.00  0.00     0.002 A 
HETATM   32  C13 UNL     1      26.144   6.954  48.402  1.00  0.00     0.029 A 
ENDBRANCH  25  27
ENDBRANCH  11  25
TORSDOF 6
ENDMDL
MODEL 5
REMARK VINA RESULT:      -8.8      2.270      6.125
REMARK  6 active torsions:
REMARK  status: ('A' for Active; 'I' for Inactive)
REMARK    1  A    between atoms: C7_11  and  N3_12 
REMARK    2  A    between atoms: N3_12  and  C8_13 
REMARK    3  A    between atoms: N4_22  and  C17_23 
REMARK    4  A    between atoms: C17_23  and  C18_24 
REMARK    5  A    between atoms: C18_24  and  C19_25 
REMARK    6  A    between atoms: C19_25  and  N5_26 
ROOT
HETATM    1  O1  UNL     1      29.006   1.159  52.824  1.00  0.00    -0.271 OA
HETATM    2  C1  UNL     1      27.987   0.740  53.446  1.00  0.00     0.248 C 
HETATM    3  C2  UNL     1      28.109   0.225  54.831  1.00  0.00     0.279 C 
HETATM    4  O2  UNL     1      26.952  -0.405  55.291  1.00  0.00    -0.340 OA
HETATM    5  C3  UNL     1      25.767  -0.334  54.559  1.00  0.00     0.098 A 
HETATM    6  C4  UNL     1      24.692  -0.917  55.224  1.00  0.00     0.071 A 
HETATM    7  C5  UNL     1      23.438  -0.926  54.623  1.00  0.00     0.075 A 
HETATM    8  N1  UNL     1      22.335  -1.476  55.215  1.00  0.00    -0.241 NA
HETATM    9  C6  UNL     1      21.162  -1.442  54.577  1.00  0.00     0.236 A 
HETATM   10  N2  UNL     1      21.007  -0.878  53.342  1.00  0.00    -0.224 NA
HETATM   11  C7  UNL     1      22.089  -0.320  52.722  1.00  0.00     0.142 A 
HETATM   12  C14 UNL     1      23.295  -0.351  53.374  1.00  0.00     0.041 A 
HETATM   13  C15 UNL     1      24.361   0.225  52.713  1.00  0.00     0.050 A 
HETATM   14  C16 UNL     1      25.622   0.242  53.301  1.00  0.00     0.071 A 
HETATM   15  N4  UNL     1      26.771   0.824  52.669  1.00  0.00    -0.314 N 
ENDROOT
BRANCH  15  16
HETATM   16  C17 UNL     1      26.574   1.393  51.417  1.00  0.00     0.134 C 
BRANCH  16  17
HETATM   17  C18 UNL     1      26.370   2.875  51.399  1.00  0.00     0.050 C 
BRANCH  17  18
HETATM   18  C19 UNL     1      26.237   3.549  50.095  1.00  0.00     0.274 C 
BRANCH  18  19
HETATM   19  N5  UNL     1      25.009   4.216  49.794  1.00  0.00     0.092 N 
HETATM   20  C20 UNL     1      24.486   5.029  50.879  1.00  0.00     0.298 C 
HETATM   21  C21 UNL     1      22.973   5.168  50.679  1.00  0.00     0.198 C 
HETATM   22  O3  UNL     1      22.731   5.053  49.289  1.00  0.00    -0.388 OA
HETATM   23  C22 UNL     1      22.721   3.663  49.045  1.00  0.00     0.198 C 
HETATM   24  C23 UNL     1      24.025   3.137  49.520  1.00  0.00     0.298 C 
ENDBRANCH  18  19
ENDBRANCH  17  18
ENDBRANCH  16  17
ENDBRANCH  15  16
BRANCH  11  25
HETATM   25  N3  UNL     1      21.790   0.236  51.452  1.00  0.00    -0.340 N 
HETATM   26  H5  UNL     1      22.374  -0.183  50.704  1.00  0.00     0.167 HD
BRANCH  25  27
HETATM   27  C8  UNL     1      20.808   1.243  51.220  1.00  0.00     0.033 A 
HETATM   28  C9  UNL     1      19.883   1.085  50.245  1.00  0.00     0.029 A 
HETATM   29  C10 UNL     1      18.915   2.021  49.956  1.00  0.00     0.002 A 
HETATM   30  C11 UNL     1      18.976   3.163  50.770  1.00  0.00     0.000 A 
HETATM   31  C12 UNL     1      19.874   3.408  51.777  1.00  0.00     0.002 A 
HETATM   32  C13 UNL     1      20.813   2.388  51.984  1.00  0.00     0.029 A 
ENDBRANCH  25  27
ENDBRANCH  11  25
TORSDOF 6
ENDMDL
MODEL 6
REMARK VINA RESULT:      -8.8      2.528      6.201
REMARK  6 active torsions:
REMARK  status: ('A' for Active; 'I' for Inactive)
REMARK    1  A    between atoms: C7_11  and  N3_12 
REMARK    2  A    between atoms: N3_12  and  C8_13 
REMARK    3  A    between atoms: N4_22  and  C17_23 
REMARK    4  A    between atoms: C17_23  and  C18_24 
REMARK    5  A    between atoms: C18_24  and  C19_25 
REMARK    6  A    between atoms: C19_25  and  N5_26 
ROOT
HETATM    1  O1  UNL     1      22.000  -0.297  53.599  1.00  0.00    -0.271 OA
HETATM    2  C1  UNL     1      21.501   0.740  53.073  1.00  0.00     0.248 C 
HETATM    3  C2  UNL     1      20.046   0.817  52.795  1.00  0.00     0.279 C 
HETATM    4  O2  UNL     1      19.690   1.917  52.013  1.00  0.00    -0.340 OA
HETATM    5  C3  UNL     1      20.618   2.919  51.735  1.00  0.00     0.098 A 
HETATM    6  C4  UNL     1      20.058   3.990  51.044  1.00  0.00     0.071 A 
HETATM    7  C5  UNL     1      20.856   5.074  50.693  1.00  0.00     0.075 A 
HETATM    8  N1  UNL     1      20.377   6.162  50.018  1.00  0.00    -0.241 NA
HETATM    9  C6  UNL     1      21.205   7.166  49.720  1.00  0.00     0.236 A 
HETATM   10  N2  UNL     1      22.529   7.160  50.060  1.00  0.00    -0.224 NA
HETATM   11  C7  UNL     1      23.040   6.088  50.734  1.00  0.00     0.142 A 
HETATM   12  C14 UNL     1      22.194   5.054  51.044  1.00  0.00     0.041 A 
HETATM   13  C15 UNL     1      22.750   3.992  51.727  1.00  0.00     0.050 A 
HETATM   14  C16 UNL     1      21.965   2.902  52.085  1.00  0.00     0.071 A 
HETATM   15  N4  UNL     1      22.480   1.767  52.795  1.00  0.00    -0.314 N 
ENDROOT
BRANCH  15  16
HETATM   16  C17 UNL     1      23.829   1.798  53.129  1.00  0.00     0.134 C 
BRANCH  16  17
HETATM   17  C18 UNL     1      24.744   1.053  52.210  1.00  0.00     0.050 C 
BRANCH  17  18
HETATM   18  C19 UNL     1      25.720   0.119  52.799  1.00  0.00     0.274 C 
BRANCH  18  19
HETATM   19  N5  UNL     1      26.794   0.655  53.577  1.00  0.00     0.092 N 
HETATM   20  C20 UNL     1      27.307   1.927  53.096  1.00  0.00     0.298 C 
HETATM   21  C21 UNL     1      28.750   2.072  53.589  1.00  0.00     0.198 C 
HETATM   22  O3  UNL     1      28.850   1.326  54.788  1.00  0.00    -0.388 OA
HETATM   23  C22 UNL     1      29.041  -0.006  54.361  1.00  0.00     0.198 C 
HETATM   24  C23 UNL     1      27.891  -0.342  53.484  1.00  0.00     0.298 C 
ENDBRANCH  18  19
ENDBRANCH  17  18
ENDBRANCH  16  17
ENDBRANCH  15  16
BRANCH  11  25
HETATM   25  N3  UNL     1      24.422   6.211  51.032  1.00  0.00    -0.340 N 
HETATM   26  H5  UNL     1      24.576   6.660  51.954  1.00  0.00     0.167 HD
BRANCH  25  27
HETATM   27  C8  UNL     1      25.476   5.773  50.177  1.00  0.00     0.033 A 
HETATM   28  C9  UNL     1      25.806   4.463  50.115  1.00  0.00     0.029 A 
HETATM   29  C10 UNL     1      26.821   3.971  49.324  1.00  0.00     0.002 A 
HETATM   30  C11 UNL     1      27.487   4.961  48.583  1.00  0.00     0.000 A 
HETATM   31  C12 UNL     1      27.221   6.306  48.584  1.00  0.00     0.002 A 
HETATM   32  C13 UNL     1      26.169   6.695  49.424  1.00  0.00     0.029 A 
ENDBRANCH  25  27
ENDBRANCH  11  25
TORSDOF 6
ENDMDL
MODEL 7
REMARK VINA RESULT:      -8.7      2.368      5.031
REMARK  6 active torsions:
REMARK  status: ('A' for Active; 'I' for Inactive)
REMARK    1  A    between atoms: C7_11  and  N3_12 
REMARK    2  A    between atoms: N3_12  and  C8_13 
REMARK    3  A    between atoms: N4_22  and  C17_23 
REMARK    4  A    between atoms: C17_23  and  C18_24 
REMARK    5  A    between atoms: C18_24  and  C19_25 
REMARK    6  A    between atoms: C19_25  and  N5_26 
ROOT
HETATM    1  O1  UNL     1      19.794  -0.963  53.388  1.00  0.00    -0.271 OA
HETATM    2  C1  UNL     1      21.042  -0.841  53.551  1.00  0.00     0.248 C 
HETATM    3  C2  UNL     1      21.736  -1.580  54.634  1.00  0.00     0.279 C 
HETATM    4  O2  UNL     1      23.055  -1.169  54.828  1.00  0.00    -0.340 OA
HETATM    5  C3  UNL     1      23.668  -0.301  53.925  1.00  0.00     0.098 A 
HETATM    6  C4  UNL     1      25.014  -0.094  54.211  1.00  0.00     0.071 A 
HETATM    7  C5  UNL     1      25.766   0.749  53.399  1.00  0.00     0.075 A 
HETATM    8  N1  UNL     1      27.093   0.998  53.614  1.00  0.00    -0.241 NA
HETATM    9  C6  UNL     1      27.750   1.816  52.787  1.00  0.00     0.236 A 
HETATM   10  N2  UNL     1      27.152   2.427  51.721  1.00  0.00    -0.224 NA
HETATM   11  C7  UNL     1      25.827   2.199  51.477  1.00  0.00     0.142 A 
HETATM   12  C14 UNL     1      25.149   1.359  52.323  1.00  0.00     0.041 A 
HETATM   13  C15 UNL     1      23.813   1.156  52.040  1.00  0.00     0.050 A 
HETATM   14  C16 UNL     1      23.048   0.316  52.842  1.00  0.00     0.071 A 
HETATM   15  N4  UNL     1      21.657   0.061  52.604  1.00  0.00    -0.314 N 
ENDROOT
BRANCH  15  16
HETATM   16  C17 UNL     1      21.084   0.695  51.507  1.00  0.00     0.134 C 
BRANCH  16  17
HETATM   17  C18 UNL     1      20.145   1.816  51.820  1.00  0.00     0.050 C 
BRANCH  17  18
HETATM   18  C19 UNL     1      20.710   3.095  52.287  1.00  0.00     0.274 C 
BRANCH  18  19
HETATM   19  N5  UNL     1      20.616   4.236  51.431  1.00  0.00     0.092 N 
HETATM   20  C20 UNL     1      20.659   3.927  50.012  1.00  0.00     0.298 C 
HETATM   21  C21 UNL     1      21.153   5.174  49.271  1.00  0.00     0.198 C 
HETATM   22  O3  UNL     1      20.778   6.291  50.055  1.00  0.00    -0.388 OA
HETATM   23  C22 UNL     1      21.779   6.381  51.046  1.00  0.00     0.198 C 
HETATM   24  C23 UNL     1      21.800   5.074  51.750  1.00  0.00     0.298 C 
ENDBRANCH  18  19
ENDBRANCH  17  18
ENDBRANCH  16  17
ENDBRANCH  15  16
BRANCH  11  25
HETATM   25  N3  UNL     1      25.334   2.887  50.339  1.00  0.00    -0.340 N 
HETATM   26  H5  UNL     1      24.530   2.390  49.911  1.00  0.00     0.167 HD
BRANCH  25  27
HETATM   27  C8  UNL     1      25.867   4.110  49.837  1.00  0.00     0.033 A 
HETATM   28  C9  UNL     1      25.245   5.284  50.094  1.00  0.00     0.029 A 
HETATM   29  C10 UNL     1      25.695   6.500  49.632  1.00  0.00     0.002 A 
HETATM   30  C11 UNL     1      26.866   6.412  48.863  1.00  0.00     0.000 A 
HETATM   31  C12 UNL     1      27.562   5.271  48.553  1.00  0.00     0.002 A 
HETATM   32  C13 UNL     1      27.015   4.092  49.076  1.00  0.00     0.029 A 
ENDBRANCH  25  27
ENDBRANCH  11  25
TORSDOF 6
ENDMDL
MODEL 8
REMARK VINA RESULT:      -8.5      1.492      2.053
REMARK  6 active torsions:
REMARK  status: ('A' for Active; 'I' for Inactive)
REMARK    1  A    between atoms: C7_11  and  N3_12 
REMARK    2  A    between atoms: N3_12  and  C8_13 
REMARK    3  A    between atoms: N4_22  and  C17_23 
REMARK    4  A    between atoms: C17_23  and  C18_24 
REMARK    5  A    between atoms: C18_24  and  C19_25 
REMARK    6  A    between atoms: C19_25  and  N5_26 
ROOT
HETATM    1  O1  UNL     1      19.775   3.866  49.796  1.00  0.00    -0.271 OA
HETATM    2  C1  UNL     1      19.948   2.977  50.680  1.00  0.00     0.248 C 
HETATM    3  C2  UNL     1      18.790   2.409  51.413  1.00  0.00     0.279 C 
HETATM    4  O2  UNL     1      19.159   1.618  52.502  1.00  0.00    -0.340 OA
HETATM    5  C3  UNL     1      20.492   1.260  52.700  1.00  0.00     0.098 A 
HETATM    6  C4  UNL     1      20.656   0.376  53.762  1.00  0.00     0.071 A 
HETATM    7  C5  UNL     1      21.931  -0.077  54.087  1.00  0.00     0.075 A 
HETATM    8  N1  UNL     1      22.171  -0.947  55.113  1.00  0.00    -0.241 NA
HETATM    9  C6  UNL     1      23.423  -1.340  55.361  1.00  0.00     0.236 A 
HETATM   10  N2  UNL     1      24.494  -0.907  54.630  1.00  0.00    -0.224 NA
HETATM   11  C7  UNL     1      24.289  -0.036  53.598  1.00  0.00     0.142 A 
HETATM   12  C14 UNL     1      23.005   0.369  53.338  1.00  0.00     0.041 A 
HETATM   13  C15 UNL     1      22.842   1.247  52.286  1.00  0.00     0.050 A 
HETATM   14  C16 UNL     1      21.574   1.708  51.949  1.00  0.00     0.071 A 
HETATM   15  N4  UNL     1      21.336   2.621  50.868  1.00  0.00    -0.314 N 
ENDROOT
BRANCH  15  16
HETATM   16  C17 UNL     1      22.447   3.035  50.143  1.00  0.00     0.134 C 
BRANCH  16  17
HETATM   17  C18 UNL     1      22.947   4.411  50.447  1.00  0.00     0.050 C 
BRANCH  17  18
HETATM   18  C19 UNL     1      24.282   4.555  51.052  1.00  0.00     0.274 C 
BRANCH  18  19
HETATM   19  N5  UNL     1      25.267   5.324  50.356  1.00  0.00     0.092 N 
HETATM   20  C20 UNL     1      24.724   6.380  49.519  1.00  0.00     0.298 C 
HETATM   21  C21 UNL     1      25.749   6.690  48.425  1.00  0.00     0.198 C 
HETATM   22  O3  UNL     1      27.023   6.369  48.953  1.00  0.00    -0.388 OA
HETATM   23  C22 UNL     1      27.136   4.973  48.779  1.00  0.00     0.198 C 
HETATM   24  C23 UNL     1      25.974   4.362  49.472  1.00  0.00     0.298 C 
ENDBRANCH  18  19
ENDBRANCH  17  18
ENDBRANCH  16  17
ENDBRANCH  15  16
BRANCH  11  25
HETATM   25  N3  UNL     1      25.480   0.327  52.918  1.00  0.00    -0.340 N 
HETATM   26  H5  UNL     1      25.281   0.911  52.084  1.00  0.00     0.167 HD
BRANCH  25  27
HETATM   27  C8  UNL     1      26.792  -0.056  53.323  1.00  0.00     0.033 A 
HETATM   28  C9  UNL     1      27.471   0.684  54.230  1.00  0.00     0.029 A 
HETATM   29  C10 UNL     1      28.745   0.382  54.657  1.00  0.00     0.002 A 
HETATM   30  C11 UNL     1      29.281  -0.771  54.060  1.00  0.00     0.000 A 
HETATM   31  C12 UNL     1      28.668  -1.578  53.135  1.00  0.00     0.002 A 
HETATM   32  C13 UNL     1      27.374  -1.177  52.774  1.00  0.00     0.029 A 
ENDBRANCH  25  27
ENDBRANCH  11  25
TORSDOF 6
ENDMDL
MODEL 9
REMARK VINA RESULT:      -8.5      2.212      2.937
REMARK  6 active torsions:
REMARK  status: ('A' for Active; 'I' for Inactive)
REMARK    1  A    between atoms: C7_11  and  N3_12 
REMARK    2  A    between atoms: N3_12  and  C8_13 
REMARK    3  A    between atoms: N4_22  and  C17_23 
REMARK    4  A    between atoms: C17_23  and  C18_24 
REMARK    5  A    between atoms: C18_24  and  C19_25 
REMARK    6  A    between atoms: C19_25  and  N5_26 
ROOT
HETATM    1  O1  UNL     1      18.602   1.345  50.275  1.00  0.00    -0.271 OA
HETATM    2  C1  UNL     1      19.152   0.691  51.207  1.00  0.00     0.248 C 
HETATM    3  C2  UNL     1      18.338  -0.140  52.127  1.00  0.00     0.279 C 
HETATM    4  O2  UNL     1      19.054  -0.609  53.229  1.00  0.00    -0.340 OA
HETATM    5  C3  UNL     1      20.439  -0.459  53.292  1.00  0.00     0.098 A 
HETATM    6  C4  UNL     1      20.995  -1.089  54.401  1.00  0.00     0.071 A 
HETATM    7  C5  UNL     1      22.370  -1.031  54.605  1.00  0.00     0.075 A 
HETATM    8  N1  UNL     1      22.989  -1.626  55.668  1.00  0.00    -0.241 NA
HETATM    9  C6  UNL     1      24.315  -1.531  55.794  1.00  0.00     0.236 A 
HETATM   10  N2  UNL     1      25.097  -0.856  54.898  1.00  0.00    -0.224 NA
HETATM   11  C7  UNL     1      24.510  -0.249  53.824  1.00  0.00     0.142 A 
HETATM   12  C14 UNL     1      23.148  -0.345  53.691  1.00  0.00     0.041 A 
HETATM   13  C15 UNL     1      22.597   0.280  52.591  1.00  0.00     0.050 A 
HETATM   14  C16 UNL     1      21.224   0.232  52.374  1.00  0.00     0.071 A 
HETATM   15  N4  UNL     1      20.587   0.859  51.252  1.00  0.00    -0.314 N 
ENDROOT
BRANCH  15  16
HETATM   16  C17 UNL     1      21.414   1.532  50.360  1.00  0.00     0.134 C 
BRANCH  16  17
HETATM   17  C18 UNL     1      21.438   0.996  48.964  1.00  0.00     0.050 C 
BRANCH  17  18
HETATM   18  C19 UNL     1      22.055   1.818  47.908  1.00  0.00     0.274 C 
BRANCH  18  19
HETATM   19  N5  UNL     1      21.427   3.052  47.550  1.00  0.00     0.092 N 
HETATM   20  C20 UNL     1      19.994   2.954  47.329  1.00  0.00     0.298 C 
HETATM   21  C21 UNL     1      19.578   4.105  46.406  1.00  0.00     0.198 C 
HETATM   22  O3  UNL     1      20.502   5.156  46.619  1.00  0.00    -0.388 OA
HETATM   23  C22 UNL     1      21.619   4.812  45.827  1.00  0.00     0.198 C 
HETATM   24  C23 UNL     1      22.057   3.464  46.269  1.00  0.00     0.298 C 
ENDBRANCH  18  19
ENDBRANCH  17  18
ENDBRANCH  16  17
ENDBRANCH  15  16
BRANCH  11  25
HETATM   25  N3  UNL     1      25.432   0.409  52.971  1.00  0.00    -0.340 N 
HETATM   26  H5  UNL     1      24.963   0.814  52.140  1.00  0.00     0.167 HD
BRANCH  25  27
HETATM   27  C8  UNL     1      26.833   0.509  53.217  1.00  0.00     0.033 A 
HETATM   28  C9  UNL     1      27.627  -0.581  53.108  1.00  0.00     0.029 A 
HETATM   29  C10 UNL     1      28.983  -0.561  53.344  1.00  0.00     0.002 A 
HETATM   30  C11 UNL     1      29.472   0.703  53.712  1.00  0.00     0.000 A 
HETATM   31  C12 UNL     1      28.745   1.858  53.846  1.00  0.00     0.002 A 
HETATM   32  C13 UNL     1      27.376   1.721  53.581  1.00  0.00     0.029 A 
ENDBRANCH  25  27
ENDBRANCH  11  25
TORSDOF 6
ENDMDL
