MODEL 1
REMARK VINA RESULT:      -8.2      0.000      0.000
REMARK  6 active torsions:
REMARK  status: ('A' for Active; 'I' for Inactive)
REMARK    1  A    between atoms: N1_1  and  C1_2 
REMARK    2  A    between atoms: C1_2  and  C2_3 
REMARK    3  A    between atoms: C2_3  and  C3_4 
REMARK    4  A    between atoms: C3_4  and  C4_5 
REMARK    5  A    between atoms: C4_5  and  C5_6 
REMARK    6  A    between atoms: N2_13  and  C12_14 
ROOT
HETATM    1  C5  UNL     1      24.432   1.280  52.906  1.00  0.00    -0.025 C 
HETATM    2  C6  UNL     1      25.032  -0.033  53.213  1.00  0.00     0.067 C 
HETATM    3  C7  UNL     1      24.240  -0.762  54.242  1.00  0.00    -0.026 C 
HETATM    4  C8  UNL     1      22.900  -0.826  54.212  1.00  0.00    -0.024 C 
HETATM    5  C9  UNL     1      21.741  -0.380  53.429  1.00  0.00     0.086 C 
HETATM    6  C10 UNL     1      21.973   0.838  52.613  1.00  0.00     0.041 C 
HETATM    7  C11 UNL     1      23.106   1.508  52.413  1.00  0.00     0.066 C 
HETATM    8  N2  UNL     1      23.162   2.727  51.574  1.00  0.00    -0.326 N 
HETATM    9  C18 UNL     1      21.973   3.412  51.506  1.00  0.00     0.280 C 
HETATM   10  N3  UNL     1      21.287   4.481  51.065  1.00  0.00    -0.263 NA
HETATM   11  C19 UNL     1      19.969   4.354  51.329  1.00  0.00     0.229 C 
HETATM   12  N4  UNL     1      19.326   3.263  51.984  1.00  0.00    -0.237 NA
HETATM   13  C20 UNL     1      19.680   2.079  52.236  1.00  0.00     0.208 C 
HETATM   14  N5  UNL     1      20.647   1.016  52.177  1.00  0.00    -0.352 N 
HETATM   15  H20 UNL     1      20.124   0.260  51.672  1.00  0.00     0.166 HD
ENDROOT
BRANCH   1  16
HETATM   16  C4  UNL     1      25.042   2.471  53.054  1.00  0.00     0.018 C 
BRANCH  16  17
HETATM   17  C3  UNL     1      26.186   2.180  53.915  1.00  0.00     0.057 C 
BRANCH  17  18
HETATM   18  C2  UNL     1      27.413   2.406  53.487  1.00  0.00    -0.112 C 
BRANCH  18  19
HETATM   19  C1  UNL     1      28.730   2.377  53.364  1.00  0.00     0.137 C 
BRANCH  19  20
HETATM   20  N1  UNL     1      29.377   2.095  54.592  1.00  0.00    -0.402 N 
HETATM   21  H1  UNL     1      30.158   1.442  54.742  1.00  0.00     0.156 HD
HETATM   22  H2  UNL     1      29.075   2.572  55.489  1.00  0.00     0.156 HD
ENDBRANCH  19  20
ENDBRANCH  18  19
ENDBRANCH  17  18
ENDBRANCH  16  17
ENDBRANCH   1  16
BRANCH   8  23
HETATM   23  C12 UNL     1      24.342   3.110  50.877  1.00  0.00     0.036 A 
HETATM   24  C13 UNL     1      24.481   4.505  50.747  1.00  0.00     0.031 A 
HETATM   25  C14 UNL     1      25.509   5.124  50.080  1.00  0.00     0.026 A 
HETATM   26  C15 UNL     1      26.478   4.341  49.494  1.00  0.00     0.034 A 
HETATM   27 CL1  UNL     1      27.847   4.988  48.611  1.00  0.00    -0.084 Cl
HETATM   28  C16 UNL     1      26.383   2.991  49.594  1.00  0.00     0.026 A 
HETATM   29  C17 UNL     1      25.362   2.367  50.256  1.00  0.00     0.031 A 
ENDBRANCH   8  23
TORSDOF 6
ENDMDL
MODEL 2
REMARK VINA RESULT:      -8.2      2.241      5.544
REMARK  6 active torsions:
REMARK  status: ('A' for Active; 'I' for Inactive)
REMARK    1  A    between atoms: N1_1  and  C1_2 
REMARK    2  A    between atoms: C1_2  and  C2_3 
REMARK    3  A    between atoms: C2_3  and  C3_4 
REMARK    4  A    between atoms: C3_4  and  C4_5 
REMARK    5  A    between atoms: C4_5  and  C5_6 
REMARK    6  A    between atoms: N2_13  and  C12_14 
ROOT
HETATM    1  C5  UNL     1      23.317   0.690  53.021  1.00  0.00    -0.025 C 
HETATM    2  C6  UNL     1      22.045   0.311  53.667  1.00  0.00     0.067 C 
HETATM    3  C7  UNL     1      22.108  -1.071  54.217  1.00  0.00    -0.026 C 
HETATM    4  C8  UNL     1      23.167  -1.530  54.903  1.00  0.00    -0.024 C 
HETATM    5  C9  UNL     1      24.490  -1.121  55.391  1.00  0.00     0.086 C 
HETATM    6  C10 UNL     1      25.118  -0.011  54.631  1.00  0.00     0.041 C 
HETATM    7  C11 UNL     1      24.605   0.725  53.648  1.00  0.00     0.066 C 
HETATM    8  N2  UNL     1      25.381   1.794  52.977  1.00  0.00    -0.326 N 
HETATM    9  C18 UNL     1      26.741   1.600  53.013  1.00  0.00     0.280 C 
HETATM   10  N3  UNL     1      27.970   2.012  52.653  1.00  0.00    -0.263 NA
HETATM   11  C19 UNL     1      28.924   1.281  53.265  1.00  0.00     0.229 C 
HETATM   12  N4  UNL     1      28.729   0.204  54.178  1.00  0.00    -0.237 NA
HETATM   13  C20 UNL     1      27.737  -0.181  54.858  1.00  0.00     0.208 C 
HETATM   14  N5  UNL     1      26.369  -0.040  55.276  1.00  0.00    -0.352 N 
HETATM   15  H20 UNL     1      26.457   0.056  56.317  1.00  0.00     0.166 HD
ENDROOT
BRANCH   1  16
HETATM   16  C4  UNL     1      23.461   1.051  51.732  1.00  0.00     0.018 C 
BRANCH  16  17
HETATM   17  C3  UNL     1      22.109   0.965  51.185  1.00  0.00     0.057 C 
BRANCH  17  18
HETATM   18  C2  UNL     1      21.881   1.284  49.926  1.00  0.00    -0.112 C 
BRANCH  18  19
HETATM   19  C1  UNL     1      21.475   1.237  48.668  1.00  0.00     0.137 C 
BRANCH  19  20
HETATM   20  N1  UNL     1      20.180   1.788  48.501  1.00  0.00    -0.402 N 
HETATM   21  H1  UNL     1      19.937   2.649  47.993  1.00  0.00     0.156 HD
HETATM   22  H2  UNL     1      19.329   1.314  48.918  1.00  0.00     0.156 HD
ENDBRANCH  19  20
ENDBRANCH  18  19
ENDBRANCH  17  18
ENDBRANCH  16  17
ENDBRANCH   1  16
BRANCH   8  23
HETATM   23  C12 UNL     1      24.754   2.929  52.394  1.00  0.00     0.036 A 
HETATM   24  C13 UNL     1      25.180   3.182  51.076  1.00  0.00     0.031 A 
HETATM   25  C14 UNL     1      24.757   4.242  50.313  1.00  0.00     0.026 A 
HETATM   26  C15 UNL     1      23.854   5.126  50.859  1.00  0.00     0.034 A 
HETATM   27 CL1  UNL     1      23.224   6.523  50.008  1.00  0.00    -0.084 Cl
HETATM   28  C16 UNL     1      23.417   4.921  52.127  1.00  0.00     0.026 A 
HETATM   29  C17 UNL     1      23.833   3.869  52.894  1.00  0.00     0.031 A 
ENDBRANCH   8  23
TORSDOF 6
ENDMDL
MODEL 3
REMARK VINA RESULT:      -8.0      3.181      5.925
REMARK  6 active torsions:
REMARK  status: ('A' for Active; 'I' for Inactive)
REMARK    1  A    between atoms: N1_1  and  C1_2 
REMARK    2  A    between atoms: C1_2  and  C2_3 
REMARK    3  A    between atoms: C2_3  and  C3_4 
REMARK    4  A    between atoms: C3_4  and  C4_5 
REMARK    5  A    between atoms: C4_5  and  C5_6 
REMARK    6  A    between atoms: N2_13  and  C12_14 
ROOT
HETATM    1  C5  UNL     1      23.864   2.322  51.238  1.00  0.00    -0.025 C 
HETATM    2  C6  UNL     1      24.634   2.861  50.099  1.00  0.00     0.067 C 
HETATM    3  C7  UNL     1      26.014   3.239  50.510  1.00  0.00    -0.026 C 
HETATM    4  C8  UNL     1      26.774   2.462  51.297  1.00  0.00    -0.024 C 
HETATM    5  C9  UNL     1      26.756   1.182  52.017  1.00  0.00     0.086 C 
HETATM    6  C10 UNL     1      25.403   0.686  52.369  1.00  0.00     0.041 C 
HETATM    7  C11 UNL     1      24.215   1.181  52.030  1.00  0.00     0.066 C 
HETATM    8  N2  UNL     1      22.946   0.567  52.486  1.00  0.00    -0.326 N 
HETATM    9  C18 UNL     1      23.056  -0.128  53.666  1.00  0.00     0.280 C 
HETATM   10  N3  UNL     1      22.460  -0.835  54.642  1.00  0.00    -0.263 NA
HETATM   11  C19 UNL     1      23.372  -1.359  55.487  1.00  0.00     0.229 C 
HETATM   12  N4  UNL     1      24.789  -1.221  55.415  1.00  0.00    -0.237 NA
HETATM   13  C20 UNL     1      25.575  -0.861  54.495  1.00  0.00     0.208 C 
HETATM   14  N5  UNL     1      25.814  -0.411  53.151  1.00  0.00    -0.352 N 
HETATM   15  H20 UNL     1      26.452  -1.152  52.773  1.00  0.00     0.166 HD
ENDROOT
BRANCH   1  16
HETATM   16  C4  UNL     1      22.713   2.834  51.714  1.00  0.00     0.018 C 
BRANCH  16  17
HETATM   17  C3  UNL     1      23.137   3.985  52.508  1.00  0.00     0.057 C 
BRANCH  17  18
HETATM   18  C2  UNL     1      23.157   5.190  51.971  1.00  0.00    -0.112 C 
BRANCH  18  19
HETATM   19  C1  UNL     1      23.514   6.246  51.260  1.00  0.00     0.137 C 
BRANCH  19  20
HETATM   20  N1  UNL     1      24.498   7.027  51.915  1.00  0.00    -0.402 N 
HETATM   21  H1  UNL     1      25.464   7.192  51.601  1.00  0.00     0.156 HD
HETATM   22  H2  UNL     1      24.283   7.519  52.828  1.00  0.00     0.156 HD
ENDBRANCH  19  20
ENDBRANCH  18  19
ENDBRANCH  17  18
ENDBRANCH  16  17
ENDBRANCH   1  16
BRANCH   8  23
HETATM   23  C12 UNL     1      21.746   0.666  51.729  1.00  0.00     0.036 A 
HETATM   24  C13 UNL     1      20.594   0.783  52.530  1.00  0.00     0.031 A 
HETATM   25  C14 UNL     1      19.312   0.851  52.042  1.00  0.00     0.026 A 
HETATM   26  C15 UNL     1      19.125   0.802  50.679  1.00  0.00     0.034 A 
HETATM   27 CL1  UNL     1      17.551   0.877  49.912  1.00  0.00    -0.084 Cl
HETATM   28  C16 UNL     1      20.207   0.689  49.869  1.00  0.00     0.026 A 
HETATM   29  C17 UNL     1      21.486   0.621  50.347  1.00  0.00     0.031 A 
ENDBRANCH   8  23
TORSDOF 6
ENDMDL
MODEL 4
REMARK VINA RESULT:      -7.9      2.582      5.536
REMARK  6 active torsions:
REMARK  status: ('A' for Active; 'I' for Inactive)
REMARK    1  A    between atoms: N1_1  and  C1_2 
REMARK    2  A    between atoms: C1_2  and  C2_3 
REMARK    3  A    between atoms: C2_3  and  C3_4 
REMARK    4  A    between atoms: C3_4  and  C4_5 
REMARK    5  A    between atoms: C4_5  and  C5_6 
REMARK    6  A    between atoms: N2_13  and  C12_14 
ROOT
HETATM    1  C5  UNL     1      22.029   0.818  52.347  1.00  0.00    -0.025 C 
HETATM    2  C6  UNL     1      20.688   0.811  52.964  1.00  0.00     0.067 C 
HETATM    3  C7  UNL     1      20.347  -0.534  53.504  1.00  0.00    -0.026 C 
HETATM    4  C8  UNL     1      21.219  -1.274  54.207  1.00  0.00    -0.024 C 
HETATM    5  C9  UNL     1      22.593  -1.255  54.725  1.00  0.00     0.086 C 
HETATM    6  C10 UNL     1      23.524  -0.366  53.986  1.00  0.00     0.041 C 
HETATM    7  C11 UNL     1      23.261   0.488  53.000  1.00  0.00     0.066 C 
HETATM    8  N2  UNL     1      24.321   1.295  52.353  1.00  0.00    -0.326 N 
HETATM    9  C18 UNL     1      25.570   0.726  52.415  1.00  0.00     0.280 C 
HETATM   10  N3  UNL     1      26.872   0.776  52.083  1.00  0.00    -0.263 NA
HETATM   11  C19 UNL     1      27.569  -0.196  52.708  1.00  0.00     0.229 C 
HETATM   12  N4  UNL     1      27.058  -1.177  53.607  1.00  0.00    -0.237 NA
HETATM   13  C20 UNL     1      25.984  -1.268  54.264  1.00  0.00     0.208 C 
HETATM   14  N5  UNL     1      24.702  -0.748  54.656  1.00  0.00    -0.352 N 
HETATM   15  H20 UNL     1      24.792  -0.683  55.699  1.00  0.00     0.166 HD
ENDROOT
BRANCH   1  16
HETATM   16  C4  UNL     1      22.296   1.127  51.064  1.00  0.00     0.018 C 
BRANCH  16  17
HETATM   17  C3  UNL     1      21.054   0.823  50.358  1.00  0.00     0.057 C 
BRANCH  17  18
HETATM   18  C2  UNL     1      20.802   1.378  49.188  1.00  0.00    -0.112 C 
BRANCH  18  19
HETATM   19  C1  UNL     1      20.704   2.260  48.207  1.00  0.00     0.137 C 
BRANCH  19  20
HETATM   20  N1  UNL     1      19.359   2.483  47.819  1.00  0.00    -0.402 N 
HETATM   21  H1  UNL     1      18.877   3.390  47.759  1.00  0.00     0.156 HD
HETATM   22  H2  UNL     1      18.729   1.674  47.551  1.00  0.00     0.156 HD
ENDBRANCH  19  20
ENDBRANCH  18  19
ENDBRANCH  17  18
ENDBRANCH  16  17
ENDBRANCH   1  16
BRANCH   8  23
HETATM   23  C12 UNL     1      24.051   2.563  51.767  1.00  0.00     0.036 A 
HETATM   24  C13 UNL     1      23.658   3.535  52.707  1.00  0.00     0.031 A 
HETATM   25  C14 UNL     1      23.302   4.823  52.389  1.00  0.00     0.026 A 
HETATM   26  C15 UNL     1      23.328   5.204  51.067  1.00  0.00     0.034 A 
HETATM   27 CL1  UNL     1      22.901   6.811  50.511  1.00  0.00    -0.084 Cl
HETATM   28  C16 UNL     1      23.700   4.299  50.128  1.00  0.00     0.026 A 
HETATM   29  C17 UNL     1      24.055   3.016  50.435  1.00  0.00     0.031 A 
ENDBRANCH   8  23
TORSDOF 6
ENDMDL
MODEL 5
REMARK VINA RESULT:      -7.5      2.462      4.321
REMARK  6 active torsions:
REMARK  status: ('A' for Active; 'I' for Inactive)
REMARK    1  A    between atoms: N1_1  and  C1_2 
REMARK    2  A    between atoms: C1_2  and  C2_3 
REMARK    3  A    between atoms: C2_3  and  C3_4 
REMARK    4  A    between atoms: C3_4  and  C4_5 
REMARK    5  A    between atoms: C4_5  and  C5_6 
REMARK    6  A    between atoms: N2_13  and  C12_14 
ROOT
HETATM    1  C5  UNL     1      24.872   2.201  51.500  1.00  0.00    -0.025 C 
HETATM    2  C6  UNL     1      26.247   1.998  51.002  1.00  0.00     0.067 C 
HETATM    3  C7  UNL     1      27.158   1.557  52.094  1.00  0.00    -0.026 C 
HETATM    4  C8  UNL     1      26.813   0.618  52.990  1.00  0.00    -0.024 C 
HETATM    5  C9  UNL     1      25.707  -0.274  53.357  1.00  0.00     0.086 C 
HETATM    6  C10 UNL     1      24.367   0.179  52.907  1.00  0.00     0.041 C 
HETATM    7  C11 UNL     1      24.049   1.214  52.133  1.00  0.00     0.066 C 
HETATM    8  N2  UNL     1      22.645   1.540  51.791  1.00  0.00    -0.326 N 
HETATM    9  C18 UNL     1      21.731   1.111  52.722  1.00  0.00     0.280 C 
HETATM   10  N3  UNL     1      20.452   1.053  53.133  1.00  0.00    -0.263 NA
HETATM   11  C19 UNL     1      20.323   0.236  54.200  1.00  0.00     0.229 C 
HETATM   12  N4  UNL     1      21.359  -0.494  54.853  1.00  0.00    -0.237 NA
HETATM   13  C20 UNL     1      22.532  -0.814  54.517  1.00  0.00     0.208 C 
HETATM   14  N5  UNL     1      23.613  -0.809  53.569  1.00  0.00    -0.352 N 
HETATM   15  H20 UNL     1      23.788  -1.832  53.418  1.00  0.00     0.166 HD
ENDROOT
BRANCH   1  16
HETATM   16  C4  UNL     1      24.184   3.357  51.442  1.00  0.00     0.018 C 
BRANCH  16  17
HETATM   17  C3  UNL     1      25.040   4.241  50.655  1.00  0.00     0.057 C 
BRANCH  17  18
HETATM   18  C2  UNL     1      24.678   5.491  50.434  1.00  0.00    -0.112 C 
BRANCH  18  19
HETATM   19  C1  UNL     1      24.290   6.741  50.620  1.00  0.00     0.137 C 
BRANCH  19  20
HETATM   20  N1  UNL     1      24.392   7.139  51.976  1.00  0.00    -0.402 N 
HETATM   21  H1  UNL     1      25.187   6.975  52.609  1.00  0.00     0.156 HD
HETATM   22  H2  UNL     1      23.603   7.664  52.451  1.00  0.00     0.156 HD
ENDBRANCH  19  20
ENDBRANCH  18  19
ENDBRANCH  17  18
ENDBRANCH  16  17
ENDBRANCH   1  16
BRANCH   8  23
HETATM   23  C12 UNL     1      22.298   2.201  50.579  1.00  0.00     0.036 A 
HETATM   24  C13 UNL     1      21.479   3.329  50.779  1.00  0.00     0.031 A 
HETATM   25  C14 UNL     1      20.974   4.110  49.769  1.00  0.00     0.026 A 
HETATM   26  C15 UNL     1      21.282   3.781  48.468  1.00  0.00     0.034 A 
HETATM   27 CL1  UNL     1      20.711   4.683  47.077  1.00  0.00    -0.084 Cl
HETATM   28  C16 UNL     1      22.067   2.701  48.230  1.00  0.00     0.026 A 
HETATM   29  C17 UNL     1      22.574   1.918  49.229  1.00  0.00     0.031 A 
ENDBRANCH   8  23
TORSDOF 6
ENDMDL
MODEL 6
REMARK VINA RESULT:      -7.5      2.837      6.801
REMARK  6 active torsions:
REMARK  status: ('A' for Active; 'I' for Inactive)
REMARK    1  A    between atoms: N1_1  and  C1_2 
REMARK    2  A    between atoms: C1_2  and  C2_3 
REMARK    3  A    between atoms: C2_3  and  C3_4 
REMARK    4  A    between atoms: C3_4  and  C4_5 
REMARK    5  A    between atoms: C4_5  and  C5_6 
REMARK    6  A    between atoms: N2_13  and  C12_14 
ROOT
HETATM    1  C5  UNL     1      23.427   3.277  51.162  1.00  0.00    -0.025 C 
HETATM    2  C6  UNL     1      23.293   4.014  49.890  1.00  0.00     0.067 C 
HETATM    3  C7  UNL     1      24.474   4.886  49.644  1.00  0.00    -0.026 C 
HETATM    4  C8  UNL     1      25.735   4.471  49.844  1.00  0.00    -0.024 C 
HETATM    5  C9  UNL     1      26.509   3.303  50.283  1.00  0.00     0.086 C 
HETATM    6  C10 UNL     1      25.769   2.360  51.159  1.00  0.00     0.041 C 
HETATM    7  C11 UNL     1      24.485   2.374  51.508  1.00  0.00     0.066 C 
HETATM    8  N2  UNL     1      23.904   1.358  52.415  1.00  0.00    -0.326 N 
HETATM    9  C18 UNL     1      24.814   0.798  53.279  1.00  0.00     0.280 C 
HETATM   10  N3  UNL     1      25.062  -0.040  54.302  1.00  0.00    -0.263 NA
HETATM   11  C19 UNL     1      26.388  -0.161  54.518  1.00  0.00     0.229 C 
HETATM   12  N4  UNL     1      27.438   0.482  53.800  1.00  0.00    -0.237 NA
HETATM   13  C20 UNL     1      27.486   1.068  52.683  1.00  0.00     0.208 C 
HETATM   14  N5  UNL     1      26.855   1.521  51.474  1.00  0.00    -0.352 N 
HETATM   15  H20 UNL     1      27.424   1.050  50.729  1.00  0.00     0.166 HD
ENDROOT
BRANCH   1  16
HETATM   16  C4  UNL     1      22.574   3.351  52.201  1.00  0.00     0.018 C 
BRANCH  16  17
HETATM   17  C3  UNL     1      21.610   4.372  51.798  1.00  0.00     0.057 C 
BRANCH  17  18
HETATM   18  C2  UNL     1      20.327   4.077  51.711  1.00  0.00    -0.112 C 
BRANCH  18  19
HETATM   19  C1  UNL     1      19.129   3.799  51.226  1.00  0.00     0.137 C 
BRANCH  19  20
HETATM   20  N1  UNL     1      19.170   3.471  49.849  1.00  0.00    -0.402 N 
HETATM   21  H1  UNL     1      19.639   4.001  49.102  1.00  0.00     0.156 HD
HETATM   22  H2  UNL     1      18.687   2.602  49.481  1.00  0.00     0.156 HD
ENDBRANCH  19  20
ENDBRANCH  18  19
ENDBRANCH  17  18
ENDBRANCH  16  17
ENDBRANCH   1  16
BRANCH   8  23
HETATM   23  C12 UNL     1      22.534   0.982  52.348  1.00  0.00     0.036 A 
HETATM   24  C13 UNL     1      22.102   0.694  51.040  1.00  0.00     0.031 A 
HETATM   25  C14 UNL     1      20.815   0.349  50.705  1.00  0.00     0.026 A 
HETATM   26  C15 UNL     1      19.873   0.276  51.706  1.00  0.00     0.034 A 
HETATM   27 CL1  UNL     1      18.195  -0.149  51.431  1.00  0.00    -0.084 Cl
HETATM   28  C16 UNL     1      20.246   0.547  52.982  1.00  0.00     0.026 A 
HETATM   29  C17 UNL     1      21.524   0.890  53.324  1.00  0.00     0.031 A 
ENDBRANCH   8  23
TORSDOF 6
ENDMDL
MODEL 7
REMARK VINA RESULT:      -7.5      2.586      5.286
REMARK  6 active torsions:
REMARK  status: ('A' for Active; 'I' for Inactive)
REMARK    1  A    between atoms: N1_1  and  C1_2 
REMARK    2  A    between atoms: C1_2  and  C2_3 
REMARK    3  A    between atoms: C2_3  and  C3_4 
REMARK    4  A    between atoms: C3_4  and  C4_5 
REMARK    5  A    between atoms: C4_5  and  C5_6 
REMARK    6  A    between atoms: N2_13  and  C12_14 
ROOT
HETATM    1  C5  UNL     1      20.958   0.997  51.122  1.00  0.00    -0.025 C 
HETATM    2  C6  UNL     1      19.543   1.318  50.852  1.00  0.00     0.067 C 
HETATM    3  C7  UNL     1      18.651   0.184  51.219  1.00  0.00    -0.026 C 
HETATM    4  C8  UNL     1      18.791  -0.508  52.360  1.00  0.00    -0.024 C 
HETATM    5  C9  UNL     1      19.620  -0.581  53.570  1.00  0.00     0.086 C 
HETATM    6  C10 UNL     1      20.985  -0.016  53.424  1.00  0.00     0.041 C 
HETATM    7  C11 UNL     1      21.515   0.637  52.393  1.00  0.00     0.066 C 
HETATM    8  N2  UNL     1      22.914   1.123  52.403  1.00  0.00    -0.326 N 
HETATM    9  C18 UNL     1      23.748   0.403  53.225  1.00  0.00     0.280 C 
HETATM   10  N3  UNL     1      24.987   0.191  53.700  1.00  0.00    -0.263 NA
HETATM   11  C19 UNL     1      24.974  -0.717  54.699  1.00  0.00     0.229 C 
HETATM   12  N4  UNL     1      23.837  -1.397  55.226  1.00  0.00    -0.237 NA
HETATM   13  C20 UNL     1      22.595  -1.188  55.149  1.00  0.00     0.208 C 
HETATM   14  N5  UNL     1      21.477  -0.414  54.682  1.00  0.00    -0.352 N 
HETATM   15  H20 UNL     1      20.999  -0.142  55.575  1.00  0.00     0.166 HD
ENDROOT
BRANCH   1  16
HETATM   16  C4  UNL     1      21.944   0.983  50.206  1.00  0.00     0.018 C 
BRANCH  16  17
HETATM   17  C3  UNL     1      21.246   1.119  48.930  1.00  0.00     0.057 C 
BRANCH  17  18
HETATM   18  C2  UNL     1      21.509   2.139  48.135  1.00  0.00    -0.112 C 
BRANCH  18  19
HETATM   19  C1  UNL     1      21.587   3.362  47.639  1.00  0.00     0.137 C 
BRANCH  19  20
HETATM   20  N1  UNL     1      21.992   3.367  46.282  1.00  0.00    -0.402 N 
HETATM   21  H1  UNL     1      21.893   4.141  45.611  1.00  0.00     0.156 HD
HETATM   22  H2  UNL     1      22.452   2.516  45.848  1.00  0.00     0.156 HD
ENDBRANCH  19  20
ENDBRANCH  18  19
ENDBRANCH  17  18
ENDBRANCH  16  17
ENDBRANCH   1  16
BRANCH   8  23
HETATM   23  C12 UNL     1      23.322   2.263  51.655  1.00  0.00     0.036 A 
HETATM   24  C13 UNL     1      22.600   3.426  51.981  1.00  0.00     0.031 A 
HETATM   25  C14 UNL     1      22.774   4.645  51.371  1.00  0.00     0.026 A 
HETATM   26  C15 UNL     1      23.715   4.750  50.372  1.00  0.00     0.034 A 
HETATM   27 CL1  UNL     1      24.048   6.237  49.504  1.00  0.00    -0.084 Cl
HETATM   28  C16 UNL     1      24.433   3.653  50.025  1.00  0.00     0.026 A 
HETATM   29  C17 UNL     1      24.266   2.437  50.627  1.00  0.00     0.031 A 
ENDBRANCH   8  23
TORSDOF 6
ENDMDL
MODEL 8
REMARK VINA RESULT:      -7.4      2.606      3.720
REMARK  6 active torsions:
REMARK  status: ('A' for Active; 'I' for Inactive)
REMARK    1  A    between atoms: N1_1  and  C1_2 
REMARK    2  A    between atoms: C1_2  and  C2_3 
REMARK    3  A    between atoms: C2_3  and  C3_4 
REMARK    4  A    between atoms: C3_4  and  C4_5 
REMARK    5  A    between atoms: C4_5  and  C5_6 
REMARK    6  A    between atoms: N2_13  and  C12_14 
ROOT
HETATM    1  C5  UNL     1      24.125   2.692  51.550  1.00  0.00    -0.025 C 
HETATM    2  C6  UNL     1      24.666   1.720  52.522  1.00  0.00     0.067 C 
HETATM    3  C7  UNL     1      23.574   1.014  53.245  1.00  0.00    -0.026 C 
HETATM    4  C8  UNL     1      22.483   0.537  52.624  1.00  0.00    -0.024 C 
HETATM    5  C9  UNL     1      21.866   0.433  51.296  1.00  0.00     0.086 C 
HETATM    6  C10 UNL     1      22.304   1.465  50.324  1.00  0.00     0.041 C 
HETATM    7  C11 UNL     1      23.248   2.394  50.457  1.00  0.00     0.066 C 
HETATM    8  N2  UNL     1      23.551   3.369  49.385  1.00  0.00    -0.326 N 
HETATM    9  C18 UNL     1      22.490   3.625  48.550  1.00  0.00     0.280 C 
HETATM   10  N3  UNL     1      21.987   4.316  47.511  1.00  0.00    -0.263 NA
HETATM   11  C19 UNL     1      20.770   3.849  47.163  1.00  0.00     0.229 C 
HETATM   12  N4  UNL     1      20.056   2.775  47.770  1.00  0.00    -0.237 NA
HETATM   13  C20 UNL     1      20.401   1.836  48.539  1.00  0.00     0.208 C 
HETATM   14  N5  UNL     1      21.403   1.133  49.294  1.00  0.00    -0.352 N 
HETATM   15  H20 UNL     1      21.354   0.165  48.892  1.00  0.00     0.166 HD
ENDROOT
BRANCH   1  16
HETATM   16  C4  UNL     1      24.368   4.016  51.553  1.00  0.00     0.018 C 
BRANCH  16  17
HETATM   17  C3  UNL     1      23.390   4.555  52.494  1.00  0.00     0.057 C 
BRANCH  17  18
HETATM   18  C2  UNL     1      22.349   5.234  52.052  1.00  0.00    -0.112 C 
BRANCH  18  19
HETATM   19  C1  UNL     1      21.536   5.929  51.274  1.00  0.00     0.137 C 
BRANCH  19  20
HETATM   20  N1  UNL     1      21.926   7.287  51.167  1.00  0.00    -0.402 N 
HETATM   21  H1  UNL     1      22.828   7.645  50.823  1.00  0.00     0.156 HD
HETATM   22  H2  UNL     1      21.268   8.067  51.455  1.00  0.00     0.156 HD
ENDBRANCH  19  20
ENDBRANCH  18  19
ENDBRANCH  17  18
ENDBRANCH  16  17
ENDBRANCH   1  16
BRANCH   8  23
HETATM   23  C12 UNL     1      24.844   3.941  49.228  1.00  0.00     0.036 A 
HETATM   24  C13 UNL     1      24.808   5.314  48.916  1.00  0.00     0.031 A 
HETATM   25  C14 UNL     1      25.918   6.084  48.674  1.00  0.00     0.026 A 
HETATM   26  C15 UNL     1      27.158   5.489  48.738  1.00  0.00     0.034 A 
HETATM   27 CL1  UNL     1      28.662   6.343  48.454  1.00  0.00    -0.084 Cl
HETATM   28  C16 UNL     1      27.239   4.168  49.036  1.00  0.00     0.026 A 
HETATM   29  C17 UNL     1      26.138   3.393  49.278  1.00  0.00     0.031 A 
ENDBRANCH   8  23
TORSDOF 6
ENDMDL
MODEL 9
REMARK VINA RESULT:      -7.4      2.724      6.074
REMARK  6 active torsions:
REMARK  status: ('A' for Active; 'I' for Inactive)
REMARK    1  A    between atoms: N1_1  and  C1_2 
REMARK    2  A    between atoms: C1_2  and  C2_3 
REMARK    3  A    between atoms: C2_3  and  C3_4 
REMARK    4  A    between atoms: C3_4  and  C4_5 
REMARK    5  A    between atoms: C4_5  and  C5_6 
REMARK    6  A    between atoms: N2_13  and  C12_14 
ROOT
HETATM    1  C5  UNL     1      22.141   0.824  52.117  1.00  0.00    -0.025 C 
HETATM    2  C6  UNL     1      21.598   0.146  53.310  1.00  0.00     0.067 C 
HETATM    3  C7  UNL     1      22.535  -0.897  53.813  1.00  0.00    -0.026 C 
HETATM    4  C8  UNL     1      23.857  -0.692  53.920  1.00  0.00    -0.024 C 
HETATM    5  C9  UNL     1      24.888   0.329  53.693  1.00  0.00     0.086 C 
HETATM    6  C10 UNL     1      24.533   1.357  52.683  1.00  0.00     0.041 C 
HETATM    7  C11 UNL     1      23.380   1.540  52.043  1.00  0.00     0.066 C 
HETATM    8  N2  UNL     1      23.197   2.615  51.041  1.00  0.00    -0.326 N 
HETATM    9  C18 UNL     1      24.361   3.004  50.423  1.00  0.00     0.280 C 
HETATM   10  N3  UNL     1      24.970   3.769  49.500  1.00  0.00    -0.263 NA
HETATM   11  C19 UNL     1      26.313   3.674  49.602  1.00  0.00     0.229 C 
HETATM   12  N4  UNL     1      27.050   2.888  50.535  1.00  0.00    -0.237 NA
HETATM   13  C20 UNL     1      26.742   2.328  51.623  1.00  0.00     0.208 C 
HETATM   14  N5  UNL     1      25.782   2.007  52.644  1.00  0.00    -0.352 N 
HETATM   15  H20 UNL     1      26.229   2.398  53.508  1.00  0.00     0.166 HD
ENDROOT
BRANCH   1  16
HETATM   16  C4  UNL     1      21.554   0.863  50.906  1.00  0.00     0.018 C 
BRANCH  16  17
HETATM   17  C3  UNL     1      20.250   0.240  51.123  1.00  0.00     0.057 C 
BRANCH  17  18
HETATM   18  C2  UNL     1      19.184   0.694  50.491  1.00  0.00    -0.112 C 
BRANCH  18  19
HETATM   19  C1  UNL     1      17.931   0.976  50.178  1.00  0.00     0.137 C 
BRANCH  19  20
HETATM   20  N1  UNL     1      17.275  -0.114  49.554  1.00  0.00    -0.402 N 
HETATM   21  H1  UNL     1      16.477  -0.066  48.906  1.00  0.00     0.156 HD
HETATM   22  H2  UNL     1      17.589  -1.112  49.730  1.00  0.00     0.156 HD
ENDBRANCH  19  20
ENDBRANCH  18  19
ENDBRANCH  17  18
ENDBRANCH  16  17
ENDBRANCH   1  16
BRANCH   8  23
HETATM   23  C12 UNL     1      21.927   3.205  50.791  1.00  0.00     0.036 A 
HETATM   24  C13 UNL     1      21.610   3.278  49.421  1.00  0.00     0.031 A 
HETATM   25  C14 UNL     1      20.463   3.842  48.918  1.00  0.00     0.026 A 
HETATM   26  C15 UNL     1      19.552   4.375  49.801  1.00  0.00     0.034 A 
HETATM   27 CL1  UNL     1      18.047   5.127  49.308  1.00  0.00    -0.084 Cl
HETATM   28  C16 UNL     1      19.817   4.327  51.131  1.00  0.00     0.026 A 
HETATM   29  C17 UNL     1      20.956   3.768  51.640  1.00  0.00     0.031 A 
ENDBRANCH   8  23
TORSDOF 6
ENDMDL
