MODEL 1
REMARK VINA RESULT:      -9.1      0.000      0.000
REMARK  4 active torsions:
REMARK  status: ('A' for Active; 'I' for Inactive)
REMARK    1  A    between atoms: O1_1  and  C3_4 
REMARK    2  A    between atoms: C12_16  and  C13_17 
REMARK    3  A    between atoms: C13_17  and  C14_18 
REMARK    4  A    between atoms: C15_19  and  N3_20 
ROOT
HETATM    1  O1  UNL     1      21.409   3.205  51.585  1.00  0.00     0.000 OA
HETATM    2  C1  UNL     1      20.730   3.008  50.627  1.00  0.00     0.087 A 
HETATM    3  C2  UNL     1      21.934   3.934  50.934  1.00  0.00     0.033 A 
HETATM    4  C3  UNL     1      22.238   2.800  51.674  1.00  0.00     0.003 A 
HETATM    5  C4  UNL     1      23.393   3.616  51.847  1.00  0.00     0.022 A 
HETATM    6  C5  UNL     1      24.296   3.080  50.620  1.00  0.00     0.002 C 
HETATM    7  C6  UNL     1      23.797   3.199  49.270  1.00  0.00     0.002 C 
HETATM    8  C7  UNL     1      22.881   2.692  48.266  1.00  0.00     0.027 C 
HETATM    9  C8  UNL     1      21.355   2.516  48.422  1.00  0.00     0.122 C 
HETATM   10  N1  UNL     1      21.070   3.675  49.354  1.00  0.00    -0.401 N 
HETATM   11  C9  UNL     1      21.290   1.141  49.057  1.00  0.00     0.257 A 
HETATM   12  O2  UNL     1      21.153   1.099  50.244  1.00  0.00     0.000 OA
HETATM   13  N2  UNL     1      21.167   0.252  50.206  1.00  0.00     0.104 N 
HETATM   14  C10 UNL     1      20.996   0.538  51.665  1.00  0.00     0.305 A 
HETATM   15  C11 UNL     1      22.094   1.423  52.176  1.00  0.00    -0.045 C 
HETATM   16  C12 UNL     1      22.993   1.074  53.067  1.00  0.00    -0.018 C 
HETATM   17  H11 UNL     1      21.239   4.484  48.650  1.00  0.00     0.154 HD
HETATM   18  H12 UNL     1      21.225  -0.788  49.806  1.00  0.00     0.317 HD
ENDROOT
BRANCH  16  19
HETATM   19  C13 UNL     1      23.142  -0.173  53.750  1.00  0.00     0.056 C 
BRANCH  19  20
HETATM   20  C14 UNL     1      24.598  -0.583  53.719  1.00  0.00    -0.006 C 
HETATM   21  C15 UNL     1      25.640   0.165  54.111  1.00  0.00     0.085 C 
BRANCH  21  22
HETATM   22  N3  UNL     1      26.988  -0.225  54.078  1.00  0.00    -0.354 N 
HETATM   23  C16 UNL     1      27.946   0.238  55.065  1.00  0.00     0.194 C 
HETATM   24  C17 UNL     1      29.110   0.880  54.399  1.00  0.00     0.108 C 
HETATM   25  F1  UNL     1      29.587   2.112  54.682  1.00  0.00    -0.209 F 
HETATM   26  C18 UNL     1      29.649   0.079  53.459  1.00  0.00     0.017 C 
HETATM   27  C19 UNL     1      29.020  -1.269  53.244  1.00  0.00     0.089 C 
HETATM   28  C20 UNL     1      27.541  -1.116  53.065  1.00  0.00     0.274 C 
HETATM   29  F2  UNL     1      27.301  -0.547  51.836  1.00  0.00    -0.227 F 
ENDBRANCH  21  22
ENDBRANCH  19  20
ENDBRANCH  16  19
TORSDOF 4
ENDMDL
MODEL 2
REMARK VINA RESULT:      -8.9      1.269      2.480
REMARK  4 active torsions:
REMARK  status: ('A' for Active; 'I' for Inactive)
REMARK    1  A    between atoms: O1_1  and  C3_4 
REMARK    2  A    between atoms: C12_16  and  C13_17 
REMARK    3  A    between atoms: C13_17  and  C14_18 
REMARK    4  A    between atoms: C15_19  and  N3_20 
ROOT
HETATM    1  O1  UNL     1      23.001   2.369  49.626  1.00  0.00     0.000 OA
HETATM    2  C1  UNL     1      22.940   3.559  49.610  1.00  0.00     0.087 A 
HETATM    3  C2  UNL     1      22.189   2.423  48.871  1.00  0.00     0.033 A 
HETATM    4  C3  UNL     1      22.403   1.867  50.126  1.00  0.00     0.003 A 
HETATM    5  C4  UNL     1      21.606   0.884  49.471  1.00  0.00     0.022 A 
HETATM    6  C5  UNL     1      20.136   1.378  49.918  1.00  0.00     0.002 C 
HETATM    7  C6  UNL     1      19.693   2.703  49.555  1.00  0.00     0.002 C 
HETATM    8  C7  UNL     1      19.789   4.128  49.812  1.00  0.00     0.027 C 
HETATM    9  C8  UNL     1      21.083   4.969  49.845  1.00  0.00     0.122 C 
HETATM   10  N1  UNL     1      21.889   4.215  48.808  1.00  0.00    -0.401 N 
HETATM   11  C9  UNL     1      21.520   4.763  51.282  1.00  0.00     0.257 A 
HETATM   12  O2  UNL     1      22.362   3.938  51.478  1.00  0.00     0.000 OA
HETATM   13  N2  UNL     1      22.323   4.109  52.308  1.00  0.00     0.104 N 
HETATM   14  C10 UNL     1      23.362   3.036  52.217  1.00  0.00     0.305 A 
HETATM   15  C11 UNL     1      22.820   1.814  51.537  1.00  0.00    -0.045 C 
HETATM   16  C12 UNL     1      22.663   0.640  52.104  1.00  0.00    -0.018 C 
HETATM   17  H11 UNL     1      21.325   4.512  47.929  1.00  0.00     0.154 HD
HETATM   18  H12 UNL     1      22.026   4.568  53.280  1.00  0.00     0.317 HD
ENDROOT
BRANCH  16  19
HETATM   19  C13 UNL     1      22.963   0.243  53.444  1.00  0.00     0.056 C 
BRANCH  19  20
HETATM   20  C14 UNL     1      24.371  -0.308  53.494  1.00  0.00    -0.006 C 
HETATM   21  C15 UNL     1      25.464   0.349  53.910  1.00  0.00     0.085 C 
BRANCH  21  22
HETATM   22  N3  UNL     1      26.766  -0.171  53.954  1.00  0.00    -0.354 N 
HETATM   23  C16 UNL     1      27.705   0.194  54.998  1.00  0.00     0.194 C 
HETATM   24  C17 UNL     1      28.964   0.719  54.404  1.00  0.00     0.108 C 
HETATM   25  F1  UNL     1      29.542   1.898  54.723  1.00  0.00    -0.209 F 
HETATM   26  C18 UNL     1      29.476  -0.131  53.493  1.00  0.00     0.017 C 
HETATM   27  C19 UNL     1      28.732  -1.410  53.233  1.00  0.00     0.089 C 
HETATM   28  C20 UNL     1      27.288  -1.112  52.969  1.00  0.00     0.274 C 
HETATM   29  F2  UNL     1      27.178  -0.522  51.732  1.00  0.00    -0.227 F 
ENDBRANCH  21  22
ENDBRANCH  19  20
ENDBRANCH  16  19
TORSDOF 4
ENDMDL
MODEL 3
REMARK VINA RESULT:      -8.7      3.363      7.764
REMARK  4 active torsions:
REMARK  status: ('A' for Active; 'I' for Inactive)
REMARK    1  A    between atoms: O1_1  and  C3_4 
REMARK    2  A    between atoms: C12_16  and  C13_17 
REMARK    3  A    between atoms: C13_17  and  C14_18 
REMARK    4  A    between atoms: C15_19  and  N3_20 
ROOT
HETATM    1  O1  UNL     1      25.599   0.239  54.483  1.00  0.00     0.000 OA
HETATM    2  C1  UNL     1      26.540   0.607  55.114  1.00  0.00     0.087 A 
HETATM    3  C2  UNL     1      26.096  -0.753  54.519  1.00  0.00     0.033 A 
HETATM    4  C3  UNL     1      25.649   0.148  53.562  1.00  0.00     0.003 A 
HETATM    5  C4  UNL     1      25.357  -1.116  52.973  1.00  0.00     0.022 A 
HETATM    6  C5  UNL     1      26.720  -1.353  52.140  1.00  0.00     0.002 C 
HETATM    7  C6  UNL     1      27.980  -1.407  52.845  1.00  0.00     0.002 C 
HETATM    8  C7  UNL     1      29.022  -0.663  53.526  1.00  0.00     0.027 C 
HETATM    9  C8  UNL     1      28.829   0.321  54.699  1.00  0.00     0.122 C 
HETATM   10  N1  UNL     1      27.645  -0.337  55.376  1.00  0.00    -0.401 N 
HETATM   11  C9  UNL     1      28.519   1.601  53.949  1.00  0.00     0.257 A 
HETATM   12  O2  UNL     1      27.367   1.904  53.849  1.00  0.00     0.000 OA
HETATM   13  N2  UNL     1      27.596   2.594  53.411  1.00  0.00     0.104 N 
HETATM   14  C10 UNL     1      26.103   2.686  53.462  1.00  0.00     0.305 A 
HETATM   15  C11 UNL     1      25.464   1.451  52.900  1.00  0.00    -0.045 C 
HETATM   16  C12 UNL     1      24.725   1.408  51.817  1.00  0.00    -0.018 C 
HETATM   17  H11 UNL     1      28.155  -1.214  55.762  1.00  0.00     0.154 HD
HETATM   18  H12 UNL     1      28.223   3.361  52.899  1.00  0.00     0.317 HD
ENDROOT
BRANCH  16  19
HETATM   19  C13 UNL     1      24.350   2.476  50.943  1.00  0.00     0.056 C 
BRANCH  19  20
HETATM   20  C14 UNL     1      22.857   2.421  50.707  1.00  0.00    -0.006 C 
HETATM   21  C15 UNL     1      21.991   1.584  51.298  1.00  0.00     0.085 C 
BRANCH  21  22
HETATM   22  N3  UNL     1      20.607   1.541  51.073  1.00  0.00    -0.354 N 
HETATM   23  C16 UNL     1      19.664   1.241  52.134  1.00  0.00     0.194 C 
HETATM   24  C17 UNL     1      18.795   0.098  51.750  1.00  0.00     0.108 C 
HETATM   25  F1  UNL     1      18.597  -1.014  52.491  1.00  0.00    -0.209 F 
HETATM   26  C18 UNL     1      18.211   0.299  50.551  1.00  0.00     0.017 C 
HETATM   27  C19 UNL     1      18.516   1.581  49.831  1.00  0.00     0.089 C 
HETATM   28  C20 UNL     1      19.999   1.789  49.771  1.00  0.00     0.274 C 
HETATM   29  F2  UNL     1      20.536   0.887  48.883  1.00  0.00    -0.227 F 
ENDBRANCH  21  22
ENDBRANCH  19  20
ENDBRANCH  16  19
TORSDOF 4
ENDMDL
MODEL 4
REMARK VINA RESULT:      -8.6      1.706      2.177
REMARK  4 active torsions:
REMARK  status: ('A' for Active; 'I' for Inactive)
REMARK    1  A    between atoms: O1_1  and  C3_4 
REMARK    2  A    between atoms: C12_16  and  C13_17 
REMARK    3  A    between atoms: C13_17  and  C14_18 
REMARK    4  A    between atoms: C15_19  and  N3_20 
ROOT
HETATM    1  O1  UNL     1      22.806   5.417  51.689  1.00  0.00     0.000 OA
HETATM    2  C1  UNL     1      21.814   5.924  51.269  1.00  0.00     0.087 A 
HETATM    3  C2  UNL     1      23.282   5.842  50.781  1.00  0.00     0.033 A 
HETATM    4  C3  UNL     1      23.096   4.598  51.368  1.00  0.00     0.003 A 
HETATM    5  C4  UNL     1      24.402   4.496  50.807  1.00  0.00     0.022 A 
HETATM    6  C5  UNL     1      24.032   3.888  49.358  1.00  0.00     0.002 C 
HETATM    7  C6  UNL     1      23.165   4.635  48.477  1.00  0.00     0.002 C 
HETATM    8  C7  UNL     1      21.810   5.057  48.179  1.00  0.00     0.027 C 
HETATM    9  C8  UNL     1      20.840   5.776  49.142  1.00  0.00     0.122 C 
HETATM   10  N1  UNL     1      21.844   6.576  49.944  1.00  0.00    -0.401 N 
HETATM   11  C9  UNL     1      20.226   4.593  49.864  1.00  0.00     0.257 A 
HETATM   12  O2  UNL     1      20.677   4.322  50.938  1.00  0.00     0.000 OA
HETATM   13  N2  UNL     1      20.129   3.677  50.994  1.00  0.00     0.104 N 
HETATM   14  C10 UNL     1      20.895   3.603  52.277  1.00  0.00     0.305 A 
HETATM   15  C11 UNL     1      22.370   3.496  52.022  1.00  0.00    -0.045 C 
HETATM   16  C12 UNL     1      23.117   2.462  52.331  1.00  0.00    -0.018 C 
HETATM   17  H11 UNL     1      22.129   7.285  49.172  1.00  0.00     0.154 HD
HETATM   18  H12 UNL     1      19.314   2.957  50.746  1.00  0.00     0.317 HD
ENDROOT
BRANCH  16  19
HETATM   19  C13 UNL     1      22.738   1.238  52.965  1.00  0.00     0.056 C 
BRANCH  19  20
HETATM   20  C14 UNL     1      23.969   0.382  53.164  1.00  0.00    -0.006 C 
HETATM   21  C15 UNL     1      25.199   0.822  53.472  1.00  0.00     0.085 C 
BRANCH  21  22
HETATM   22  N3  UNL     1      26.335   0.020  53.655  1.00  0.00    -0.354 N 
HETATM   23  C16 UNL     1      27.185   0.146  54.824  1.00  0.00     0.194 C 
HETATM   24  C17 UNL     1      28.596   0.382  54.418  1.00  0.00     0.108 C 
HETATM   25  F1  UNL     1      29.375   1.394  54.860  1.00  0.00    -0.209 F 
HETATM   26  C18 UNL     1      29.023  -0.547  53.539  1.00  0.00     0.017 C 
HETATM   27  C19 UNL     1      28.054  -1.619  53.130  1.00  0.00     0.089 C 
HETATM   28  C20 UNL     1      26.760  -0.998  52.701  1.00  0.00     0.274 C 
HETATM   29  F2  UNL     1      26.949  -0.378  51.488  1.00  0.00    -0.227 F 
ENDBRANCH  21  22
ENDBRANCH  19  20
ENDBRANCH  16  19
TORSDOF 4
ENDMDL
MODEL 5
REMARK VINA RESULT:      -8.6      1.977      3.110
REMARK  4 active torsions:
REMARK  status: ('A' for Active; 'I' for Inactive)
REMARK    1  A    between atoms: O1_1  and  C3_4 
REMARK    2  A    between atoms: C12_16  and  C13_17 
REMARK    3  A    between atoms: C13_17  and  C14_18 
REMARK    4  A    between atoms: C15_19  and  N3_20 
ROOT
HETATM    1  O1  UNL     1      24.024   4.489  49.655  1.00  0.00     0.000 OA
HETATM    2  C1  UNL     1      23.849   5.640  49.905  1.00  0.00     0.087 A 
HETATM    3  C2  UNL     1      23.522   4.729  48.695  1.00  0.00     0.033 A 
HETATM    4  C3  UNL     1      23.347   3.867  49.769  1.00  0.00     0.003 A 
HETATM    5  C4  UNL     1      22.933   3.081  48.655  1.00  0.00     0.022 A 
HETATM    6  C5  UNL     1      21.355   3.423  48.647  1.00  0.00     0.002 C 
HETATM    7  C6  UNL     1      20.928   4.792  48.479  1.00  0.00     0.002 C 
HETATM    8  C7  UNL     1      20.780   6.100  49.089  1.00  0.00     0.027 C 
HETATM    9  C8  UNL     1      21.887   6.918  49.788  1.00  0.00     0.122 C 
HETATM   10  N1  UNL     1      23.076   6.472  48.962  1.00  0.00    -0.401 N 
HETATM   11  C9  UNL     1      21.821   6.347  51.190  1.00  0.00     0.257 A 
HETATM   12  O2  UNL     1      22.625   5.509  51.472  1.00  0.00     0.000 OA
HETATM   13  N2  UNL     1      22.285   5.456  52.247  1.00  0.00     0.104 N 
HETATM   14  C10 UNL     1      23.398   4.456  52.281  1.00  0.00     0.305 A 
HETATM   15  C11 UNL     1      23.255   3.449  51.178  1.00  0.00    -0.045 C 
HETATM   16  C12 UNL     1      23.036   2.166  51.350  1.00  0.00    -0.018 C 
HETATM   17  H11 UNL     1      22.822   6.983  48.038  1.00  0.00     0.154 HD
HETATM   18  H12 UNL     1      21.624   5.640  53.127  1.00  0.00     0.317 HD
ENDROOT
BRANCH  16  19
HETATM   19  C13 UNL     1      22.895   1.435  52.569  1.00  0.00     0.056 C 
BRANCH  19  20
HETATM   20  C14 UNL     1      24.116   0.565  52.770  1.00  0.00    -0.006 C 
HETATM   21  C15 UNL     1      25.206   0.882  53.485  1.00  0.00     0.085 C 
BRANCH  21  22
HETATM   22  N3  UNL     1      26.334   0.068  53.666  1.00  0.00    -0.354 N 
HETATM   23  C16 UNL     1      27.175   0.171  54.844  1.00  0.00     0.194 C 
HETATM   24  C17 UNL     1      28.591   0.401  54.452  1.00  0.00     0.108 C 
HETATM   25  F1  UNL     1      29.375   1.400  54.915  1.00  0.00    -0.209 F 
HETATM   26  C18 UNL     1      29.018  -0.519  53.564  1.00  0.00     0.017 C 
HETATM   27  C19 UNL     1      28.043  -1.578  53.132  1.00  0.00     0.089 C 
HETATM   28  C20 UNL     1      26.758  -0.940  52.701  1.00  0.00     0.274 C 
HETATM   29  F2  UNL     1      26.963  -0.305  51.499  1.00  0.00    -0.227 F 
ENDBRANCH  21  22
ENDBRANCH  19  20
ENDBRANCH  16  19
TORSDOF 4
ENDMDL
MODEL 6
REMARK VINA RESULT:      -8.4      1.907      3.536
REMARK  4 active torsions:
REMARK  status: ('A' for Active; 'I' for Inactive)
REMARK    1  A    between atoms: O1_1  and  C3_4 
REMARK    2  A    between atoms: C12_16  and  C13_17 
REMARK    3  A    between atoms: C13_17  and  C14_18 
REMARK    4  A    between atoms: C15_19  and  N3_20 
ROOT
HETATM    1  O1  UNL     1      21.790   4.055  49.048  1.00  0.00     0.000 OA
HETATM    2  C1  UNL     1      21.160   4.632  49.877  1.00  0.00     0.087 A 
HETATM    3  C2  UNL     1      20.994   3.286  49.128  1.00  0.00     0.033 A 
HETATM    4  C3  UNL     1      22.372   3.371  49.280  1.00  0.00     0.003 A 
HETATM    5  C4  UNL     1      22.192   2.082  48.702  1.00  0.00     0.022 A 
HETATM    6  C5  UNL     1      22.080   1.191  50.043  1.00  0.00     0.002 C 
HETATM    7  C6  UNL     1      21.024   1.466  50.990  1.00  0.00     0.002 C 
HETATM    8  C7  UNL     1      20.529   2.342  52.035  1.00  0.00     0.027 C 
HETATM    9  C8  UNL     1      20.338   3.871  51.935  1.00  0.00     0.122 C 
HETATM   10  N1  UNL     1      19.977   3.976  50.468  1.00  0.00    -0.401 N 
HETATM   11  C9  UNL     1      21.726   4.357  52.299  1.00  0.00     0.257 A 
HETATM   12  O2  UNL     1      22.450   4.652  51.394  1.00  0.00     0.000 OA
HETATM   13  N2  UNL     1      23.057   4.845  51.955  1.00  0.00     0.104 N 
HETATM   14  C10 UNL     1      23.696   5.126  50.632  1.00  0.00     0.305 A 
HETATM   15  C11 UNL     1      23.658   3.917  49.744  1.00  0.00    -0.045 C 
HETATM   16  C12 UNL     1      24.711   3.256  49.322  1.00  0.00    -0.018 C 
HETATM   17  H11 UNL     1      18.992   3.522  50.519  1.00  0.00     0.154 HD
HETATM   18  H12 UNL     1      23.595   4.997  52.920  1.00  0.00     0.317 HD
ENDROOT
BRANCH  16  19
HETATM   19  C13 UNL     1      26.094   3.511  49.580  1.00  0.00     0.056 C 
BRANCH  19  20
HETATM   20  C14 UNL     1      26.425   3.068  50.988  1.00  0.00    -0.006 C 
HETATM   21  C15 UNL     1      26.802   1.836  51.362  1.00  0.00     0.085 C 
BRANCH  21  22
HETATM   22  N3  UNL     1      27.108   1.433  52.671  1.00  0.00    -0.354 N 
HETATM   23  C16 UNL     1      28.360   1.789  53.312  1.00  0.00     0.194 C 
HETATM   24  C17 UNL     1      29.060   0.570  53.797  1.00  0.00     0.108 C 
HETATM   25  F1  UNL     1      30.340   0.243  53.516  1.00  0.00    -0.209 F 
HETATM   26  C18 UNL     1      28.257  -0.191  54.568  1.00  0.00     0.017 C 
HETATM   27  C19 UNL     1      26.853   0.289  54.802  1.00  0.00     0.089 C 
HETATM   28  C20 UNL     1      26.209   0.633  53.494  1.00  0.00     0.274 C 
HETATM   29  F2  UNL     1      25.947  -0.532  52.812  1.00  0.00    -0.227 F 
ENDBRANCH  21  22
ENDBRANCH  19  20
ENDBRANCH  16  19
TORSDOF 4
ENDMDL
MODEL 7
REMARK VINA RESULT:      -8.3      3.794      7.717
REMARK  4 active torsions:
REMARK  status: ('A' for Active; 'I' for Inactive)
REMARK    1  A    between atoms: O1_1  and  C3_4 
REMARK    2  A    between atoms: C12_16  and  C13_17 
REMARK    3  A    between atoms: C13_17  and  C14_18 
REMARK    4  A    between atoms: C15_19  and  N3_20 
ROOT
HETATM    1  O1  UNL     1      26.368  -0.692  52.305  1.00  0.00     0.000 OA
HETATM    2  C1  UNL     1      27.192  -1.082  53.071  1.00  0.00     0.087 A 
HETATM    3  C2  UNL     1      27.190  -0.063  51.904  1.00  0.00     0.033 A 
HETATM    4  C3  UNL     1      25.925   0.110  52.448  1.00  0.00     0.003 A 
HETATM    5  C4  UNL     1      25.986   1.124  51.450  1.00  0.00     0.022 A 
HETATM    6  C5  UNL     1      26.554   2.349  52.335  1.00  0.00     0.002 C 
HETATM    7  C6  UNL     1      27.834   2.214  52.991  1.00  0.00     0.002 C 
HETATM    8  C7  UNL     1      28.579   1.627  54.089  1.00  0.00     0.027 C 
HETATM    9  C8  UNL     1      28.649   0.128  54.452  1.00  0.00     0.122 C 
HETATM   10  N1  UNL     1      28.533  -0.465  53.063  1.00  0.00    -0.401 N 
HETATM   11  C9  UNL     1      27.415  -0.012  55.322  1.00  0.00     0.257 A 
HETATM   12  O2  UNL     1      26.433  -0.452  54.802  1.00  0.00     0.000 OA
HETATM   13  N2  UNL     1      26.020  -0.374  55.539  1.00  0.00     0.104 N 
HETATM   14  C10 UNL     1      24.989  -0.939  54.612  1.00  0.00     0.305 A 
HETATM   15  C11 UNL     1      24.816  -0.072  53.400  1.00  0.00    -0.045 C 
HETATM   16  C12 UNL     1      23.722   0.583  53.090  1.00  0.00    -0.018 C 
HETATM   17  H11 UNL     1      29.508  -0.170  52.688  1.00  0.00     0.154 HD
HETATM   18  H12 UNL     1      25.798  -0.147  56.608  1.00  0.00     0.317 HD
ENDROOT
BRANCH  16  19
HETATM   19  C13 UNL     1      22.475   0.629  53.786  1.00  0.00     0.056 C 
BRANCH  19  20
HETATM   20  C14 UNL     1      21.369   0.943  52.802  1.00  0.00    -0.006 C 
HETATM   21  C15 UNL     1      20.934   0.143  51.817  1.00  0.00     0.085 C 
BRANCH  21  22
HETATM   22  N3  UNL     1      19.908   0.442  50.909  1.00  0.00    -0.354 N 
HETATM   23  C16 UNL     1      20.144   1.230  49.714  1.00  0.00     0.194 C 
HETATM   24  C17 UNL     1      19.220   2.394  49.668  1.00  0.00     0.108 C 
HETATM   25  F1  UNL     1      19.595   3.680  49.497  1.00  0.00    -0.209 F 
HETATM   26  C18 UNL     1      17.935   2.015  49.818  1.00  0.00     0.017 C 
HETATM   27  C19 UNL     1      17.655   0.550  49.999  1.00  0.00     0.089 C 
HETATM   28  C20 UNL     1      18.530  -0.004  51.082  1.00  0.00     0.274 C 
HETATM   29  F2  UNL     1      18.088   0.471  52.294  1.00  0.00    -0.227 F 
ENDBRANCH  21  22
ENDBRANCH  19  20
ENDBRANCH  16  19
TORSDOF 4
ENDMDL
MODEL 8
REMARK VINA RESULT:      -8.2      1.529      2.315
REMARK  4 active torsions:
REMARK  status: ('A' for Active; 'I' for Inactive)
REMARK    1  A    between atoms: O1_1  and  C3_4 
REMARK    2  A    between atoms: C12_16  and  C13_17 
REMARK    3  A    between atoms: C13_17  and  C14_18 
REMARK    4  A    between atoms: C15_19  and  N3_20 
ROOT
HETATM    1  O1  UNL     1      20.965   4.050  51.011  1.00  0.00     0.000 OA
HETATM    2  C1  UNL     1      20.974   4.089  49.821  1.00  0.00     0.087 A 
HETATM    3  C2  UNL     1      21.507   5.017  50.942  1.00  0.00     0.033 A 
HETATM    4  C3  UNL     1      21.705   3.754  51.485  1.00  0.00     0.003 A 
HETATM    5  C4  UNL     1      22.300   4.616  52.450  1.00  0.00     0.022 A 
HETATM    6  C5  UNL     1      23.818   4.638  51.901  1.00  0.00     0.002 C 
HETATM    7  C6  UNL     1      24.081   5.125  50.567  1.00  0.00     0.002 C 
HETATM    8  C7  UNL     1      24.015   4.857  49.143  1.00  0.00     0.027 C 
HETATM    9  C8  UNL     1      22.762   4.435  48.346  1.00  0.00     0.122 C 
HETATM   10  N1  UNL     1      21.708   5.176  49.141  1.00  0.00    -0.401 N 
HETATM   11  C9  UNL     1      22.789   2.933  48.544  1.00  0.00     0.257 A 
HETATM   12  O2  UNL     1      22.078   2.487  49.394  1.00  0.00     0.000 OA
HETATM   13  N2  UNL     1      22.360   1.708  49.209  1.00  0.00     0.104 N 
HETATM   14  C10 UNL     1      21.383   1.475  50.318  1.00  0.00     0.305 A 
HETATM   15  C11 UNL     1      21.737   2.283  51.531  1.00  0.00    -0.045 C 
HETATM   16  C12 UNL     1      22.102   1.785  52.690  1.00  0.00    -0.018 C 
HETATM   17  H11 UNL     1      21.967   6.186  48.840  1.00  0.00     0.154 HD
HETATM   18  H12 UNL     1      22.921   0.875  48.725  1.00  0.00     0.317 HD
ENDROOT
BRANCH  16  19
HETATM   19  C13 UNL     1      22.238   0.416  53.076  1.00  0.00     0.056 C 
BRANCH  19  20
HETATM   20  C14 UNL     1      23.706   0.053  53.106  1.00  0.00    -0.006 C 
HETATM   21  C15 UNL     1      24.735   0.912  53.051  1.00  0.00     0.085 C 
BRANCH  21  22
HETATM   22  N3  UNL     1      26.095   0.567  53.080  1.00  0.00    -0.354 N 
HETATM   23  C16 UNL     1      26.698  -0.268  52.058  1.00  0.00     0.194 C 
HETATM   24  C17 UNL     1      27.373  -1.441  52.676  1.00  0.00     0.108 C 
HETATM   25  F1  UNL     1      27.166  -2.730  52.330  1.00  0.00    -0.209 F 
HETATM   26  C18 UNL     1      28.234  -1.066  53.643  1.00  0.00     0.017 C 
HETATM   27  C19 UNL     1      28.369   0.403  53.928  1.00  0.00     0.089 C 
HETATM   28  C20 UNL     1      27.012   1.009  54.123  1.00  0.00     0.274 C 
HETATM   29  F2  UNL     1      26.508   0.581  55.329  1.00  0.00    -0.227 F 
ENDBRANCH  21  22
ENDBRANCH  19  20
ENDBRANCH  16  19
TORSDOF 4
ENDMDL
MODEL 9
REMARK VINA RESULT:      -8.1     11.707     14.129
REMARK  4 active torsions:
REMARK  status: ('A' for Active; 'I' for Inactive)
REMARK    1  A    between atoms: O1_1  and  C3_4 
REMARK    2  A    between atoms: C12_16  and  C13_17 
REMARK    3  A    between atoms: C13_17  and  C14_18 
REMARK    4  A    between atoms: C15_19  and  N3_20 
ROOT
HETATM    1  O1  UNL     1      31.941   4.563  46.867  1.00  0.00     0.000 OA
HETATM    2  C1  UNL     1      31.998   5.439  47.671  1.00  0.00     0.087 A 
HETATM    3  C2  UNL     1      32.420   3.948  47.657  1.00  0.00     0.033 A 
HETATM    4  C3  UNL     1      32.678   4.340  46.351  1.00  0.00     0.003 A 
HETATM    5  C4  UNL     1      33.173   3.005  46.389  1.00  0.00     0.022 A 
HETATM    6  C5  UNL     1      34.709   3.292  46.799  1.00  0.00     0.002 C 
HETATM    7  C6  UNL     1      34.995   3.967  48.043  1.00  0.00     0.002 C 
HETATM    8  C7  UNL     1      35.008   5.225  48.765  1.00  0.00     0.027 C 
HETATM    9  C8  UNL     1      33.821   6.197  48.936  1.00  0.00     0.122 C 
HETATM   10  N1  UNL     1      32.686   5.194  48.955  1.00  0.00    -0.401 N 
HETATM   11  C9  UNL     1      33.940   7.018  47.668  1.00  0.00     0.257 A 
HETATM   12  O2  UNL     1      33.224   6.717  46.759  1.00  0.00     0.000 OA
HETATM   13  N2  UNL     1      33.565   7.341  46.296  1.00  0.00     0.104 N 
HETATM   14  C10 UNL     1      32.559   6.726  45.375  1.00  0.00     0.305 A 
HETATM   15  C11 UNL     1      32.807   5.256  45.205  1.00  0.00    -0.045 C 
HETATM   16  C12 UNL     1      33.154   4.673  44.081  1.00  0.00    -0.018 C 
HETATM   17  H11 UNL     1      32.890   4.748  49.924  1.00  0.00     0.154 HD
HETATM   18  H12 UNL     1      34.201   8.206  45.992  1.00  0.00     0.317 HD
ENDROOT
BRANCH  16  19
HETATM   19  C13 UNL     1      33.365   5.258  42.794  1.00  0.00     0.056 C 
BRANCH  19  20
HETATM   20  C14 UNL     1      33.306   4.173  41.741  1.00  0.00    -0.006 C 
HETATM   21  C15 UNL     1      32.693   4.257  40.551  1.00  0.00     0.085 C 
BRANCH  21  22
HETATM   22  N3  UNL     1      32.643   3.246  39.580  1.00  0.00    -0.354 N 
HETATM   23  C16 UNL     1      32.672   1.839  39.933  1.00  0.00     0.194 C 
HETATM   24  C17 UNL     1      33.777   1.146  39.219  1.00  0.00     0.108 C 
HETATM   25  F1  UNL     1      34.726   0.384  39.805  1.00  0.00    -0.209 F 
HETATM   26  C18 UNL     1      33.726   1.367  37.890  1.00  0.00     0.017 C 
HETATM   27  C19 UNL     1      32.616   2.235  37.368  1.00  0.00     0.089 C 
HETATM   28  C20 UNL     1      32.560   3.512  38.149  1.00  0.00     0.274 C 
HETATM   29  F2  UNL     1      33.644   4.286  37.807  1.00  0.00    -0.227 F 
ENDBRANCH  21  22
ENDBRANCH  19  20
ENDBRANCH  16  19
TORSDOF 4
ENDMDL
