MODEL 1
REMARK VINA RESULT:      -9.4      0.000      0.000
REMARK  6 active torsions:
REMARK  status: ('A' for Active; 'I' for Inactive)
REMARK       I    between atoms: N1_2  and  C2_3 
REMARK       I    between atoms: C2_3  and  N2_5 
REMARK    1  A    between atoms: C3_6  and  C4_7 
REMARK    2  A    between atoms: C7_10  and  N3_11 
REMARK    3  A    between atoms: C11_15  and  S1_16 
REMARK    4  A    between atoms: S1_16  and  C12_19 
REMARK    5  A    between atoms: C18_25  and  N4_26 
REMARK    6  A    between atoms: C22_32  and  O4_33 
ROOT
HETATM    1  C4  UNL     1      23.110   1.247  52.617  1.00  0.00     0.016 A 
HETATM    2  C5  UNL     1      22.735   2.268  51.778  1.00  0.00     0.033 A 
HETATM    3  C6  UNL     1      21.411   2.639  51.765  1.00  0.00     0.040 A 
HETATM    4  C7  UNL     1      21.166   3.661  50.880  1.00  0.00     0.145 A 
HETATM    5  N5  UNL     1      19.881   4.102  50.774  1.00  0.00    -0.223 NA
HETATM    6  C19 UNL     1      18.900   3.532  51.530  1.00  0.00     0.236 A 
HETATM    7  N6  UNL     1      19.141   2.528  52.402  1.00  0.00    -0.241 NA
HETATM    8  C20 UNL     1      20.401   2.086  52.515  1.00  0.00     0.074 A 
HETATM    9  C21 UNL     1      20.802   1.058  53.352  1.00  0.00     0.070 A 
HETATM   10  C22 UNL     1      22.134   0.640  53.407  1.00  0.00     0.082 A 
ENDROOT
BRANCH   4  11
HETATM   11  N3  UNL     1      22.000   4.448  50.035  1.00  0.00    -0.315 N 
HETATM   12  C8  UNL     1      21.766   4.026  48.693  1.00  0.00     0.095 A 
HETATM   13  C9  UNL     1      22.448   4.576  47.674  1.00  0.00     0.019 A 
HETATM   14  C10 UNL     1      23.441   5.617  47.902  1.00  0.00     0.025 A 
HETATM   15  C11 UNL     1      23.610   5.970  49.164  1.00  0.00     0.084 A 
HETATM   16  C18 UNL     1      22.938   5.488  50.394  1.00  0.00     0.229 A 
BRANCH  15  17
HETATM   17  S1  UNL     1      24.827   7.237  49.402  1.00  0.00     0.206 S 
HETATM   18  O2  UNL     1      24.464   8.461  48.602  1.00  0.00    -0.217 OA
HETATM   19  O3  UNL     1      24.798   7.621  50.839  1.00  0.00    -0.217 OA
BRANCH  17  20
HETATM   20  C12 UNL     1      26.411   6.721  48.938  1.00  0.00     0.064 A 
HETATM   21  C13 UNL     1      26.662   5.344  48.972  1.00  0.00     0.024 A 
HETATM   22  C14 UNL     1      27.860   4.742  48.636  1.00  0.00     0.002 A 
HETATM   23  C15 UNL     1      28.878   5.561  48.242  1.00  0.00     0.000 A 
HETATM   24  C16 UNL     1      28.690   6.919  48.189  1.00  0.00     0.002 A 
HETATM   25  C17 UNL     1      27.486   7.492  48.529  1.00  0.00     0.024 A 
ENDBRANCH  17  20
ENDBRANCH  15  17
BRANCH  16  26
HETATM   26  N4  UNL     1      23.972   5.088  51.304  1.00  0.00    -0.406 N 
HETATM   27  H16 UNL     1      24.228   5.779  52.019  1.00  0.00     0.152 HD
HETATM   28  H17 UNL     1      23.867   4.114  51.608  1.00  0.00     0.152 HD
ENDBRANCH  16  26
ENDBRANCH   4  11
BRANCH   1  29
HETATM   29  C3  UNL     1      24.476   0.750  52.734  1.00  0.00     0.136 C 
HETATM   30  N2  UNL     1      25.371   1.357  53.417  1.00  0.00    -0.206 NA
HETATM   31  C2  UNL     1      26.714   0.904  53.553  1.00  0.00     0.341 C 
HETATM   32  N1  UNL     1      27.293   0.631  54.804  1.00  0.00    -0.346 N 
HETATM   33  O1  UNL     1      27.177   0.827  52.391  1.00  0.00    -0.245 OA
HETATM   34  C1  UNL     1      28.686   0.171  54.796  1.00  0.00     0.151 C 
HETATM   35  H4  UNL     1      26.690   0.776  55.644  1.00  0.00     0.163 HD
ENDBRANCH   1  29
BRANCH  10  36
HETATM   36  O4  UNL     1      22.501  -0.391  54.257  1.00  0.00    -0.355 OA
HETATM   37  C23 UNL     1      21.667  -1.524  54.397  1.00  0.00     0.210 C 
ENDBRANCH  10  36
TORSDOF 6
ENDMDL
MODEL 2
REMARK VINA RESULT:      -9.4      2.908      6.024
REMARK  6 active torsions:
REMARK  status: ('A' for Active; 'I' for Inactive)
REMARK       I    between atoms: N1_2  and  C2_3 
REMARK       I    between atoms: C2_3  and  N2_5 
REMARK    1  A    between atoms: C3_6  and  C4_7 
REMARK    2  A    between atoms: C7_10  and  N3_11 
REMARK    3  A    between atoms: C11_15  and  S1_16 
REMARK    4  A    between atoms: S1_16  and  C12_19 
REMARK    5  A    between atoms: C18_25  and  N4_26 
REMARK    6  A    between atoms: C22_32  and  O4_33 
ROOT
HETATM    1  C4  UNL     1      20.213   0.090  52.512  1.00  0.00     0.016 A 
HETATM    2  C5  UNL     1      21.557   0.368  52.559  1.00  0.00     0.033 A 
HETATM    3  C6  UNL     1      22.314  -0.268  53.515  1.00  0.00     0.040 A 
HETATM    4  C7  UNL     1      23.636   0.102  53.462  1.00  0.00     0.145 A 
HETATM    5  N5  UNL     1      24.480  -0.457  54.375  1.00  0.00    -0.223 NA
HETATM    6  C19 UNL     1      24.000  -1.346  55.291  1.00  0.00     0.236 A 
HETATM    7  N6  UNL     1      22.700  -1.712  55.342  1.00  0.00    -0.241 NA
HETATM    8  C20 UNL     1      21.861  -1.169  54.450  1.00  0.00     0.074 A 
HETATM    9  C21 UNL     1      20.503  -1.432  54.383  1.00  0.00     0.070 A 
HETATM   10  C22 UNL     1      19.687  -0.815  53.432  1.00  0.00     0.082 A 
ENDROOT
BRANCH   4  11
HETATM   11  N3  UNL     1      24.385   0.945  52.592  1.00  0.00    -0.315 N 
HETATM   12  C8  UNL     1      25.694   0.390  52.483  1.00  0.00     0.095 A 
HETATM   13  C9  UNL     1      26.638   1.001  51.746  1.00  0.00     0.019 A 
HETATM   14  C10 UNL     1      26.358   2.241  51.036  1.00  0.00     0.025 A 
HETATM   15  C11 UNL     1      25.128   2.704  51.171  1.00  0.00     0.084 A 
HETATM   16  C18 UNL     1      23.972   2.156  51.919  1.00  0.00     0.229 A 
BRANCH  15  17
HETATM   17  S1  UNL     1      24.827   4.216  50.294  1.00  0.00     0.206 S 
HETATM   18  O2  UNL     1      24.291   5.263  51.235  1.00  0.00    -0.217 OA
HETATM   19  O3  UNL     1      26.136   4.706  49.785  1.00  0.00    -0.217 OA
BRANCH  17  20
HETATM   20  C12 UNL     1      23.704   4.009  48.996  1.00  0.00     0.064 A 
HETATM   21  C13 UNL     1      23.338   5.161  48.289  1.00  0.00     0.024 A 
HETATM   22  C14 UNL     1      22.459   5.198  47.223  1.00  0.00     0.002 A 
HETATM   23  C15 UNL     1      21.904   4.013  46.834  1.00  0.00     0.000 A 
HETATM   24  C16 UNL     1      22.225   2.853  47.491  1.00  0.00     0.002 A 
HETATM   25  C17 UNL     1      23.104   2.845  48.549  1.00  0.00     0.024 A 
ENDBRANCH  17  20
ENDBRANCH  15  17
BRANCH  16  26
HETATM   26  N4  UNL     1      23.498   3.201  52.779  1.00  0.00    -0.406 N 
HETATM   27  H16 UNL     1      23.415   2.957  53.773  1.00  0.00     0.152 HD
HETATM   28  H17 UNL     1      23.915   4.110  52.551  1.00  0.00     0.152 HD
ENDBRANCH  16  26
ENDBRANCH   4  11
BRANCH   1  29
HETATM   29  C3  UNL     1      19.291   0.689  51.554  1.00  0.00     0.136 C 
HETATM   30  N2  UNL     1      19.634   1.647  50.779  1.00  0.00    -0.206 NA
HETATM   31  C2  UNL     1      18.763   2.257  49.832  1.00  0.00     0.341 C 
HETATM   32  N1  UNL     1      19.055   2.301  48.458  1.00  0.00    -0.346 N 
HETATM   33  O1  UNL     1      17.785   2.691  50.485  1.00  0.00    -0.245 OA
HETATM   34  C1  UNL     1      18.069   2.962  47.598  1.00  0.00     0.151 C 
HETATM   35  H4  UNL     1      19.953   1.861  48.154  1.00  0.00     0.163 HD
ENDBRANCH   1  29
BRANCH  10  36
HETATM   36  O4  UNL     1      18.331  -1.103  53.394  1.00  0.00    -0.355 OA
HETATM   37  C23 UNL     1      17.882  -2.425  53.614  1.00  0.00     0.210 C 
ENDBRANCH  10  36
TORSDOF 6
ENDMDL
MODEL 3
REMARK VINA RESULT:      -9.3      1.494      2.032
REMARK  6 active torsions:
REMARK  status: ('A' for Active; 'I' for Inactive)
REMARK       I    between atoms: N1_2  and  C2_3 
REMARK       I    between atoms: C2_3  and  N2_5 
REMARK    1  A    between atoms: C3_6  and  C4_7 
REMARK    2  A    between atoms: C7_10  and  N3_11 
REMARK    3  A    between atoms: C11_15  and  S1_16 
REMARK    4  A    between atoms: S1_16  and  C12_19 
REMARK    5  A    between atoms: C18_25  and  N4_26 
REMARK    6  A    between atoms: C22_32  and  O4_33 
ROOT
HETATM    1  C4  UNL     1      23.873   0.706  53.043  1.00  0.00     0.016 A 
HETATM    2  C5  UNL     1      23.853   1.809  52.224  1.00  0.00     0.033 A 
HETATM    3  C6  UNL     1      22.640   2.408  51.976  1.00  0.00     0.040 A 
HETATM    4  C7  UNL     1      22.756   3.489  51.137  1.00  0.00     0.145 A 
HETATM    5  N5  UNL     1      21.611   4.154  50.811  1.00  0.00    -0.223 NA
HETATM    6  C19 UNL     1      20.415   3.738  51.315  1.00  0.00     0.236 A 
HETATM    7  N6  UNL     1      20.300   2.675  52.142  1.00  0.00    -0.241 NA
HETATM    8  C20 UNL     1      21.419   2.013  52.470  1.00  0.00     0.074 A 
HETATM    9  C21 UNL     1      21.463   0.900  53.292  1.00  0.00     0.070 A 
HETATM   10  C22 UNL     1      22.667   0.253  53.579  1.00  0.00     0.082 A 
ENDROOT
BRANCH   4  11
HETATM   11  N3  UNL     1      23.865   4.148  50.533  1.00  0.00    -0.315 N 
HETATM   12  C8  UNL     1      24.787   3.142  50.123  1.00  0.00     0.095 A 
HETATM   13  C9  UNL     1      25.955   3.476  49.548  1.00  0.00     0.019 A 
HETATM   14  C10 UNL     1      26.316   4.869  49.323  1.00  0.00     0.025 A 
HETATM   15  C11 UNL     1      25.420   5.756  49.719  1.00  0.00     0.084 A 
HETATM   16  C18 UNL     1      24.090   5.564  50.345  1.00  0.00     0.229 A 
BRANCH  15  17
HETATM   17  S1  UNL     1      25.896   7.439  49.430  1.00  0.00     0.206 S 
HETATM   18  O2  UNL     1      24.699   8.252  49.010  1.00  0.00    -0.217 OA
HETATM   19  O3  UNL     1      26.377   7.997  50.723  1.00  0.00    -0.217 OA
BRANCH  17  20
HETATM   20  C12 UNL     1      27.116   7.578  48.213  1.00  0.00     0.064 A 
HETATM   21  C13 UNL     1      26.730   8.152  46.996  1.00  0.00     0.024 A 
HETATM   22  C14 UNL     1      27.559   8.349  45.907  1.00  0.00     0.002 A 
HETATM   23  C15 UNL     1      28.858   7.947  46.034  1.00  0.00     0.000 A 
HETATM   24  C16 UNL     1      29.292   7.378  47.204  1.00  0.00     0.002 A 
HETATM   25  C17 UNL     1      28.444   7.194  48.273  1.00  0.00     0.024 A 
ENDBRANCH  17  20
ENDBRANCH  15  17
BRANCH  16  26
HETATM   26  N4  UNL     1      24.078   6.349  51.545  1.00  0.00    -0.406 N 
HETATM   27  H16 UNL     1      23.462   6.010  52.293  1.00  0.00     0.152 HD
HETATM   28  H17 UNL     1      25.017   6.661  51.815  1.00  0.00     0.152 HD
ENDBRANCH  16  26
ENDBRANCH   4  11
BRANCH   1  29
HETATM   29  C3  UNL     1      25.083  -0.027  53.392  1.00  0.00     0.136 C 
HETATM   30  N2  UNL     1      26.164   0.071  52.715  1.00  0.00    -0.206 NA
HETATM   31  C2  UNL     1      27.365  -0.629  53.024  1.00  0.00     0.341 C 
HETATM   32  N1  UNL     1      28.579   0.031  53.275  1.00  0.00    -0.346 N 
HETATM   33  O1  UNL     1      27.072  -1.848  53.009  1.00  0.00    -0.245 OA
HETATM   34  C1  UNL     1      29.737  -0.816  53.580  1.00  0.00     0.151 C 
HETATM   35  H4  UNL     1      28.566   1.074  53.226  1.00  0.00     0.163 HD
ENDBRANCH   1  29
BRANCH  10  36
HETATM   36  O4  UNL     1      22.675  -0.858  54.407  1.00  0.00    -0.355 OA
HETATM   37  C23 UNL     1      21.530  -1.683  54.496  1.00  0.00     0.210 C 
ENDBRANCH  10  36
TORSDOF 6
ENDMDL
MODEL 4
REMARK VINA RESULT:      -9.0      2.180      5.295
REMARK  6 active torsions:
REMARK  status: ('A' for Active; 'I' for Inactive)
REMARK       I    between atoms: N1_2  and  C2_3 
REMARK       I    between atoms: C2_3  and  N2_5 
REMARK    1  A    between atoms: C3_6  and  C4_7 
REMARK    2  A    between atoms: C7_10  and  N3_11 
REMARK    3  A    between atoms: C11_15  and  S1_16 
REMARK    4  A    between atoms: S1_16  and  C12_19 
REMARK    5  A    between atoms: C18_25  and  N4_26 
REMARK    6  A    between atoms: C22_32  and  O4_33 
ROOT
HETATM    1  C4  UNL     1      21.914   1.337  52.971  1.00  0.00     0.016 A 
HETATM    2  C5  UNL     1      23.024   1.879  52.370  1.00  0.00     0.033 A 
HETATM    3  C6  UNL     1      24.232   1.247  52.556  1.00  0.00     0.040 A 
HETATM    4  C7  UNL     1      25.260   1.893  51.913  1.00  0.00     0.145 A 
HETATM    5  N5  UNL     1      26.509   1.362  52.040  1.00  0.00    -0.223 NA
HETATM    6  C19 UNL     1      26.697   0.232  52.780  1.00  0.00     0.236 A 
HETATM    7  N6  UNL     1      25.685  -0.405  53.410  1.00  0.00    -0.241 NA
HETATM    8  C20 UNL     1      24.453   0.109  53.293  1.00  0.00     0.074 A 
HETATM    9  C21 UNL     1      23.320  -0.419  53.889  1.00  0.00     0.070 A 
HETATM   10  C22 UNL     1      22.068   0.180  53.734  1.00  0.00     0.082 A 
ENDROOT
BRANCH   4  11
HETATM   11  N3  UNL     1      25.323   3.027  51.054  1.00  0.00    -0.315 N 
HETATM   12  C8  UNL     1      26.470   2.871  50.223  1.00  0.00     0.095 A 
HETATM   13  C9  UNL     1      26.803   3.817  49.328  1.00  0.00     0.019 A 
HETATM   14  C10 UNL     1      26.006   5.026  49.175  1.00  0.00     0.025 A 
HETATM   15  C11 UNL     1      24.953   5.114  49.968  1.00  0.00     0.084 A 
HETATM   16  C18 UNL     1      24.436   4.167  50.985  1.00  0.00     0.229 A 
BRANCH  15  17
HETATM   17  S1  UNL     1      24.011   6.600  49.754  1.00  0.00     0.206 S 
HETATM   18  O2  UNL     1      22.587   6.379  50.194  1.00  0.00    -0.217 OA
HETATM   19  O3  UNL     1      24.596   7.634  50.649  1.00  0.00    -0.217 OA
BRANCH  17  20
HETATM   20  C12 UNL     1      24.005   7.143  48.113  1.00  0.00     0.064 A 
HETATM   21  C13 UNL     1      23.010   6.622  47.278  1.00  0.00     0.024 A 
HETATM   22  C14 UNL     1      22.841   6.935  45.943  1.00  0.00     0.002 A 
HETATM   23  C15 UNL     1      23.722   7.825  45.398  1.00  0.00     0.000 A 
HETATM   24  C16 UNL     1      24.719   8.368  46.168  1.00  0.00     0.002 A 
HETATM   25  C17 UNL     1      24.862   8.039  47.496  1.00  0.00     0.024 A 
ENDBRANCH  17  20
ENDBRANCH  15  17
BRANCH  16  26
HETATM   26  N4  UNL     1      24.294   4.905  52.207  1.00  0.00    -0.406 N 
HETATM   27  H16 UNL     1      23.474   4.668  52.778  1.00  0.00     0.152 HD
HETATM   28  H17 UNL     1      25.188   5.025  52.694  1.00  0.00     0.152 HD
ENDBRANCH  16  26
ENDBRANCH   4  11
BRANCH   1  29
HETATM   29  C3  UNL     1      20.573   1.898  52.861  1.00  0.00     0.136 C 
HETATM   30  N2  UNL     1      19.937   1.944  51.752  1.00  0.00    -0.206 NA
HETATM   31  C2  UNL     1      18.628   2.485  51.606  1.00  0.00     0.341 C 
HETATM   32  N1  UNL     1      17.554   1.733  51.103  1.00  0.00    -0.346 N 
HETATM   33  O1  UNL     1      18.695   3.673  52.000  1.00  0.00    -0.245 OA
HETATM   34  C1  UNL     1      16.260   2.418  51.006  1.00  0.00     0.151 C 
HETATM   35  H4  UNL     1      17.757   0.743  50.836  1.00  0.00     0.163 HD
ENDBRANCH   1  29
BRANCH  10  36
HETATM   36  O4  UNL     1      20.955  -0.377  54.344  1.00  0.00    -0.355 OA
HETATM   37  C23 UNL     1      20.723  -1.769  54.261  1.00  0.00     0.210 C 
ENDBRANCH  10  36
TORSDOF 6
ENDMDL
MODEL 5
REMARK VINA RESULT:      -8.8      2.552      6.734
REMARK  6 active torsions:
REMARK  status: ('A' for Active; 'I' for Inactive)
REMARK       I    between atoms: N1_2  and  C2_3 
REMARK       I    between atoms: C2_3  and  N2_5 
REMARK    1  A    between atoms: C3_6  and  C4_7 
REMARK    2  A    between atoms: C7_10  and  N3_11 
REMARK    3  A    between atoms: C11_15  and  S1_16 
REMARK    4  A    between atoms: S1_16  and  C12_19 
REMARK    5  A    between atoms: C18_25  and  N4_26 
REMARK    6  A    between atoms: C22_32  and  O4_33 
ROOT
HETATM    1  C4  UNL     1      26.059   4.183  49.501  1.00  0.00     0.016 A 
HETATM    2  C5  UNL     1      24.696   4.180  49.335  1.00  0.00     0.033 A 
HETATM    3  C6  UNL     1      24.130   5.220  48.633  1.00  0.00     0.040 A 
HETATM    4  C7  UNL     1      22.763   5.104  48.546  1.00  0.00     0.145 A 
HETATM    5  N5  UNL     1      22.093   6.088  47.883  1.00  0.00    -0.223 NA
HETATM    6  C19 UNL     1      22.780   7.132  47.337  1.00  0.00     0.236 A 
HETATM    7  N6  UNL     1      24.125   7.245  47.420  1.00  0.00    -0.241 NA
HETATM    8  C20 UNL     1      24.794   6.283  48.071  1.00  0.00     0.074 A 
HETATM    9  C21 UNL     1      26.167   6.264  48.252  1.00  0.00     0.070 A 
HETATM   10  C22 UNL     1      26.795   5.234  48.955  1.00  0.00     0.082 A 
ENDROOT
BRANCH   4  11
HETATM   11  N3  UNL     1      21.833   4.112  48.969  1.00  0.00    -0.315 N 
HETATM   12  C8  UNL     1      21.260   3.537  47.797  1.00  0.00     0.095 A 
HETATM   13  C9  UNL     1      20.314   2.587  47.892  1.00  0.00     0.019 A 
HETATM   14  C10 UNL     1      19.845   2.113  49.186  1.00  0.00     0.025 A 
HETATM   15  C11 UNL     1      20.415   2.679  50.235  1.00  0.00     0.084 A 
HETATM   16  C18 UNL     1      21.474   3.713  50.312  1.00  0.00     0.229 A 
BRANCH  15  17
HETATM   17  S1  UNL     1      19.817   2.077  51.792  1.00  0.00     0.206 S 
HETATM   18  O2  UNL     1      19.499   3.231  52.707  1.00  0.00    -0.217 OA
HETATM   19  O3  UNL     1      18.543   1.354  51.533  1.00  0.00    -0.217 OA
BRANCH  17  20
HETATM   20  C12 UNL     1      20.958   1.044  52.580  1.00  0.00     0.064 A 
HETATM   21  C13 UNL     1      20.487   0.292  53.662  1.00  0.00     0.024 A 
HETATM   22  C14 UNL     1      21.243  -0.588  54.413  1.00  0.00     0.002 A 
HETATM   23  C15 UNL     1      22.557  -0.729  54.068  1.00  0.00     0.000 A 
HETATM   24  C16 UNL     1      23.074  -0.017  53.016  1.00  0.00     0.002 A 
HETATM   25  C17 UNL     1      22.297   0.852  52.285  1.00  0.00     0.024 A 
ENDBRANCH  17  20
ENDBRANCH  15  17
BRANCH  16  26
HETATM   26  N4  UNL     1      20.970   4.765  51.146  1.00  0.00    -0.406 N 
HETATM   27  H16 UNL     1      20.321   4.474  51.887  1.00  0.00     0.152 HD
HETATM   28  H17 UNL     1      21.697   5.444  51.397  1.00  0.00     0.152 HD
ENDBRANCH  16  26
ENDBRANCH   4  11
BRANCH   1  29
HETATM   29  C3  UNL     1      26.793   3.148  50.221  1.00  0.00     0.136 C 
HETATM   30  N2  UNL     1      26.274   2.480  51.180  1.00  0.00    -0.206 NA
HETATM   31  C2  UNL     1      26.959   1.464  51.905  1.00  0.00     0.341 C 
HETATM   32  N1  UNL     1      26.482   0.145  51.987  1.00  0.00    -0.346 N 
HETATM   33  O1  UNL     1      27.978   2.008  52.391  1.00  0.00    -0.245 OA
HETATM   34  C1  UNL     1      27.288  -0.798  52.769  1.00  0.00     0.151 C 
HETATM   35  H4  UNL     1      25.590  -0.064  51.485  1.00  0.00     0.163 HD
ENDBRANCH   1  29
BRANCH  10  36
HETATM   36  O4  UNL     1      28.172   5.247  49.117  1.00  0.00    -0.355 OA
HETATM   37  C23 UNL     1      28.985   5.961  48.207  1.00  0.00     0.210 C 
ENDBRANCH  10  36
TORSDOF 6
ENDMDL
MODEL 6
REMARK VINA RESULT:      -8.8      3.404      4.950
REMARK  6 active torsions:
REMARK  status: ('A' for Active; 'I' for Inactive)
REMARK       I    between atoms: N1_2  and  C2_3 
REMARK       I    between atoms: C2_3  and  N2_5 
REMARK    1  A    between atoms: C3_6  and  C4_7 
REMARK    2  A    between atoms: C7_10  and  N3_11 
REMARK    3  A    between atoms: C11_15  and  S1_16 
REMARK    4  A    between atoms: S1_16  and  C12_19 
REMARK    5  A    between atoms: C18_25  and  N4_26 
REMARK    6  A    between atoms: C22_32  and  O4_33 
ROOT
HETATM    1  C4  UNL     1      24.588   3.698  50.139  1.00  0.00     0.016 A 
HETATM    2  C5  UNL     1      25.007   4.921  49.675  1.00  0.00     0.033 A 
HETATM    3  C6  UNL     1      24.257   5.532  48.696  1.00  0.00     0.040 A 
HETATM    4  C7  UNL     1      24.787   6.740  48.314  1.00  0.00     0.145 A 
HETATM    5  N5  UNL     1      24.133   7.430  47.337  1.00  0.00    -0.223 NA
HETATM    6  C19 UNL     1      22.998   6.914  46.783  1.00  0.00     0.236 A 
HETATM    7  N6  UNL     1      22.476   5.726  47.160  1.00  0.00    -0.241 NA
HETATM    8  C20 UNL     1      23.111   5.039  48.119  1.00  0.00     0.074 A 
HETATM    9  C21 UNL     1      22.709   3.806  48.602  1.00  0.00     0.070 A 
HETATM   10  C22 UNL     1      23.431   3.141  49.596  1.00  0.00     0.082 A 
ENDROOT
BRANCH   4  11
HETATM   11  N3  UNL     1      25.899   7.510  48.761  1.00  0.00    -0.315 N 
HETATM   12  C8  UNL     1      25.467   8.267  49.890  1.00  0.00     0.095 A 
HETATM   13  C9  UNL     1      26.305   9.120  50.504  1.00  0.00     0.019 A 
HETATM   14  C10 UNL     1      27.674   9.298  50.043  1.00  0.00     0.025 A 
HETATM   15  C11 UNL     1      28.019   8.567  48.998  1.00  0.00     0.084 A 
HETATM   16  C18 UNL     1      27.238   7.576  48.220  1.00  0.00     0.229 A 
BRANCH  15  17
HETATM   17  S1  UNL     1      29.692   8.813  48.466  1.00  0.00     0.206 S 
HETATM   18  O2  UNL     1      29.715   9.477  47.114  1.00  0.00    -0.217 OA
HETATM   19  O3  UNL     1      30.335   9.747  49.429  1.00  0.00    -0.217 OA
BRANCH  17  20
HETATM   20  C12 UNL     1      30.575   7.329  48.370  1.00  0.00     0.064 A 
HETATM   21  C13 UNL     1      31.588   7.135  49.317  1.00  0.00     0.024 A 
HETATM   22  C14 UNL     1      32.398   6.019  49.403  1.00  0.00     0.002 A 
HETATM   23  C15 UNL     1      32.190   5.028  48.486  1.00  0.00     0.000 A 
HETATM   24  C16 UNL     1      31.211   5.164  47.535  1.00  0.00     0.002 A 
HETATM   25  C17 UNL     1      30.419   6.287  47.473  1.00  0.00     0.024 A 
ENDBRANCH  17  20
ENDBRANCH  15  17
BRANCH  16  26
HETATM   26  N4  UNL     1      27.322   7.967  46.843  1.00  0.00    -0.406 N 
HETATM   27  H16 UNL     1      26.504   7.741  46.265  1.00  0.00     0.152 HD
HETATM   28  H17 UNL     1      27.736   8.899  46.728  1.00  0.00     0.152 HD
ENDBRANCH  16  26
ENDBRANCH   4  11
BRANCH   1  29
HETATM   29  C3  UNL     1      25.282   2.938  51.171  1.00  0.00     0.136 C 
HETATM   30  N2  UNL     1      26.558   2.877  51.237  1.00  0.00    -0.206 NA
HETATM   31  C2  UNL     1      27.271   2.145  52.229  1.00  0.00     0.341 C 
HETATM   32  N1  UNL     1      28.202   2.751  53.089  1.00  0.00    -0.346 N 
HETATM   33  O1  UNL     1      26.884   0.957  52.132  1.00  0.00    -0.245 OA
HETATM   34  C1  UNL     1      28.863   1.877  54.063  1.00  0.00     0.151 C 
HETATM   35  H4  UNL     1      28.353   3.778  52.969  1.00  0.00     0.163 HD
ENDBRANCH   1  29
BRANCH  10  36
HETATM   36  O4  UNL     1      22.998   1.907  50.057  1.00  0.00    -0.355 OA
HETATM   37  C23 UNL     1      21.855   1.300  49.488  1.00  0.00     0.210 C 
ENDBRANCH  10  36
TORSDOF 6
ENDMDL
MODEL 7
REMARK VINA RESULT:      -8.8      2.728      7.024
REMARK  6 active torsions:
REMARK  status: ('A' for Active; 'I' for Inactive)
REMARK       I    between atoms: N1_2  and  C2_3 
REMARK       I    between atoms: C2_3  and  N2_5 
REMARK    1  A    between atoms: C3_6  and  C4_7 
REMARK    2  A    between atoms: C7_10  and  N3_11 
REMARK    3  A    between atoms: C11_15  and  S1_16 
REMARK    4  A    between atoms: S1_16  and  C12_19 
REMARK    5  A    between atoms: C18_25  and  N4_26 
REMARK    6  A    between atoms: C22_32  and  O4_33 
ROOT
HETATM    1  C4  UNL     1      23.751   5.395  48.587  1.00  0.00     0.016 A 
HETATM    2  C5  UNL     1      23.659   4.272  49.372  1.00  0.00     0.033 A 
HETATM    3  C6  UNL     1      22.704   3.336  49.049  1.00  0.00     0.040 A 
HETATM    4  C7  UNL     1      22.710   2.268  49.915  1.00  0.00     0.145 A 
HETATM    5  N5  UNL     1      21.793   1.283  49.698  1.00  0.00    -0.223 NA
HETATM    6  C19 UNL     1      20.920   1.381  48.655  1.00  0.00     0.236 A 
HETATM    7  N6  UNL     1      20.916   2.430  47.802  1.00  0.00    -0.241 NA
HETATM    8  C20 UNL     1      21.813   3.405  48.006  1.00  0.00     0.074 A 
HETATM    9  C21 UNL     1      21.924   4.546  47.230  1.00  0.00     0.070 A 
HETATM   10  C22 UNL     1      22.875   5.530  47.510  1.00  0.00     0.082 A 
ENDROOT
BRANCH   4  11
HETATM   11  N3  UNL     1      23.531   1.905  51.020  1.00  0.00    -0.315 N 
HETATM   12  C8  UNL     1      22.685   1.316  52.005  1.00  0.00     0.095 A 
HETATM   13  C9  UNL     1      23.186   0.906  53.183  1.00  0.00     0.019 A 
HETATM   14  C10 UNL     1      24.602   1.046  53.491  1.00  0.00     0.025 A 
HETATM   15  C11 UNL     1      25.337   1.594  52.539  1.00  0.00     0.084 A 
HETATM   16  C18 UNL     1      24.956   2.079  51.191  1.00  0.00     0.229 A 
BRANCH  15  17
HETATM   17  S1  UNL     1      27.054   1.748  52.953  1.00  0.00     0.206 S 
HETATM   18  O2  UNL     1      27.763   2.586  51.921  1.00  0.00    -0.217 OA
HETATM   19  O3  UNL     1      27.139   2.475  54.248  1.00  0.00    -0.217 OA
BRANCH  17  20
HETATM   20  C12 UNL     1      27.845   0.214  53.058  1.00  0.00     0.064 A 
HETATM   21  C13 UNL     1      29.148   0.210  53.569  1.00  0.00     0.024 A 
HETATM   22  C14 UNL     1      29.939  -0.912  53.732  1.00  0.00     0.002 A 
HETATM   23  C15 UNL     1      29.400  -2.111  53.361  1.00  0.00     0.000 A 
HETATM   24  C16 UNL     1      28.127  -2.167  52.854  1.00  0.00     0.002 A 
HETATM   25  C17 UNL     1      27.362  -1.034  52.704  1.00  0.00     0.024 A 
ENDBRANCH  17  20
ENDBRANCH  15  17
BRANCH  16  26
HETATM   26  N4  UNL     1      25.423   3.430  51.088  1.00  0.00    -0.406 N 
HETATM   27  H16 UNL     1      26.438   3.544  50.982  1.00  0.00     0.152 HD
HETATM   28  H17 UNL     1      24.821   4.005  50.488  1.00  0.00     0.152 HD
ENDBRANCH  16  26
ENDBRANCH   4  11
BRANCH   1  29
HETATM   29  C3  UNL     1      24.713   6.468  48.811  1.00  0.00     0.136 C 
HETATM   30  N2  UNL     1      25.922   6.242  49.161  1.00  0.00    -0.206 NA
HETATM   31  C2  UNL     1      26.890   7.262  49.389  1.00  0.00     0.341 C 
HETATM   32  N1  UNL     1      28.103   7.322  48.683  1.00  0.00    -0.346 N 
HETATM   33  O1  UNL     1      26.416   7.999  50.285  1.00  0.00    -0.245 OA
HETATM   34  C1  UNL     1      29.006   8.427  49.021  1.00  0.00     0.151 C 
HETATM   35  H4  UNL     1      28.270   6.576  47.972  1.00  0.00     0.163 HD
ENDBRANCH   1  29
BRANCH  10  36
HETATM   36  O4  UNL     1      22.959   6.659  46.711  1.00  0.00    -0.355 OA
HETATM   37  C23 UNL     1      22.127   6.786  45.576  1.00  0.00     0.210 C 
ENDBRANCH  10  36
TORSDOF 6
ENDMDL
MODEL 8
REMARK VINA RESULT:      -8.7      1.891      5.740
REMARK  6 active torsions:
REMARK  status: ('A' for Active; 'I' for Inactive)
REMARK       I    between atoms: N1_2  and  C2_3 
REMARK       I    between atoms: C2_3  and  N2_5 
REMARK    1  A    between atoms: C3_6  and  C4_7 
REMARK    2  A    between atoms: C7_10  and  N3_11 
REMARK    3  A    between atoms: C11_15  and  S1_16 
REMARK    4  A    between atoms: S1_16  and  C12_19 
REMARK    5  A    between atoms: C18_25  and  N4_26 
REMARK    6  A    between atoms: C22_32  and  O4_33 
ROOT
HETATM    1  C4  UNL     1      22.334   1.088  51.959  1.00  0.00     0.016 A 
HETATM    2  C5  UNL     1      23.369   1.912  51.589  1.00  0.00     0.033 A 
HETATM    3  C6  UNL     1      24.631   1.607  52.044  1.00  0.00     0.040 A 
HETATM    4  C7  UNL     1      25.571   2.512  51.612  1.00  0.00     0.145 A 
HETATM    5  N5  UNL     1      26.859   2.315  52.014  1.00  0.00    -0.223 NA
HETATM    6  C19 UNL     1      27.169   1.253  52.811  1.00  0.00     0.236 A 
HETATM    7  N6  UNL     1      26.245   0.362  53.234  1.00  0.00    -0.241 NA
HETATM    8  C20 UNL     1      24.975   0.545  52.845  1.00  0.00     0.074 A 
HETATM    9  C21 UNL     1      23.916  -0.271  53.205  1.00  0.00     0.070 A 
HETATM   10  C22 UNL     1      22.614  -0.009  52.773  1.00  0.00     0.082 A 
ENDROOT
BRANCH   4  11
HETATM   11  N3  UNL     1      25.520   3.645  50.751  1.00  0.00    -0.315 N 
HETATM   12  C8  UNL     1      26.661   3.584  49.898  1.00  0.00     0.095 A 
HETATM   13  C9  UNL     1      26.895   4.553  48.996  1.00  0.00     0.019 A 
HETATM   14  C10 UNL     1      25.996   5.690  48.858  1.00  0.00     0.025 A 
HETATM   15  C11 UNL     1      24.955   5.690  49.672  1.00  0.00     0.084 A 
HETATM   16  C18 UNL     1      24.539   4.706  50.699  1.00  0.00     0.229 A 
BRANCH  15  17
HETATM   17  S1  UNL     1      23.886   7.091  49.475  1.00  0.00     0.206 S 
HETATM   18  O2  UNL     1      23.938   7.959  50.705  1.00  0.00    -0.217 OA
HETATM   19  O3  UNL     1      24.410   7.898  48.340  1.00  0.00    -0.217 OA
BRANCH  17  20
HETATM   20  C12 UNL     1      22.244   6.629  49.192  1.00  0.00     0.064 A 
HETATM   21  C13 UNL     1      21.253   7.467  49.717  1.00  0.00     0.024 A 
HETATM   22  C14 UNL     1      19.891   7.268  49.593  1.00  0.00     0.002 A 
HETATM   23  C15 UNL     1      19.484   6.162  48.904  1.00  0.00     0.000 A 
HETATM   24  C16 UNL     1      20.411   5.305  48.367  1.00  0.00     0.002 A 
HETATM   25  C17 UNL     1      21.762   5.528  48.505  1.00  0.00     0.024 A 
ENDBRANCH  17  20
ENDBRANCH  15  17
BRANCH  16  26
HETATM   26  N4  UNL     1      24.359   5.431  51.923  1.00  0.00    -0.406 N 
HETATM   27  H16 UNL     1      24.645   6.417  51.903  1.00  0.00     0.152 HD
HETATM   28  H17 UNL     1      23.467   5.210  52.378  1.00  0.00     0.152 HD
ENDBRANCH  16  26
ENDBRANCH   4  11
BRANCH   1  29
HETATM   29  C3  UNL     1      20.948   1.290  51.553  1.00  0.00     0.136 C 
HETATM   30  N2  UNL     1      20.193   2.165  52.099  1.00  0.00    -0.206 NA
HETATM   31  C2  UNL     1      18.836   2.390  51.730  1.00  0.00     0.341 C 
HETATM   32  N1  UNL     1      18.373   3.641  51.292  1.00  0.00    -0.346 N 
HETATM   33  O1  UNL     1      18.246   1.296  51.887  1.00  0.00    -0.245 OA
HETATM   34  C1  UNL     1      16.950   3.730  50.945  1.00  0.00     0.151 C 
HETATM   35  H4  UNL     1      19.074   4.414  51.247  1.00  0.00     0.163 HD
ENDBRANCH   1  29
BRANCH  10  36
HETATM   36  O4  UNL     1      21.578  -0.848  53.152  1.00  0.00    -0.355 OA
HETATM   37  C23 UNL     1      21.596  -1.466  54.423  1.00  0.00     0.210 C 
ENDBRANCH  10  36
TORSDOF 6
ENDMDL
MODEL 9
REMARK VINA RESULT:      -8.7      3.227      7.191
REMARK  6 active torsions:
REMARK  status: ('A' for Active; 'I' for Inactive)
REMARK       I    between atoms: N1_2  and  C2_3 
REMARK       I    between atoms: C2_3  and  N2_5 
REMARK    1  A    between atoms: C3_6  and  C4_7 
REMARK    2  A    between atoms: C7_10  and  N3_11 
REMARK    3  A    between atoms: C11_15  and  S1_16 
REMARK    4  A    between atoms: S1_16  and  C12_19 
REMARK    5  A    between atoms: C18_25  and  N4_26 
REMARK    6  A    between atoms: C22_32  and  O4_33 
ROOT
HETATM    1  C4  UNL     1      25.280   1.673  52.070  1.00  0.00     0.016 A 
HETATM    2  C5  UNL     1      23.944   1.478  51.816  1.00  0.00     0.033 A 
HETATM    3  C6  UNL     1      23.259   0.591  52.613  1.00  0.00     0.040 A 
HETATM    4  C7  UNL     1      21.938   0.481  52.251  1.00  0.00     0.145 A 
HETATM    5  N5  UNL     1      21.163  -0.384  52.965  1.00  0.00    -0.223 NA
HETATM    6  C19 UNL     1      21.707  -1.096  53.993  1.00  0.00     0.236 A 
HETATM    7  N6  UNL     1      23.006  -0.986  54.351  1.00  0.00    -0.241 NA
HETATM    8  C20 UNL     1      23.777  -0.139  53.656  1.00  0.00     0.074 A 
HETATM    9  C21 UNL     1      25.125   0.073  53.892  1.00  0.00     0.070 A 
HETATM   10  C22 UNL     1      25.870   0.963  53.115  1.00  0.00     0.082 A 
ENDROOT
BRANCH   4  11
HETATM   11  N3  UNL     1      21.129   1.135  51.278  1.00  0.00    -0.315 N 
HETATM   12  C8  UNL     1      21.567   0.696  49.994  1.00  0.00     0.095 A 
HETATM   13  C9  UNL     1      21.001   1.180  48.875  1.00  0.00     0.019 A 
HETATM   14  C10 UNL     1      19.927   2.161  48.934  1.00  0.00     0.025 A 
HETATM   15  C11 UNL     1      19.561   2.526  50.150  1.00  0.00     0.084 A 
HETATM   16  C18 UNL     1      20.057   2.085  51.475  1.00  0.00     0.229 A 
BRANCH  15  17
HETATM   17  S1  UNL     1      18.252   3.722  50.180  1.00  0.00     0.206 S 
HETATM   18  O2  UNL     1      18.764   5.037  50.707  1.00  0.00    -0.217 OA
HETATM   19  O3  UNL     1      17.818   3.946  48.775  1.00  0.00    -0.217 OA
BRANCH  17  20
HETATM   20  C12 UNL     1      16.920   3.214  51.159  1.00  0.00     0.064 A 
HETATM   21  C13 UNL     1      16.314   4.191  51.956  1.00  0.00     0.024 A 
HETATM   22  C14 UNL     1      15.240   3.980  52.800  1.00  0.00     0.002 A 
HETATM   23  C15 UNL     1      14.735   2.713  52.858  1.00  0.00     0.000 A 
HETATM   24  C16 UNL     1      15.289   1.715  52.099  1.00  0.00     0.002 A 
HETATM   25  C17 UNL     1      16.358   1.954  51.266  1.00  0.00     0.024 A 
ENDBRANCH  17  20
ENDBRANCH  15  17
BRANCH  16  26
HETATM   26  N4  UNL     1      20.416   3.268  52.201  1.00  0.00    -0.406 N 
HETATM   27  H16 UNL     1      20.186   3.264  53.201  1.00  0.00     0.152 HD
HETATM   28  H17 UNL     1      21.340   3.624  51.932  1.00  0.00     0.152 HD
ENDBRANCH  16  26
ENDBRANCH   4  11
BRANCH   1  29
HETATM   29  C3  UNL     1      26.129   2.581  51.308  1.00  0.00     0.136 C 
HETATM   30  N2  UNL     1      25.665   3.356  50.403  1.00  0.00    -0.206 NA
HETATM   31  C2  UNL     1      26.463   4.255  49.638  1.00  0.00     0.341 C 
HETATM   32  N1  UNL     1      26.224   5.639  49.613  1.00  0.00    -0.346 N 
HETATM   33  O1  UNL     1      27.328   3.553  49.065  1.00  0.00    -0.245 OA
HETATM   34  C1  UNL     1      27.123   6.446  48.782  1.00  0.00     0.151 C 
HETATM   35  H4  UNL     1      25.424   5.989  50.187  1.00  0.00     0.163 HD
ENDBRANCH   1  29
BRANCH  10  36
HETATM   36  O4  UNL     1      27.218   1.151  53.380  1.00  0.00    -0.355 OA
HETATM   37  C23 UNL     1      27.879   0.318  54.310  1.00  0.00     0.210 C 
ENDBRANCH  10  36
TORSDOF 6
ENDMDL
