MODEL 1
REMARK VINA RESULT:      -8.7      0.000      0.000
REMARK  4 active torsions:
REMARK  status: ('A' for Active; 'I' for Inactive)
REMARK    1  A    between atoms: C7_7  and  N1_8 
REMARK    2  A    between atoms: N1_8  and  C8_9 
REMARK    3  A    between atoms: C13_16  and  N4_17 
REMARK    4  A    between atoms: C14_18  and  C15_19 
REMARK       I    between atoms: C15_19  and  N5_20 
ROOT
HETATM    1  C1  UNL     1      26.750   5.069  48.958  1.00  0.00     0.018 C 
HETATM    2  C2  UNL     1      25.841   4.691  49.667  1.00  0.00    -0.078 C 
HETATM    3  C3  UNL     1      24.744   4.259  50.518  1.00  0.00     0.019 A 
HETATM    4  C4  UNL     1      24.108   5.156  51.348  1.00  0.00     0.021 A 
HETATM    5  C5  UNL     1      23.056   4.722  52.159  1.00  0.00     0.004 A 
HETATM    6  C6  UNL     1      22.712   3.375  52.069  1.00  0.00     0.029 A 
HETATM    7  C7  UNL     1      23.374   2.507  51.224  1.00  0.00     0.035 A 
HETATM    8  C18 UNL     1      24.406   2.929  50.427  1.00  0.00     0.050 A 
ENDROOT
BRANCH   7   9
HETATM    9  N1  UNL     1      22.978   1.147  51.177  1.00  0.00    -0.340 N 
HETATM   10  H5  UNL     1      23.160   0.553  50.342  1.00  0.00     0.167 HD
BRANCH   9  11
HETATM   11  C8  UNL     1      22.312   0.503  52.253  1.00  0.00     0.142 A 
HETATM   12  N2  UNL     1      20.972   0.414  52.319  1.00  0.00    -0.224 NA
HETATM   13  C9  UNL     1      20.406  -0.200  53.355  1.00  0.00     0.236 A 
HETATM   14  N3  UNL     1      21.104  -0.753  54.365  1.00  0.00    -0.241 NA
HETATM   15  C10 UNL     1      22.443  -0.707  54.374  1.00  0.00     0.072 A 
HETATM   16  C11 UNL     1      23.209  -1.255  55.384  1.00  0.00     0.035 A 
HETATM   17  C17 UNL     1      23.035  -0.059  53.284  1.00  0.00     0.041 A 
HETATM   18  C12 UNL     1      24.580  -1.144  55.279  1.00  0.00     0.034 A 
HETATM   19  C13 UNL     1      25.214  -0.515  54.226  1.00  0.00     0.057 A 
HETATM   20  C16 UNL     1      24.413   0.020  53.238  1.00  0.00     0.049 A 
BRANCH  19  21
HETATM   21  N4  UNL     1      26.612  -0.503  54.296  1.00  0.00    -0.256 NA
HETATM   22  C14 UNL     1      27.427  -0.363  53.321  1.00  0.00     0.191 C 
BRANCH  22  23
HETATM   23  C15 UNL     1      28.728  -0.427  53.976  1.00  0.00     0.256 C 
HETATM   24  N5  UNL     1      28.465   0.482  55.044  1.00  0.00    -0.365 N 
HETATM   25  H10 UNL     1      28.833   1.420  55.332  1.00  0.00     0.159 HD
HETATM   26  H11 UNL     1      27.839   0.532  55.880  1.00  0.00     0.159 HD
HETATM   27  O1  UNL     1      29.885  -0.930  53.962  1.00  0.00    -0.267 OA
ENDBRANCH  22  23
ENDBRANCH  19  21
ENDBRANCH   9  11
ENDBRANCH   7   9
TORSDOF 4
ENDMDL
MODEL 2
REMARK VINA RESULT:      -8.2      2.807      4.988
REMARK  4 active torsions:
REMARK  status: ('A' for Active; 'I' for Inactive)
REMARK    1  A    between atoms: C7_7  and  N1_8 
REMARK    2  A    between atoms: N1_8  and  C8_9 
REMARK    3  A    between atoms: C13_16  and  N4_17 
REMARK    4  A    between atoms: C14_18  and  C15_19 
REMARK       I    between atoms: C15_19  and  N5_20 
ROOT
HETATM    1  C1  UNL     1      26.439   6.013  48.582  1.00  0.00     0.018 C 
HETATM    2  C2  UNL     1      25.804   5.424  49.431  1.00  0.00    -0.078 C 
HETATM    3  C3  UNL     1      25.029   4.734  50.450  1.00  0.00     0.019 A 
HETATM    4  C4  UNL     1      24.165   5.434  51.264  1.00  0.00     0.021 A 
HETATM    5  C5  UNL     1      23.429   4.754  52.237  1.00  0.00     0.004 A 
HETATM    6  C6  UNL     1      23.623   3.377  52.319  1.00  0.00     0.029 A 
HETATM    7  C7  UNL     1      24.498   2.712  51.484  1.00  0.00     0.035 A 
HETATM    8  C18 UNL     1      25.222   3.375  50.528  1.00  0.00     0.050 A 
ENDROOT
BRANCH   7   9
HETATM    9  N1  UNL     1      24.652   1.308  51.617  1.00  0.00    -0.340 N 
HETATM   10  H5  UNL     1      24.454   0.660  50.826  1.00  0.00     0.167 HD
BRANCH   9  11
HETATM   11  C8  UNL     1      25.083   0.693  52.821  1.00  0.00     0.142 A 
HETATM   12  N2  UNL     1      26.347   0.797  53.269  1.00  0.00    -0.224 NA
HETATM   13  C9  UNL     1      26.690   0.196  54.406  1.00  0.00     0.236 A 
HETATM   14  N3  UNL     1      25.836  -0.526  55.154  1.00  0.00    -0.241 NA
HETATM   15  C10 UNL     1      24.560  -0.678  54.777  1.00  0.00     0.072 A 
HETATM   16  C11 UNL     1      23.640  -1.408  55.505  1.00  0.00     0.035 A 
HETATM   17  C17 UNL     1      24.201  -0.045  53.582  1.00  0.00     0.041 A 
HETATM   18  C12 UNL     1      22.355  -1.490  55.012  1.00  0.00     0.034 A 
HETATM   19  C13 UNL     1      21.949  -0.886  53.839  1.00  0.00     0.057 A 
HETATM   20  C16 UNL     1      22.898  -0.166  53.141  1.00  0.00     0.049 A 
BRANCH  19  21
HETATM   21  N4  UNL     1      20.605  -1.083  53.502  1.00  0.00    -0.256 NA
HETATM   22  C14 UNL     1      19.684  -0.197  53.472  1.00  0.00     0.191 C 
BRANCH  22  23
HETATM   23  C15 UNL     1      18.513  -0.962  53.062  1.00  0.00     0.256 C 
HETATM   24  N5  UNL     1      18.647  -2.049  53.975  1.00  0.00    -0.365 N 
HETATM   25  H10 UNL     1      18.831  -3.077  53.888  1.00  0.00     0.159 HD
HETATM   26  H11 UNL     1      18.612  -2.198  55.010  1.00  0.00     0.159 HD
HETATM   27  O1  UNL     1      17.522  -1.024  52.283  1.00  0.00    -0.267 OA
ENDBRANCH  22  23
ENDBRANCH  19  21
ENDBRANCH   9  11
ENDBRANCH   7   9
TORSDOF 4
ENDMDL
MODEL 3
REMARK VINA RESULT:      -8.2      1.829      2.752
REMARK  4 active torsions:
REMARK  status: ('A' for Active; 'I' for Inactive)
REMARK    1  A    between atoms: C7_7  and  N1_8 
REMARK    2  A    between atoms: N1_8  and  C8_9 
REMARK    3  A    between atoms: C13_16  and  N4_17 
REMARK    4  A    between atoms: C14_18  and  C15_19 
REMARK       I    between atoms: C15_19  and  N5_20 
ROOT
HETATM    1  C1  UNL     1      28.482   5.163  48.219  1.00  0.00     0.018 C 
HETATM    2  C2  UNL     1      27.352   5.369  48.608  1.00  0.00    -0.078 C 
HETATM    3  C3  UNL     1      25.991   5.619  49.053  1.00  0.00     0.019 A 
HETATM    4  C4  UNL     1      25.101   6.289  48.240  1.00  0.00     0.021 A 
HETATM    5  C5  UNL     1      23.797   6.519  48.686  1.00  0.00     0.004 A 
HETATM    6  C6  UNL     1      23.476   6.042  49.955  1.00  0.00     0.029 A 
HETATM    7  C7  UNL     1      24.396   5.375  50.738  1.00  0.00     0.035 A 
HETATM    8  C18 UNL     1      25.676   5.147  50.306  1.00  0.00     0.050 A 
ENDROOT
BRANCH   7   9
HETATM    9  N1  UNL     1      24.009   4.914  52.022  1.00  0.00    -0.340 N 
HETATM   10  H5  UNL     1      24.343   5.377  52.893  1.00  0.00     0.167 HD
BRANCH   9  11
HETATM   11  C8  UNL     1      23.147   3.802  52.211  1.00  0.00     0.142 A 
HETATM   12  N2  UNL     1      21.822   3.873  51.992  1.00  0.00    -0.224 NA
HETATM   13  C9  UNL     1      21.067   2.795  52.189  1.00  0.00     0.236 A 
HETATM   14  N3  UNL     1      21.553   1.610  52.601  1.00  0.00    -0.241 NA
HETATM   15  C10 UNL     1      22.862   1.457  52.842  1.00  0.00     0.072 A 
HETATM   16  C11 UNL     1      23.415   0.265  53.268  1.00  0.00     0.035 A 
HETATM   17  C17 UNL     1      23.654   2.591  52.635  1.00  0.00     0.041 A 
HETATM   18  C12 UNL     1      24.777   0.232  53.480  1.00  0.00     0.034 A 
HETATM   19  C13 UNL     1      25.604   1.322  53.292  1.00  0.00     0.057 A 
HETATM   20  C16 UNL     1      25.012   2.494  52.866  1.00  0.00     0.049 A 
BRANCH  19  21
HETATM   21  N4  UNL     1      26.959   1.095  53.560  1.00  0.00    -0.256 NA
HETATM   22  C14 UNL     1      27.957   1.634  52.972  1.00  0.00     0.191 C 
BRANCH  22  23
HETATM   23  C15 UNL     1      29.097   1.033  53.654  1.00  0.00     0.256 C 
HETATM   24  N5  UNL     1      29.410   2.118  54.526  1.00  0.00    -0.365 N 
HETATM   25  H10 UNL     1      30.220   2.772  54.639  1.00  0.00     0.159 HD
HETATM   26  H11 UNL     1      28.961   2.622  55.324  1.00  0.00     0.159 HD
HETATM   27  O1  UNL     1      29.839   0.018  53.758  1.00  0.00    -0.267 OA
ENDBRANCH  22  23
ENDBRANCH  19  21
ENDBRANCH   9  11
ENDBRANCH   7   9
TORSDOF 4
ENDMDL
MODEL 4
REMARK VINA RESULT:      -8.2      3.158      6.575
REMARK  4 active torsions:
REMARK  status: ('A' for Active; 'I' for Inactive)
REMARK    1  A    between atoms: C7_7  and  N1_8 
REMARK    2  A    between atoms: N1_8  and  C8_9 
REMARK    3  A    between atoms: C13_16  and  N4_17 
REMARK    4  A    between atoms: C14_18  and  C15_19 
REMARK       I    between atoms: C15_19  and  N5_20 
ROOT
HETATM    1  C1  UNL     1      28.742  -2.741  53.044  1.00  0.00     0.018 C 
HETATM    2  C2  UNL     1      28.577  -1.550  53.203  1.00  0.00    -0.078 C 
HETATM    3  C3  UNL     1      28.402  -0.119  53.391  1.00  0.00     0.019 A 
HETATM    4  C4  UNL     1      29.450   0.662  53.829  1.00  0.00     0.021 A 
HETATM    5  C5  UNL     1      29.263   2.036  54.004  1.00  0.00     0.004 A 
HETATM    6  C6  UNL     1      27.995   2.535  53.715  1.00  0.00     0.029 A 
HETATM    7  C7  UNL     1      26.970   1.720  53.278  1.00  0.00     0.035 A 
HETATM    8  C18 UNL     1      27.150   0.372  53.104  1.00  0.00     0.050 A 
ENDROOT
BRANCH   7   9
HETATM    9  N1  UNL     1      25.701   2.288  53.000  1.00  0.00    -0.340 N 
HETATM   10  H5  UNL     1      25.009   2.473  53.755  1.00  0.00     0.167 HD
BRANCH   9  11
HETATM   11  C8  UNL     1      25.288   2.643  51.689  1.00  0.00     0.142 A 
HETATM   12  N2  UNL     1      26.041   3.411  50.882  1.00  0.00    -0.224 NA
HETATM   13  C9  UNL     1      25.598   3.710  49.663  1.00  0.00     0.236 A 
HETATM   14  N3  UNL     1      24.419   3.284  49.173  1.00  0.00    -0.241 NA
HETATM   15  C10 UNL     1      23.611   2.514  49.915  1.00  0.00     0.072 A 
HETATM   16  C11 UNL     1      22.391   2.049  49.464  1.00  0.00     0.035 A 
HETATM   17  C17 UNL     1      24.079   2.202  51.196  1.00  0.00     0.041 A 
HETATM   18  C12 UNL     1      21.650   1.264  50.322  1.00  0.00     0.034 A 
HETATM   19  C13 UNL     1      22.065   0.926  51.595  1.00  0.00     0.057 A 
HETATM   20  C16 UNL     1      23.289   1.411  52.007  1.00  0.00     0.049 A 
BRANCH  19  21
HETATM   21  N4  UNL     1      21.175   0.120  52.316  1.00  0.00    -0.256 NA
HETATM   22  C14 UNL     1      20.279   0.514  53.138  1.00  0.00     0.191 C 
BRANCH  22  23
HETATM   23  C15 UNL     1      19.670  -0.736  53.575  1.00  0.00     0.256 C 
HETATM   24  N5  UNL     1      20.686  -1.153  54.486  1.00  0.00    -0.365 N 
HETATM   25  H10 UNL     1      21.363  -1.951  54.533  1.00  0.00     0.159 HD
HETATM   26  H11 UNL     1      21.097  -0.821  55.388  1.00  0.00     0.159 HD
HETATM   27  O1  UNL     1      18.684  -1.516  53.466  1.00  0.00    -0.267 OA
ENDBRANCH  22  23
ENDBRANCH  19  21
ENDBRANCH   9  11
ENDBRANCH   7   9
TORSDOF 4
ENDMDL
MODEL 5
REMARK VINA RESULT:      -8.2      4.168      7.539
REMARK  4 active torsions:
REMARK  status: ('A' for Active; 'I' for Inactive)
REMARK    1  A    between atoms: C7_7  and  N1_8 
REMARK    2  A    between atoms: N1_8  and  C8_9 
REMARK    3  A    between atoms: C13_16  and  N4_17 
REMARK    4  A    between atoms: C14_18  and  C15_19 
REMARK       I    between atoms: C15_19  and  N5_20 
ROOT
HETATM    1  C1  UNL     1      29.138   1.393  53.948  1.00  0.00     0.018 C 
HETATM    2  C2  UNL     1      28.063   1.655  53.450  1.00  0.00    -0.078 C 
HETATM    3  C3  UNL     1      26.767   1.971  52.873  1.00  0.00     0.019 A 
HETATM    4  C4  UNL     1      25.615   1.813  53.614  1.00  0.00     0.021 A 
HETATM    5  C5  UNL     1      24.378   2.122  53.042  1.00  0.00     0.004 A 
HETATM    6  C6  UNL     1      24.394   2.581  51.727  1.00  0.00     0.029 A 
HETATM    7  C7  UNL     1      25.570   2.725  51.018  1.00  0.00     0.035 A 
HETATM    8  C18 UNL     1      26.785   2.424  51.575  1.00  0.00     0.050 A 
ENDROOT
BRANCH   7   9
HETATM    9  N1  UNL     1      25.521   3.197  49.682  1.00  0.00    -0.340 N 
HETATM   10  H5  UNL     1      25.642   2.555  48.871  1.00  0.00     0.167 HD
BRANCH   9  11
HETATM   11  C8  UNL     1      25.307   4.562  49.356  1.00  0.00     0.142 A 
HETATM   12  N2  UNL     1      24.106   5.152  49.489  1.00  0.00    -0.224 NA
HETATM   13  C9  UNL     1      23.968   6.436  49.165  1.00  0.00     0.236 A 
HETATM   14  N3  UNL     1      24.975   7.201  48.704  1.00  0.00    -0.241 NA
HETATM   15  C10 UNL     1      26.202   6.687  48.544  1.00  0.00     0.072 A 
HETATM   16  C11 UNL     1      27.272   7.425  48.074  1.00  0.00     0.035 A 
HETATM   17  C17 UNL     1      26.344   5.338  48.884  1.00  0.00     0.041 A 
HETATM   18  C12 UNL     1      28.486   6.783  47.953  1.00  0.00     0.034 A 
HETATM   19  C13 UNL     1      28.681   5.454  48.274  1.00  0.00     0.057 A 
HETATM   20  C16 UNL     1      27.587   4.753  48.740  1.00  0.00     0.049 A 
BRANCH  19  21
HETATM   21  N4  UNL     1      29.985   4.981  48.084  1.00  0.00    -0.256 NA
HETATM   22  C14 UNL     1      31.055   5.678  48.046  1.00  0.00     0.191 C 
BRANCH  22  23
HETATM   23  C15 UNL     1      32.088   4.673  47.828  1.00  0.00     0.256 C 
HETATM   24  N5  UNL     1      32.974   5.058  48.877  1.00  0.00    -0.365 N 
HETATM   25  H10 UNL     1      33.947   5.443  48.927  1.00  0.00     0.159 HD
HETATM   26  H11 UNL     1      32.966   5.091  49.923  1.00  0.00     0.159 HD
HETATM   27  O1  UNL     1      32.461   3.688  47.134  1.00  0.00    -0.267 OA
ENDBRANCH  22  23
ENDBRANCH  19  21
ENDBRANCH   9  11
ENDBRANCH   7   9
TORSDOF 4
ENDMDL
MODEL 6
REMARK VINA RESULT:      -8.0      1.571      2.236
REMARK  4 active torsions:
REMARK  status: ('A' for Active; 'I' for Inactive)
REMARK    1  A    between atoms: C7_7  and  N1_8 
REMARK    2  A    between atoms: N1_8  and  C8_9 
REMARK    3  A    between atoms: C13_16  and  N4_17 
REMARK    4  A    between atoms: C14_18  and  C15_19 
REMARK       I    between atoms: C15_19  and  N5_20 
ROOT
HETATM    1  C1  UNL     1      19.253   5.123  49.213  1.00  0.00     0.018 C 
HETATM    2  C2  UNL     1      20.159   4.734  49.920  1.00  0.00    -0.078 C 
HETATM    3  C3  UNL     1      21.243   4.287  50.779  1.00  0.00     0.019 A 
HETATM    4  C4  UNL     1      22.002   5.200  51.480  1.00  0.00     0.021 A 
HETATM    5  C5  UNL     1      23.040   4.751  52.301  1.00  0.00     0.004 A 
HETATM    6  C6  UNL     1      23.242   3.374  52.356  1.00  0.00     0.029 A 
HETATM    7  C7  UNL     1      22.460   2.491  51.638  1.00  0.00     0.035 A 
HETATM    8  C18 UNL     1      21.441   2.927  50.833  1.00  0.00     0.050 A 
ENDROOT
BRANCH   7   9
HETATM    9  N1  UNL     1      22.716   1.100  51.736  1.00  0.00    -0.340 N 
HETATM   10  H5  UNL     1      23.290   0.599  51.027  1.00  0.00     0.167 HD
BRANCH   9  11
HETATM   11  C8  UNL     1      22.213   0.299  52.795  1.00  0.00     0.142 A 
HETATM   12  N2  UNL     1      20.900   0.055  52.951  1.00  0.00    -0.224 NA
HETATM   13  C9  UNL     1      20.490  -0.702  53.966  1.00  0.00     0.236 A 
HETATM   14  N3  UNL     1      21.323  -1.254  54.867  1.00  0.00    -0.241 NA
HETATM   15  C10 UNL     1      22.646  -1.059  54.781  1.00  0.00     0.072 A 
HETATM   16  C11 UNL     1      23.547  -1.600  55.678  1.00  0.00     0.035 A 
HETATM   17  C17 UNL     1      23.074  -0.262  53.714  1.00  0.00     0.041 A 
HETATM   18  C12 UNL     1      24.885  -1.326  55.483  1.00  0.00     0.034 A 
HETATM   19  C13 UNL     1      25.360  -0.546  54.448  1.00  0.00     0.057 A 
HETATM   20  C16 UNL     1      24.427  -0.025  53.575  1.00  0.00     0.049 A 
BRANCH  19  21
HETATM   21  N4  UNL     1      26.750  -0.382  54.416  1.00  0.00    -0.256 NA
HETATM   22  C14 UNL     1      27.482  -0.251  53.377  1.00  0.00     0.191 C 
BRANCH  22  23
HETATM   23  C15 UNL     1      28.820  -0.118  53.940  1.00  0.00     0.256 C 
HETATM   24  N5  UNL     1      28.515   0.809  54.980  1.00  0.00    -0.365 N 
HETATM   25  H10 UNL     1      28.779   1.800  55.196  1.00  0.00     0.159 HD
HETATM   26  H11 UNL     1      27.942   0.828  55.855  1.00  0.00     0.159 HD
HETATM   27  O1  UNL     1      30.028  -0.475  53.867  1.00  0.00    -0.267 OA
ENDBRANCH  22  23
ENDBRANCH  19  21
ENDBRANCH   9  11
ENDBRANCH   7   9
TORSDOF 4
ENDMDL
MODEL 7
REMARK VINA RESULT:      -7.9      2.899      5.126
REMARK  4 active torsions:
REMARK  status: ('A' for Active; 'I' for Inactive)
REMARK    1  A    between atoms: C7_7  and  N1_8 
REMARK    2  A    between atoms: N1_8  and  C8_9 
REMARK    3  A    between atoms: C13_16  and  N4_17 
REMARK    4  A    between atoms: C14_18  and  C15_19 
REMARK       I    between atoms: C15_19  and  N5_20 
ROOT
HETATM    1  C1  UNL     1      27.855   7.238  47.605  1.00  0.00     0.018 C 
HETATM    2  C2  UNL     1      27.060   6.750  48.381  1.00  0.00    -0.078 C 
HETATM    3  C3  UNL     1      26.095   6.184  49.310  1.00  0.00     0.019 A 
HETATM    4  C4  UNL     1      25.243   7.004  50.018  1.00  0.00     0.021 A 
HETATM    5  C5  UNL     1      24.322   6.442  50.907  1.00  0.00     0.004 A 
HETATM    6  C6  UNL     1      24.328   5.053  51.017  1.00  0.00     0.029 A 
HETATM    7  C7  UNL     1      25.198   4.266  50.289  1.00  0.00     0.035 A 
HETATM    8  C18 UNL     1      26.102   4.813  49.416  1.00  0.00     0.050 A 
ENDROOT
BRANCH   7   9
HETATM    9  N1  UNL     1      25.156   2.857  50.445  1.00  0.00    -0.340 N 
HETATM   10  H5  UNL     1      24.610   2.252  49.797  1.00  0.00     0.167 HD
BRANCH   9  11
HETATM   11  C8  UNL     1      25.846   2.179  51.484  1.00  0.00     0.142 A 
HETATM   12  N2  UNL     1      27.156   2.367  51.719  1.00  0.00    -0.224 NA
HETATM   13  C9  UNL     1      27.747   1.700  52.707  1.00  0.00     0.236 A 
HETATM   14  N3  UNL     1      27.104   0.829  53.506  1.00  0.00    -0.241 NA
HETATM   15  C10 UNL     1      25.797   0.586  53.338  1.00  0.00     0.072 A 
HETATM   16  C11 UNL     1      25.088  -0.298  54.127  1.00  0.00     0.035 A 
HETATM   17  C17 UNL     1      25.179   1.288  52.298  1.00  0.00     0.041 A 
HETATM   18  C12 UNL     1      23.746  -0.462  53.855  1.00  0.00     0.034 A 
HETATM   19  C13 UNL     1      23.087   0.205  52.841  1.00  0.00     0.057 A 
HETATM   20  C16 UNL     1      23.832   1.078  52.076  1.00  0.00     0.049 A 
BRANCH  19  21
HETATM   21  N4  UNL     1      21.725  -0.094  52.719  1.00  0.00    -0.256 NA
HETATM   22  C14 UNL     1      20.745   0.702  52.919  1.00  0.00     0.191 C 
BRANCH  22  23
HETATM   23  C15 UNL     1      19.586  -0.140  52.648  1.00  0.00     0.256 C 
HETATM   24  N5  UNL     1      19.625  -0.933  53.833  1.00  0.00    -0.365 N 
HETATM   25  H10 UNL     1      19.787  -1.945  54.047  1.00  0.00     0.159 HD
HETATM   26  H11 UNL     1      19.512  -0.789  54.862  1.00  0.00     0.159 HD
HETATM   27  O1  UNL     1      18.652  -0.408  51.843  1.00  0.00    -0.267 OA
ENDBRANCH  22  23
ENDBRANCH  19  21
ENDBRANCH   9  11
ENDBRANCH   7   9
TORSDOF 4
ENDMDL
MODEL 8
REMARK VINA RESULT:      -7.8      3.918      7.492
REMARK  4 active torsions:
REMARK  status: ('A' for Active; 'I' for Inactive)
REMARK    1  A    between atoms: C7_7  and  N1_8 
REMARK    2  A    between atoms: N1_8  and  C8_9 
REMARK    3  A    between atoms: C13_16  and  N4_17 
REMARK    4  A    between atoms: C14_18  and  C15_19 
REMARK       I    between atoms: C15_19  and  N5_20 
ROOT
HETATM    1  C1  UNL     1      22.409  -1.119  54.863  1.00  0.00     0.018 C 
HETATM    2  C2  UNL     1      23.305  -0.657  54.188  1.00  0.00    -0.078 C 
HETATM    3  C3  UNL     1      24.386  -0.125  53.375  1.00  0.00     0.019 A 
HETATM    4  C4  UNL     1      25.522  -0.871  53.148  1.00  0.00     0.021 A 
HETATM    5  C5  UNL     1      26.551  -0.342  52.364  1.00  0.00     0.004 A 
HETATM    6  C6  UNL     1      26.352   0.938  51.852  1.00  0.00     0.029 A 
HETATM    7  C7  UNL     1      25.198   1.654  52.103  1.00  0.00     0.035 A 
HETATM    8  C18 UNL     1      24.187   1.139  52.870  1.00  0.00     0.050 A 
ENDROOT
BRANCH   7   9
HETATM    9  N1  UNL     1      25.055   2.953  51.553  1.00  0.00    -0.340 N 
HETATM   10  H5  UNL     1      25.600   3.763  51.915  1.00  0.00     0.167 HD
BRANCH   9  11
HETATM   11  C8  UNL     1      24.168   3.240  50.483  1.00  0.00     0.142 A 
HETATM   12  N2  UNL     1      23.157   2.420  50.147  1.00  0.00    -0.224 NA
HETATM   13  C9  UNL     1      22.360   2.744  49.131  1.00  0.00     0.236 A 
HETATM   14  N3  UNL     1      22.501   3.866  48.402  1.00  0.00    -0.241 NA
HETATM   15  C10 UNL     1      23.484   4.736  48.673  1.00  0.00     0.072 A 
HETATM   16  C11 UNL     1      23.677   5.901  47.957  1.00  0.00     0.035 A 
HETATM   17  C17 UNL     1      24.321   4.392  49.740  1.00  0.00     0.041 A 
HETATM   18  C12 UNL     1      24.724   6.716  48.333  1.00  0.00     0.034 A 
HETATM   19  C13 UNL     1      25.579   6.424  49.377  1.00  0.00     0.057 A 
HETATM   20  C16 UNL     1      25.352   5.250  50.066  1.00  0.00     0.049 A 
BRANCH  19  21
HETATM   21  N4  UNL     1      26.582   7.373  49.608  1.00  0.00    -0.256 NA
HETATM   22  C14 UNL     1      26.701   8.514  49.044  1.00  0.00     0.191 C 
BRANCH  22  23
HETATM   23  C15 UNL     1      27.905   9.056  49.664  1.00  0.00     0.256 C 
HETATM   24  N5  UNL     1      27.450   9.071  51.016  1.00  0.00    -0.365 N 
HETATM   25  H10 UNL     1      27.253   9.814  51.728  1.00  0.00     0.159 HD
HETATM   26  H11 UNL     1      27.164   8.375  51.743  1.00  0.00     0.159 HD
HETATM   27  O1  UNL     1      29.080   9.475  49.480  1.00  0.00    -0.267 OA
ENDBRANCH  22  23
ENDBRANCH  19  21
ENDBRANCH   9  11
ENDBRANCH   7   9
TORSDOF 4
ENDMDL
MODEL 9
REMARK VINA RESULT:      -7.7      3.975      6.564
REMARK  4 active torsions:
REMARK  status: ('A' for Active; 'I' for Inactive)
REMARK    1  A    between atoms: C7_7  and  N1_8 
REMARK    2  A    between atoms: N1_8  and  C8_9 
REMARK    3  A    between atoms: C13_16  and  N4_17 
REMARK    4  A    between atoms: C14_18  and  C15_19 
REMARK       I    between atoms: C15_19  and  N5_20 
ROOT
HETATM    1  C1  UNL     1      29.045  -2.486  53.084  1.00  0.00     0.018 C 
HETATM    2  C2  UNL     1      28.371  -1.479  53.115  1.00  0.00    -0.078 C 
HETATM    3  C3  UNL     1      27.580  -0.259  53.150  1.00  0.00     0.019 A 
HETATM    4  C4  UNL     1      28.168   0.946  53.469  1.00  0.00     0.021 A 
HETATM    5  C5  UNL     1      27.392   2.108  53.497  1.00  0.00     0.004 A 
HETATM    6  C6  UNL     1      26.040   1.964  53.193  1.00  0.00     0.029 A 
HETATM    7  C7  UNL     1      25.489   0.738  52.878  1.00  0.00     0.035 A 
HETATM    8  C18 UNL     1      26.246  -0.403  52.848  1.00  0.00     0.050 A 
ENDROOT
BRANCH   7   9
HETATM    9  N1  UNL     1      24.105   0.656  52.577  1.00  0.00    -0.340 N 
HETATM   10  H5  UNL     1      23.697   1.138  51.749  1.00  0.00     0.167 HD
BRANCH   9  11
HETATM   11  C8  UNL     1      23.188  -0.079  53.373  1.00  0.00     0.142 A 
HETATM   12  N2  UNL     1      23.577  -0.790  54.446  1.00  0.00    -0.224 NA
HETATM   13  C9  UNL     1      22.669  -1.461  55.151  1.00  0.00     0.236 A 
HETATM   14  N3  UNL     1      21.357  -1.474  54.855  1.00  0.00    -0.241 NA
HETATM   15  C10 UNL     1      20.889  -0.791  53.801  1.00  0.00     0.072 A 
HETATM   16  C11 UNL     1      19.553  -0.769  53.450  1.00  0.00     0.035 A 
HETATM   17  C17 UNL     1      21.845  -0.087  53.061  1.00  0.00     0.041 A 
HETATM   18  C12 UNL     1      19.195  -0.028  52.344  1.00  0.00     0.034 A 
HETATM   19  C13 UNL     1      20.098   0.684  51.580  1.00  0.00     0.057 A 
HETATM   20  C16 UNL     1      21.422   0.636  51.964  1.00  0.00     0.049 A 
BRANCH  19  21
HETATM   21  N4  UNL     1      19.544   1.375  50.495  1.00  0.00    -0.256 NA
HETATM   22  C14 UNL     1      18.527   2.149  50.518  1.00  0.00     0.191 C 
BRANCH  22  23
HETATM   23  C15 UNL     1      18.416   2.577  49.129  1.00  0.00     0.256 C 
HETATM   24  N5  UNL     1      19.678   3.233  49.014  1.00  0.00    -0.365 N 
HETATM   25  H10 UNL     1      19.993   4.220  48.857  1.00  0.00     0.159 HD
HETATM   26  H11 UNL     1      20.690   2.972  49.048  1.00  0.00     0.159 HD
HETATM   27  O1  UNL     1      17.701   2.588  48.090  1.00  0.00    -0.267 OA
ENDBRANCH  22  23
ENDBRANCH  19  21
ENDBRANCH   9  11
ENDBRANCH   7   9
TORSDOF 4
ENDMDL
