MODEL 1
REMARK VINA RESULT:      -8.7      0.000      0.000
REMARK  3 active torsions:
REMARK  status: ('A' for Active; 'I' for Inactive)
REMARK    1  A    between atoms: C2_2  and  N1_3 
REMARK    2  A    between atoms: C8_14  and  N7_15 
REMARK    3  A    between atoms: N7_15  and  C9_16 
ROOT
HETATM    1  C9  UNL     1      23.067  -0.459  53.611  1.00  0.00     0.035 A 
HETATM    2  C10 UNL     1      22.312  -1.375  54.333  1.00  0.00     0.029 A 
HETATM    3  C11 UNL     1      20.964  -1.167  54.586  1.00  0.00     0.004 A 
HETATM    4  C12 UNL     1      20.395  -0.026  54.100  1.00  0.00     0.023 A 
HETATM    5  C13 UNL     1      21.068   0.944  53.371  1.00  0.00     0.046 A 
HETATM    6  C14 UNL     1      20.452   2.137  52.868  1.00  0.00     0.099 C 
HETATM    7  N8  UNL     1      19.965   3.093  52.457  1.00  0.00    -0.191 NA
HETATM    8  C15 UNL     1      22.407   0.664  53.160  1.00  0.00     0.052 A 
ENDROOT
BRANCH   1   9
HETATM    9  N7  UNL     1      24.473  -0.651  53.328  1.00  0.00    -0.338 N 
HETATM   10  H12 UNL     1      24.324  -1.697  53.185  1.00  0.00     0.167 HD
BRANCH   9  11
HETATM   11  C8  UNL     1      25.631   0.222  53.255  1.00  0.00     0.182 C 
HETATM   12  C4  UNL     1      25.792   1.146  52.355  1.00  0.00     0.153 A 
HETATM   13  N2  UNL     1      24.835   1.311  51.425  1.00  0.00    -0.236 NA
HETATM   14  C5  UNL     1      26.792   2.057  52.085  1.00  0.00     0.183 A 
HETATM   15  C3  UNL     1      25.180   2.280  50.579  1.00  0.00     0.212 A 
HETATM   16  N1  UNL     1      26.381   2.749  50.971  1.00  0.00    -0.323 N 
HETATM   17  N3  UNL     1      27.937   2.549  52.414  1.00  0.00    -0.158 NA
HETATM   18  N4  UNL     1      28.843   2.304  53.409  1.00  0.00    -0.310 N 
HETATM   19  C6  UNL     1      29.231   1.068  54.188  1.00  0.00     0.165 C 
HETATM   20  H7  UNL     1      29.291   3.244  53.570  1.00  0.00     0.182 HD
HETATM   21  C7  UNL     1      27.936   0.546  54.418  1.00  0.00     0.195 C 
HETATM   22  N5  UNL     1      27.149  -0.398  54.989  1.00  0.00    -0.189 NA
HETATM   23  N6  UNL     1      26.010  -0.528  54.381  1.00  0.00    -0.135 NA
BRANCH  16  24
HETATM   24  C2  UNL     1      26.905   3.826  50.119  1.00  0.00     0.127 C 
HETATM   25  C1  UNL     1      25.842   4.750  49.621  1.00  0.00     0.027 C 
ENDBRANCH  16  24
ENDBRANCH   9  11
ENDBRANCH   1   9
TORSDOF 3
ENDMDL
MODEL 2
REMARK VINA RESULT:      -8.5      2.138      6.110
REMARK  3 active torsions:
REMARK  status: ('A' for Active; 'I' for Inactive)
REMARK    1  A    between atoms: C2_2  and  N1_3 
REMARK    2  A    between atoms: C8_14  and  N7_15 
REMARK    3  A    between atoms: N7_15  and  C9_16 
ROOT
HETATM    1  C9  UNL     1      25.776  -0.533  53.933  1.00  0.00     0.035 A 
HETATM    2  C10 UNL     1      26.259  -1.533  53.099  1.00  0.00     0.029 A 
HETATM    3  C11 UNL     1      27.595  -1.590  52.730  1.00  0.00     0.004 A 
HETATM    4  C12 UNL     1      28.429  -0.625  53.214  1.00  0.00     0.023 A 
HETATM    5  C13 UNL     1      28.038   0.412  54.050  1.00  0.00     0.046 A 
HETATM    6  C14 UNL     1      28.930   1.416  54.549  1.00  0.00     0.099 C 
HETATM    7  N8  UNL     1      29.640   2.222  54.958  1.00  0.00    -0.191 NA
HETATM    8  C15 UNL     1      26.692   0.398  54.373  1.00  0.00     0.052 A 
ENDROOT
BRANCH   1   9
HETATM    9  N7  UNL     1      24.389  -0.451  54.338  1.00  0.00    -0.338 N 
HETATM   10  H12 UNL     1      24.663  -0.517  55.366  1.00  0.00     0.167 HD
BRANCH   9  11
HETATM   11  C8  UNL     1      23.124  -0.319  53.637  1.00  0.00     0.182 C 
HETATM   12  C4  UNL     1      22.950   0.414  52.578  1.00  0.00     0.153 A 
HETATM   13  N2  UNL     1      23.999   1.101  52.093  1.00  0.00    -0.236 NA
HETATM   14  C5  UNL     1      21.863   0.699  51.778  1.00  0.00     0.183 A 
HETATM   15  C3  UNL     1      23.629   1.809  51.026  1.00  0.00     0.212 A 
HETATM   16  N1  UNL     1      22.319   1.573  50.820  1.00  0.00    -0.323 N 
HETATM   17  N3  UNL     1      20.613   0.509  51.528  1.00  0.00    -0.158 NA
HETATM   18  N4  UNL     1      19.617  -0.236  52.098  1.00  0.00    -0.310 N 
HETATM   19  C6  UNL     1      19.331  -0.692  53.511  1.00  0.00     0.165 C 
HETATM   20  H7  UNL     1      18.993  -0.476  51.284  1.00  0.00     0.182 HD
HETATM   21  C7  UNL     1      20.643  -1.065  53.884  1.00  0.00     0.195 C 
HETATM   22  N5  UNL     1      21.481  -1.594  54.808  1.00  0.00    -0.189 NA
HETATM   23  N6  UNL     1      22.708  -1.199  54.650  1.00  0.00    -0.135 NA
BRANCH  16  24
HETATM   24  C2  UNL     1      21.758   2.300  49.672  1.00  0.00     0.127 C 
HETATM   25  C1  UNL     1      21.865   1.544  48.389  1.00  0.00     0.027 C 
ENDBRANCH  16  24
ENDBRANCH   9  11
ENDBRANCH   1   9
TORSDOF 3
ENDMDL
MODEL 3
REMARK VINA RESULT:      -8.3      3.298      6.119
REMARK  3 active torsions:
REMARK  status: ('A' for Active; 'I' for Inactive)
REMARK    1  A    between atoms: C2_2  and  N1_3 
REMARK    2  A    between atoms: C8_14  and  N7_15 
REMARK    3  A    between atoms: N7_15  and  C9_16 
ROOT
HETATM    1  C9  UNL     1      27.059   1.299  52.276  1.00  0.00     0.035 A 
HETATM    2  C10 UNL     1      27.796   2.231  52.997  1.00  0.00     0.029 A 
HETATM    3  C11 UNL     1      28.825   1.845  53.843  1.00  0.00     0.004 A 
HETATM    4  C12 UNL     1      29.096   0.513  53.949  1.00  0.00     0.023 A 
HETATM    5  C13 UNL     1      28.414  -0.489  53.271  1.00  0.00     0.046 A 
HETATM    6  C14 UNL     1      28.714  -1.885  53.396  1.00  0.00     0.099 C 
HETATM    7  N8  UNL     1      28.953  -3.005  53.485  1.00  0.00    -0.191 NA
HETATM    8  C15 UNL     1      27.404  -0.024  52.447  1.00  0.00     0.052 A 
ENDROOT
BRANCH   1   9
HETATM    9  N7  UNL     1      25.982   1.671  51.383  1.00  0.00    -0.338 N 
HETATM   10  H12 UNL     1      25.880   0.663  51.053  1.00  0.00     0.167 HD
BRANCH   9  11
HETATM   11  C8  UNL     1      25.299   2.912  51.065  1.00  0.00     0.182 C 
HETATM   12  C4  UNL     1      25.773   3.823  50.269  1.00  0.00     0.153 A 
HETATM   13  N2  UNL     1      26.973   3.616  49.698  1.00  0.00    -0.236 NA
HETATM   14  C5  UNL     1      25.322   5.055  49.846  1.00  0.00     0.183 A 
HETATM   15  C3  UNL     1      27.305   4.658  48.937  1.00  0.00     0.212 A 
HETATM   16  N1  UNL     1      26.300   5.551  49.018  1.00  0.00    -0.323 N 
HETATM   17  N3  UNL     1      24.391   5.947  49.880  1.00  0.00    -0.158 NA
HETATM   18  N4  UNL     1      23.178   6.052  50.504  1.00  0.00    -0.310 N 
HETATM   19  C6  UNL     1      22.625   5.528  51.810  1.00  0.00     0.165 C 
HETATM   20  H7  UNL     1      22.610   6.639  49.839  1.00  0.00     0.182 HD
HETATM   21  C7  UNL     1      23.156   4.218  51.754  1.00  0.00     0.195 C 
HETATM   22  N5  UNL     1      23.259   2.983  52.303  1.00  0.00    -0.189 NA
HETATM   23  N6  UNL     1      24.339   2.365  51.934  1.00  0.00    -0.135 NA
BRANCH  16  24
HETATM   24  C2  UNL     1      26.528   6.773  48.232  1.00  0.00     0.127 C 
HETATM   25  C1  UNL     1      27.957   6.964  47.845  1.00  0.00     0.027 C 
ENDBRANCH  16  24
ENDBRANCH   9  11
ENDBRANCH   1   9
TORSDOF 3
ENDMDL
MODEL 4
REMARK VINA RESULT:      -8.3      1.756      5.737
REMARK  3 active torsions:
REMARK  status: ('A' for Active; 'I' for Inactive)
REMARK    1  A    between atoms: C2_2  and  N1_3 
REMARK    2  A    between atoms: C8_14  and  N7_15 
REMARK    3  A    between atoms: N7_15  and  C9_16 
ROOT
HETATM    1  C9  UNL     1      25.187   3.857  50.702  1.00  0.00     0.035 A 
HETATM    2  C10 UNL     1      24.173   4.447  51.445  1.00  0.00     0.029 A 
HETATM    3  C11 UNL     1      23.817   5.776  51.262  1.00  0.00     0.004 A 
HETATM    4  C12 UNL     1      24.497   6.492  50.323  1.00  0.00     0.023 A 
HETATM    5  C13 UNL     1      25.524   5.989  49.535  1.00  0.00     0.046 A 
HETATM    6  C14 UNL     1      26.228   6.759  48.552  1.00  0.00     0.099 C 
HETATM    7  N8  UNL     1      26.792   7.368  47.758  1.00  0.00    -0.191 NA
HETATM    8  C15 UNL     1      25.819   4.659  49.776  1.00  0.00     0.052 A 
ENDROOT
BRANCH   1   9
HETATM    9  N7  UNL     1      25.578   2.473  50.868  1.00  0.00    -0.338 N 
HETATM   10  H12 UNL     1      25.570   2.322  49.813  1.00  0.00     0.167 HD
BRANCH   9  11
HETATM   11  C8  UNL     1      25.876   1.624  52.007  1.00  0.00     0.182 C 
HETATM   12  C4  UNL     1      24.993   0.905  52.633  1.00  0.00     0.153 A 
HETATM   13  N2  UNL     1      23.718   0.944  52.211  1.00  0.00    -0.236 NA
HETATM   14  C5  UNL     1      25.043   0.061  53.723  1.00  0.00     0.183 A 
HETATM   15  C3  UNL     1      22.956   0.168  52.981  1.00  0.00     0.212 A 
HETATM   16  N1  UNL     1      23.756  -0.382  53.915  1.00  0.00    -0.323 N 
HETATM   17  N3  UNL     1      25.758  -0.499  54.638  1.00  0.00    -0.158 NA
HETATM   18  N4  UNL     1      27.083  -0.472  54.978  1.00  0.00    -0.310 N 
HETATM   19  C6  UNL     1      28.169   0.572  54.868  1.00  0.00     0.165 C 
HETATM   20  H7  UNL     1      27.250  -1.429  55.387  1.00  0.00     0.182 HD
HETATM   21  C7  UNL     1      27.878   1.046  53.567  1.00  0.00     0.195 C 
HETATM   22  N5  UNL     1      28.194   1.859  52.530  1.00  0.00    -0.189 NA
HETATM   23  N6  UNL     1      27.170   2.121  51.776  1.00  0.00    -0.135 NA
BRANCH  16  24
HETATM   24  C2  UNL     1      23.050  -1.264  54.856  1.00  0.00     0.127 C 
HETATM   25  C1  UNL     1      21.579  -1.331  54.608  1.00  0.00     0.027 C 
ENDBRANCH  16  24
ENDBRANCH   9  11
ENDBRANCH   1   9
TORSDOF 3
ENDMDL
MODEL 5
REMARK VINA RESULT:      -8.3      1.898      6.785
REMARK  3 active torsions:
REMARK  status: ('A' for Active; 'I' for Inactive)
REMARK    1  A    between atoms: C2_2  and  N1_3 
REMARK    2  A    between atoms: C8_14  and  N7_15 
REMARK    3  A    between atoms: N7_15  and  C9_16 
ROOT
HETATM    1  C9  UNL     1      27.144   1.329  52.432  1.00  0.00     0.035 A 
HETATM    2  C10 UNL     1      27.906   2.241  53.152  1.00  0.00     0.029 A 
HETATM    3  C11 UNL     1      28.959   1.833  53.958  1.00  0.00     0.004 A 
HETATM    4  C12 UNL     1      29.228   0.497  54.024  1.00  0.00     0.023 A 
HETATM    5  C13 UNL     1      28.522  -0.486  53.343  1.00  0.00     0.046 A 
HETATM    6  C14 UNL     1      28.820  -1.886  53.426  1.00  0.00     0.099 C 
HETATM    7  N8  UNL     1      29.056  -3.008  53.482  1.00  0.00    -0.191 NA
HETATM    8  C15 UNL     1      27.489   0.001  52.561  1.00  0.00     0.052 A 
ENDROOT
BRANCH   1   9
HETATM    9  N7  UNL     1      26.043   1.726  51.581  1.00  0.00    -0.338 N 
HETATM   10  H12 UNL     1      26.636   1.574  50.708  1.00  0.00     0.167 HD
BRANCH   9  11
HETATM   11  C8  UNL     1      24.674   2.150  51.810  1.00  0.00     0.182 C 
HETATM   12  C4  UNL     1      23.774   1.424  52.403  1.00  0.00     0.153 A 
HETATM   13  N2  UNL     1      24.120   0.198  52.834  1.00  0.00    -0.236 NA
HETATM   14  C5  UNL     1      22.441   1.608  52.705  1.00  0.00     0.183 A 
HETATM   15  C3  UNL     1      23.071  -0.404  53.392  1.00  0.00     0.212 A 
HETATM   16  N1  UNL     1      22.031   0.449  53.321  1.00  0.00    -0.323 N 
HETATM   17  N3  UNL     1      21.411   2.382  52.670  1.00  0.00    -0.158 NA
HETATM   18  N4  UNL     1      21.168   3.645  52.202  1.00  0.00    -0.310 N 
HETATM   19  C6  UNL     1      21.735   4.465  51.067  1.00  0.00     0.165 C 
HETATM   20  H7  UNL     1      20.419   4.006  52.849  1.00  0.00     0.182 HD
HETATM   21  C7  UNL     1      23.103   4.144  51.234  1.00  0.00     0.195 C 
HETATM   22  N5  UNL     1      24.391   4.319  50.853  1.00  0.00    -0.189 NA
HETATM   23  N6  UNL     1      25.142   3.305  51.160  1.00  0.00    -0.135 NA
BRANCH  16  24
HETATM   24  C2  UNL     1      20.786  -0.084  53.893  1.00  0.00     0.127 C 
HETATM   25  C1  UNL     1      20.878  -1.530  54.255  1.00  0.00     0.027 C 
ENDBRANCH  16  24
ENDBRANCH   9  11
ENDBRANCH   1   9
TORSDOF 3
ENDMDL
MODEL 6
REMARK VINA RESULT:      -8.2      2.381      7.008
REMARK  3 active torsions:
REMARK  status: ('A' for Active; 'I' for Inactive)
REMARK    1  A    between atoms: C2_2  and  N1_3 
REMARK    2  A    between atoms: C8_14  and  N7_15 
REMARK    3  A    between atoms: N7_15  and  C9_16 
ROOT
HETATM    1  C9  UNL     1      25.176   0.735  53.155  1.00  0.00     0.035 A 
HETATM    2  C10 UNL     1      25.360  -0.599  52.812  1.00  0.00     0.029 A 
HETATM    3  C11 UNL     1      26.595  -1.218  52.937  1.00  0.00     0.004 A 
HETATM    4  C12 UNL     1      27.634  -0.474  53.412  1.00  0.00     0.023 A 
HETATM    5  C13 UNL     1      27.546   0.863  53.779  1.00  0.00     0.046 A 
HETATM    6  C14 UNL     1      28.651   1.629  54.276  1.00  0.00     0.099 C 
HETATM    7  N8  UNL     1      29.530   2.248  54.681  1.00  0.00    -0.191 NA
HETATM    8  C15 UNL     1      26.283   1.408  53.625  1.00  0.00     0.052 A 
ENDROOT
BRANCH   1   9
HETATM    9  N7  UNL     1      23.900   1.407  53.038  1.00  0.00    -0.338 N 
HETATM   10  H12 UNL     1      24.128   2.031  53.871  1.00  0.00     0.167 HD
BRANCH   9  11
HETATM   11  C8  UNL     1      22.762   1.294  52.144  1.00  0.00     0.182 C 
HETATM   12  C4  UNL     1      21.636   0.727  52.461  1.00  0.00     0.153 A 
HETATM   13  N2  UNL     1      21.506   0.206  53.694  1.00  0.00    -0.236 NA
HETATM   14  C5  UNL     1      20.457   0.493  51.786  1.00  0.00     0.183 A 
HETATM   15  C3  UNL     1      20.303  -0.349  53.831  1.00  0.00     0.212 A 
HETATM   16  N1  UNL     1      19.646  -0.181  52.667  1.00  0.00    -0.323 N 
HETATM   17  N3  UNL     1      19.777   0.627  50.699  1.00  0.00    -0.158 NA
HETATM   18  N4  UNL     1      20.012   1.197  49.477  1.00  0.00    -0.310 N 
HETATM   19  C6  UNL     1      21.255   1.401  48.642  1.00  0.00     0.165 C 
HETATM   20  H7  UNL     1      19.057   1.516  49.168  1.00  0.00     0.182 HD
HETATM   21  C7  UNL     1      22.139   1.806  49.669  1.00  0.00     0.195 C 
HETATM   22  N5  UNL     1      23.367   2.242  50.038  1.00  0.00    -0.189 NA
HETATM   23  N6  UNL     1      23.639   1.970  51.278  1.00  0.00    -0.135 NA
BRANCH  16  24
HETATM   24  C2  UNL     1      18.293  -0.757  52.660  1.00  0.00     0.127 C 
HETATM   25  C1  UNL     1      18.164  -1.965  53.529  1.00  0.00     0.027 C 
ENDBRANCH  16  24
ENDBRANCH   9  11
ENDBRANCH   1   9
TORSDOF 3
ENDMDL
MODEL 7
REMARK VINA RESULT:      -8.1      2.374      5.090
REMARK  3 active torsions:
REMARK  status: ('A' for Active; 'I' for Inactive)
REMARK    1  A    between atoms: C2_2  and  N1_3 
REMARK    2  A    between atoms: C8_14  and  N7_15 
REMARK    3  A    between atoms: N7_15  and  C9_16 
ROOT
HETATM    1  C9  UNL     1      23.514   2.793  51.202  1.00  0.00     0.035 A 
HETATM    2  C10 UNL     1      23.585   3.817  52.138  1.00  0.00     0.029 A 
HETATM    3  C11 UNL     1      23.353   5.139  51.787  1.00  0.00     0.004 A 
HETATM    4  C12 UNL     1      23.050   5.407  50.485  1.00  0.00     0.023 A 
HETATM    5  C13 UNL     1      22.958   4.452  49.481  1.00  0.00     0.046 A 
HETATM    6  C14 UNL     1      22.638   4.753  48.117  1.00  0.00     0.099 C 
HETATM    7  N8  UNL     1      22.376   4.986  47.023  1.00  0.00    -0.191 NA
HETATM    8  C15 UNL     1      23.202   3.158  49.911  1.00  0.00     0.052 A 
ENDROOT
BRANCH   1   9
HETATM    9  N7  UNL     1      23.747   1.405  51.540  1.00  0.00    -0.338 N 
HETATM   10  H12 UNL     1      23.493   1.100  50.550  1.00  0.00     0.167 HD
BRANCH   9  11
HETATM   11  C8  UNL     1      24.170   0.700  52.736  1.00  0.00     0.182 C 
HETATM   12  C4  UNL     1      25.407   0.588  53.120  1.00  0.00     0.153 A 
HETATM   13  N2  UNL     1      26.366   1.154  52.367  1.00  0.00    -0.236 NA
HETATM   14  C5  UNL     1      26.028  -0.035  54.181  1.00  0.00     0.183 A 
HETATM   15  C3  UNL     1      27.564   0.919  52.898  1.00  0.00     0.212 A 
HETATM   16  N1  UNL     1      27.374   0.189  54.015  1.00  0.00    -0.323 N 
HETATM   17  N3  UNL     1      25.909  -0.730  55.261  1.00  0.00    -0.158 NA
HETATM   18  N4  UNL     1      24.856  -1.260  55.956  1.00  0.00    -0.310 N 
HETATM   19  C6  UNL     1      23.495  -1.778  55.556  1.00  0.00     0.165 C 
HETATM   20  H7  UNL     1      25.191  -1.247  56.955  1.00  0.00     0.182 HD
HETATM   21  C7  UNL     1      23.148  -0.772  54.625  1.00  0.00     0.195 C 
HETATM   22  N5  UNL     1      22.237  -0.241  53.774  1.00  0.00    -0.189 NA
HETATM   23  N6  UNL     1      22.786   0.486  52.849  1.00  0.00    -0.135 NA
BRANCH  16  24
HETATM   24  C2  UNL     1      28.619  -0.163  54.714  1.00  0.00     0.127 C 
HETATM   25  C1  UNL     1      29.650  -0.759  53.812  1.00  0.00     0.027 C 
ENDBRANCH  16  24
ENDBRANCH   9  11
ENDBRANCH   1   9
TORSDOF 3
ENDMDL
MODEL 8
REMARK VINA RESULT:      -7.9      1.960      4.961
REMARK  3 active torsions:
REMARK  status: ('A' for Active; 'I' for Inactive)
REMARK    1  A    between atoms: C2_2  and  N1_3 
REMARK    2  A    between atoms: C8_14  and  N7_15 
REMARK    3  A    between atoms: N7_15  and  C9_16 
ROOT
HETATM    1  C9  UNL     1      24.736   3.648  50.539  1.00  0.00     0.035 A 
HETATM    2  C10 UNL     1      24.382   2.970  49.379  1.00  0.00     0.029 A 
HETATM    3  C11 UNL     1      23.327   3.393  48.583  1.00  0.00     0.004 A 
HETATM    4  C12 UNL     1      22.641   4.505  48.975  1.00  0.00     0.023 A 
HETATM    5  C13 UNL     1      22.921   5.245  50.116  1.00  0.00     0.046 A 
HETATM    6  C14 UNL     1      22.187   6.411  50.512  1.00  0.00     0.099 C 
HETATM    7  N8  UNL     1      21.608   7.350  50.832  1.00  0.00    -0.191 NA
HETATM    8  C15 UNL     1      23.985   4.760  50.856  1.00  0.00     0.052 A 
ENDROOT
BRANCH   1   9
HETATM    9  N7  UNL     1      25.833   3.233  51.387  1.00  0.00    -0.338 N 
HETATM   10  H12 UNL     1      26.405   4.085  51.099  1.00  0.00     0.167 HD
BRANCH   9  11
HETATM   11  C8  UNL     1      26.067   2.116  52.283  1.00  0.00     0.182 C 
HETATM   12  C4  UNL     1      25.127   1.369  52.781  1.00  0.00     0.153 A 
HETATM   13  N2  UNL     1      23.851   1.640  52.454  1.00  0.00    -0.236 NA
HETATM   14  C5  UNL     1      25.113   0.294  53.644  1.00  0.00     0.183 A 
HETATM   15  C3  UNL     1      23.030   0.792  53.071  1.00  0.00     0.212 A 
HETATM   16  N1  UNL     1      23.790  -0.042  53.807  1.00  0.00    -0.323 N 
HETATM   17  N3  UNL     1      25.788  -0.536  54.364  1.00  0.00    -0.158 NA
HETATM   18  N4  UNL     1      27.117  -0.730  54.623  1.00  0.00    -0.310 N 
HETATM   19  C6  UNL     1      28.314   0.190  54.689  1.00  0.00     0.165 C 
HETATM   20  H7  UNL     1      27.184  -1.768  54.793  1.00  0.00     0.182 HD
HETATM   21  C7  UNL     1      28.038   0.981  53.550  1.00  0.00     0.195 C 
HETATM   22  N5  UNL     1      28.412   1.975  52.708  1.00  0.00    -0.189 NA
HETATM   23  N6  UNL     1      27.402   2.513  52.095  1.00  0.00    -0.135 NA
BRANCH  16  24
HETATM   24  C2  UNL     1      23.017  -1.039  54.562  1.00  0.00     0.127 C 
HETATM   25  C1  UNL     1      21.600  -0.629  54.795  1.00  0.00     0.027 C 
ENDBRANCH  16  24
ENDBRANCH   9  11
ENDBRANCH   1   9
TORSDOF 3
ENDMDL
MODEL 9
REMARK VINA RESULT:      -7.8      1.917      6.250
REMARK  3 active torsions:
REMARK  status: ('A' for Active; 'I' for Inactive)
REMARK    1  A    between atoms: C2_2  and  N1_3 
REMARK    2  A    between atoms: C8_14  and  N7_15 
REMARK    3  A    between atoms: N7_15  and  C9_16 
ROOT
HETATM    1  C9  UNL     1      24.805   4.284  50.380  1.00  0.00     0.035 A 
HETATM    2  C10 UNL     1      24.091   5.239  51.093  1.00  0.00     0.029 A 
HETATM    3  C11 UNL     1      24.372   6.593  50.979  1.00  0.00     0.004 A 
HETATM    4  C12 UNL     1      25.379   6.964  50.137  1.00  0.00     0.023 A 
HETATM    5  C13 UNL     1      26.146   6.083  49.385  1.00  0.00     0.046 A 
HETATM    6  C14 UNL     1      27.200   6.493  48.505  1.00  0.00     0.099 C 
HETATM    7  N8  UNL     1      28.043   6.814  47.794  1.00  0.00    -0.191 NA
HETATM    8  C15 UNL     1      25.804   4.753  49.554  1.00  0.00     0.052 A 
ENDROOT
BRANCH   1   9
HETATM    9  N7  UNL     1      24.532   2.866  50.476  1.00  0.00    -0.338 N 
HETATM   10  H12 UNL     1      24.367   2.805  49.424  1.00  0.00     0.167 HD
BRANCH   9  11
HETATM   11  C8  UNL     1      24.503   1.901  51.560  1.00  0.00     0.182 C 
HETATM   12  C4  UNL     1      25.542   1.562  52.264  1.00  0.00     0.153 A 
HETATM   13  N2  UNL     1      26.725   2.133  51.977  1.00  0.00    -0.236 NA
HETATM   14  C5  UNL     1      25.749   0.677  53.300  1.00  0.00     0.183 A 
HETATM   15  C3  UNL     1      27.672   1.651  52.780  1.00  0.00     0.212 A 
HETATM   16  N1  UNL     1      27.089   0.755  53.600  1.00  0.00    -0.323 N 
HETATM   17  N3  UNL     1      25.247  -0.187  54.114  1.00  0.00    -0.158 NA
HETATM   18  N4  UNL     1      23.996  -0.699  54.328  1.00  0.00    -0.310 N 
HETATM   19  C6  UNL     1      22.806  -0.955  53.432  1.00  0.00     0.165 C 
HETATM   20  H7  UNL     1      23.993  -0.917  55.358  1.00  0.00     0.182 HD
HETATM   21  C7  UNL     1      22.840   0.244  52.684  1.00  0.00     0.195 C 
HETATM   22  N5  UNL     1      22.285   1.037  51.735  1.00  0.00    -0.189 NA
HETATM   23  N6  UNL     1      23.145   1.849  51.201  1.00  0.00    -0.135 NA
BRANCH  16  24
HETATM   24  C2  UNL     1      28.019   0.122  54.547  1.00  0.00     0.127 C 
HETATM   25  C1  UNL     1      29.243  -0.426  53.890  1.00  0.00     0.027 C 
ENDBRANCH  16  24
ENDBRANCH   9  11
ENDBRANCH   1   9
TORSDOF 3
ENDMDL
