MODEL 1
REMARK VINA RESULT:      -8.2      0.000      0.000
REMARK  6 active torsions:
REMARK  status: ('A' for Active; 'I' for Inactive)
REMARK    1  A    between atoms: O1_2  and  C2_3 
REMARK    2  A    between atoms: C8_11  and  N3_12 
REMARK    3  A    between atoms: N3_12  and  C9_13 
REMARK    4  A    between atoms: C10_14  and  C11_15 
REMARK    5  A    between atoms: C16_21  and  N4_22 
REMARK       I    between atoms: N4_22  and  C17_23 
REMARK    6  A    between atoms: C17_23  and  C18_25 
ROOT
HETATM    1  C2  UNL     1      24.337   1.240  53.337  1.00  0.00     0.097 A 
HETATM    2  C3  UNL     1      23.110   1.335  52.715  1.00  0.00     0.071 A 
HETATM    3  C4  UNL     1      22.669   2.551  52.207  1.00  0.00     0.071 A 
HETATM    4  N1  UNL     1      21.466   2.599  51.608  1.00  0.00    -0.259 NA
HETATM    5  C5  UNL     1      20.985   3.763  51.094  1.00  0.00     0.142 A 
HETATM    6  C6  UNL     1      21.718   4.953  51.166  1.00  0.00     0.089 A 
HETATM    7  C7  UNL     1      21.194   6.163  50.619  1.00  0.00     0.103 C 
HETATM    8  N2  UNL     1      20.753   7.134  50.171  1.00  0.00    -0.191 NA
HETATM    9  C8  UNL     1      22.936   4.837  51.790  1.00  0.00     0.067 A 
HETATM   10  C14 UNL     1      23.464   3.684  52.323  1.00  0.00     0.023 A 
HETATM   11  C15 UNL     1      24.690   3.610  52.940  1.00  0.00     0.048 A 
HETATM   12  C16 UNL     1      25.110   2.385  53.440  1.00  0.00     0.069 A 
ENDROOT
BRANCH   9  13
HETATM   13  N3  UNL     1      23.715   6.020  51.887  1.00  0.00    -0.364 N 
HETATM   14  H6  UNL     1      23.786   6.800  52.571  1.00  0.00     0.165 HD
BRANCH  13  15
HETATM   15  C9  UNL     1      24.704   6.513  50.998  1.00  0.00     0.088 C 
HETATM   16  C10 UNL     1      25.071   5.923  49.854  1.00  0.00     0.020 C 
BRANCH  16  17
HETATM   17  C11 UNL     1      26.100   6.491  48.988  1.00  0.00     0.038 C 
HETATM   18  C12 UNL     1      27.124   5.763  48.571  1.00  0.00     0.090 C 
HETATM   19  C13 UNL     1      27.227   4.342  48.993  1.00  0.00     0.082 C 
HETATM   20  F1  UNL     1      28.052   6.334  47.770  1.00  0.00    -0.211 F 
ENDBRANCH  16  17
ENDBRANCH  13  15
ENDBRANCH   9  13
BRANCH  12  21
HETATM   21  N4  UNL     1      26.398   2.311  54.088  1.00  0.00    -0.321 N 
HETATM   22  C17 UNL     1      27.478   2.156  53.175  1.00  0.00     0.246 C 
HETATM   23  O2  UNL     1      27.406   2.081  51.925  1.00  0.00    -0.268 OA
HETATM   24  H14 UNL     1      26.550   2.363  55.119  1.00  0.00     0.169 HD
BRANCH  22  25
HETATM   25  C18 UNL     1      28.821   2.070  53.728  1.00  0.00     0.086 C 
HETATM   26  C19 UNL     1      29.440   0.910  53.701  1.00  0.00     0.223 C 
HETATM   27 CL1  UNL     1      30.147  -0.675  53.605  1.00  0.00    -0.230 Cl
ENDBRANCH  22  25
ENDBRANCH  12  21
BRANCH   1  28
HETATM   28  O1  UNL     1      24.825   0.051  53.861  1.00  0.00    -0.354 OA
HETATM   29  C1  UNL     1      25.408  -0.864  52.965  1.00  0.00     0.210 C 
ENDBRANCH   1  28
TORSDOF 6
ENDMDL
MODEL 2
REMARK VINA RESULT:      -8.2      3.616      6.324
REMARK  6 active torsions:
REMARK  status: ('A' for Active; 'I' for Inactive)
REMARK    1  A    between atoms: O1_2  and  C2_3 
REMARK    2  A    between atoms: C8_11  and  N3_12 
REMARK    3  A    between atoms: N3_12  and  C9_13 
REMARK    4  A    between atoms: C10_14  and  C11_15 
REMARK    5  A    between atoms: C16_21  and  N4_22 
REMARK       I    between atoms: N4_22  and  C17_23 
REMARK    6  A    between atoms: C17_23  and  C18_25 
ROOT
HETATM    1  C2  UNL     1      22.841   2.668  49.320  1.00  0.00     0.097 A 
HETATM    2  C3  UNL     1      21.903   1.796  49.829  1.00  0.00     0.071 A 
HETATM    3  C4  UNL     1      22.141   1.123  51.023  1.00  0.00     0.071 A 
HETATM    4  N1  UNL     1      21.199   0.281  51.485  1.00  0.00    -0.259 NA
HETATM    5  C5  UNL     1      21.381  -0.403  52.647  1.00  0.00     0.142 A 
HETATM    6  C6  UNL     1      22.546  -0.260  53.406  1.00  0.00     0.089 A 
HETATM    7  C7  UNL     1      22.715  -0.987  54.623  1.00  0.00     0.103 C 
HETATM    8  N2  UNL     1      22.834  -1.585  55.606  1.00  0.00    -0.191 NA
HETATM    9  C8  UNL     1      23.468   0.613  52.879  1.00  0.00     0.067 A 
HETATM   10  C14 UNL     1      23.330   1.326  51.712  1.00  0.00     0.023 A 
HETATM   11  C15 UNL     1      24.277   2.191  51.219  1.00  0.00     0.048 A 
HETATM   12  C16 UNL     1      24.019   2.852  50.026  1.00  0.00     0.069 A 
ENDROOT
BRANCH   9  13
HETATM   13  N3  UNL     1      24.668   0.789  53.616  1.00  0.00    -0.364 N 
HETATM   14  H6  UNL     1      25.047   1.531  54.240  1.00  0.00     0.165 HD
BRANCH  13  15
HETATM   15  C9  UNL     1      25.788  -0.076  53.719  1.00  0.00     0.088 C 
HETATM   16  C10 UNL     1      26.825  -0.093  52.873  1.00  0.00     0.020 C 
BRANCH  16  17
HETATM   17  C11 UNL     1      27.944  -1.014  53.043  1.00  0.00     0.038 C 
HETATM   18  C12 UNL     1      29.103  -0.602  53.534  1.00  0.00     0.090 C 
HETATM   19  C13 UNL     1      29.265   0.824  53.918  1.00  0.00     0.082 C 
HETATM   20  F1  UNL     1      30.111  -1.493  53.673  1.00  0.00    -0.211 F 
ENDBRANCH  16  17
ENDBRANCH  13  15
ENDBRANCH   9  13
BRANCH  12  21
HETATM   21  N4  UNL     1      25.016   3.759  49.511  1.00  0.00    -0.321 N 
HETATM   22  C17 UNL     1      24.853   5.095  49.975  1.00  0.00     0.246 C 
HETATM   23  O2  UNL     1      23.965   5.522  50.749  1.00  0.00    -0.268 OA
HETATM   24  H14 UNL     1      25.788   3.490  48.863  1.00  0.00     0.169 HD
BRANCH  22  25
HETATM   25  C18 UNL     1      25.810   6.089  49.513  1.00  0.00     0.086 C 
HETATM   26  C19 UNL     1      26.941   5.675  48.985  1.00  0.00     0.223 C 
HETATM   27 CL1  UNL     1      28.394   5.000  48.309  1.00  0.00    -0.230 Cl
ENDBRANCH  22  25
ENDBRANCH  12  21
BRANCH   1  28
HETATM   28  O1  UNL     1      22.654   3.364  48.133  1.00  0.00    -0.354 OA
HETATM   29  C1  UNL     1      21.650   4.350  48.108  1.00  0.00     0.210 C 
ENDBRANCH   1  28
TORSDOF 6
ENDMDL
MODEL 3
REMARK VINA RESULT:      -7.8      2.124      2.408
REMARK  6 active torsions:
REMARK  status: ('A' for Active; 'I' for Inactive)
REMARK    1  A    between atoms: O1_2  and  C2_3 
REMARK    2  A    between atoms: C8_11  and  N3_12 
REMARK    3  A    between atoms: N3_12  and  C9_13 
REMARK    4  A    between atoms: C10_14  and  C11_15 
REMARK    5  A    between atoms: C16_21  and  N4_22 
REMARK       I    between atoms: N4_22  and  C17_23 
REMARK    6  A    between atoms: C17_23  and  C18_25 
ROOT
HETATM    1  C2  UNL     1      23.627  -0.077  53.441  1.00  0.00     0.097 A 
HETATM    2  C3  UNL     1      22.500  -0.265  52.670  1.00  0.00     0.071 A 
HETATM    3  C4  UNL     1      22.229   0.578  51.598  1.00  0.00     0.071 A 
HETATM    4  N1  UNL     1      21.119   0.358  50.872  1.00  0.00    -0.259 NA
HETATM    5  C5  UNL     1      20.806   1.154  49.814  1.00  0.00     0.142 A 
HETATM    6  C6  UNL     1      21.620   2.227  49.438  1.00  0.00     0.089 A 
HETATM    7  C7  UNL     1      21.272   3.048  48.323  1.00  0.00     0.103 C 
HETATM    8  N2  UNL     1      20.973   3.703  47.418  1.00  0.00    -0.191 NA
HETATM    9  C8  UNL     1      22.737   2.398  50.220  1.00  0.00     0.067 A 
HETATM   10  C14 UNL     1      23.096   1.621  51.297  1.00  0.00     0.023 A 
HETATM   11  C15 UNL     1      24.225   1.826  52.054  1.00  0.00     0.048 A 
HETATM   12  C16 UNL     1      24.475   0.972  53.119  1.00  0.00     0.069 A 
ENDROOT
BRANCH   9  13
HETATM   13  N3  UNL     1      23.594   3.476  49.876  1.00  0.00    -0.364 N 
HETATM   14  H6  UNL     1      23.514   4.514  49.892  1.00  0.00     0.165 HD
BRANCH  13  15
HETATM   15  C9  UNL     1      24.918   3.438  49.368  1.00  0.00     0.088 C 
HETATM   16  C10 UNL     1      25.832   4.401  49.538  1.00  0.00     0.020 C 
BRANCH  16  17
HETATM   17  C11 UNL     1      27.179   4.292  48.984  1.00  0.00     0.038 C 
HETATM   18  C12 UNL     1      27.799   5.345  48.475  1.00  0.00     0.090 C 
HETATM   19  C13 UNL     1      27.111   6.662  48.468  1.00  0.00     0.082 C 
HETATM   20  F1  UNL     1      29.046   5.194  47.974  1.00  0.00    -0.211 F 
ENDBRANCH  16  17
ENDBRANCH  13  15
ENDBRANCH   9  13
BRANCH  12  21
HETATM   21  N4  UNL     1      25.661   1.189  53.912  1.00  0.00    -0.321 N 
HETATM   22  C17 UNL     1      26.842   0.672  53.311  1.00  0.00     0.246 C 
HETATM   23  O2  UNL     1      26.931   0.076  52.212  1.00  0.00    -0.268 OA
HETATM   24  H14 UNL     1      25.678   1.673  54.837  1.00  0.00     0.169 HD
BRANCH  22  25
HETATM   25  C18 UNL     1      28.094   0.841  54.033  1.00  0.00     0.086 C 
HETATM   26  C19 UNL     1      29.004  -0.105  53.943  1.00  0.00     0.223 C 
HETATM   27 CL1  UNL     1      30.120  -1.423  53.744  1.00  0.00    -0.230 Cl
ENDBRANCH  22  25
ENDBRANCH  12  21
BRANCH   1  28
HETATM   28  O1  UNL     1      23.945  -0.889  54.521  1.00  0.00    -0.354 OA
HETATM   29  C1  UNL     1      22.890  -1.310  55.351  1.00  0.00     0.210 C 
ENDBRANCH   1  28
TORSDOF 6
ENDMDL
MODEL 4
REMARK VINA RESULT:      -7.8      2.339      3.010
REMARK  6 active torsions:
REMARK  status: ('A' for Active; 'I' for Inactive)
REMARK    1  A    between atoms: O1_2  and  C2_3 
REMARK    2  A    between atoms: C8_11  and  N3_12 
REMARK    3  A    between atoms: N3_12  and  C9_13 
REMARK    4  A    between atoms: C10_14  and  C11_15 
REMARK    5  A    between atoms: C16_21  and  N4_22 
REMARK       I    between atoms: N4_22  and  C17_23 
REMARK    6  A    between atoms: C17_23  and  C18_25 
ROOT
HETATM    1  C2  UNL     1      24.473  -0.587  54.200  1.00  0.00     0.097 A 
HETATM    2  C3  UNL     1      23.102  -0.728  54.219  1.00  0.00     0.071 A 
HETATM    3  C4  UNL     1      22.321  -0.171  53.212  1.00  0.00     0.071 A 
HETATM    4  N1  UNL     1      20.987  -0.333  53.270  1.00  0.00    -0.259 NA
HETATM    5  C5  UNL     1      20.177   0.192  52.311  1.00  0.00     0.142 A 
HETATM    6  C6  UNL     1      20.693   0.915  51.231  1.00  0.00     0.089 A 
HETATM    7  C7  UNL     1      19.823   1.456  50.237  1.00  0.00     0.103 C 
HETATM    8  N2  UNL     1      19.103   1.886  49.440  1.00  0.00    -0.191 NA
HETATM    9  C8  UNL     1      22.061   1.044  51.231  1.00  0.00     0.067 A 
HETATM   10  C14 UNL     1      22.920   0.533  52.176  1.00  0.00     0.023 A 
HETATM   11  C15 UNL     1      24.286   0.685  52.138  1.00  0.00     0.048 A 
HETATM   12  C16 UNL     1      25.045   0.121  53.155  1.00  0.00     0.069 A 
ENDROOT
BRANCH   9  13
HETATM   13  N3  UNL     1      22.630   1.773  50.154  1.00  0.00    -0.364 N 
HETATM   14  H6  UNL     1      22.834   1.568  49.154  1.00  0.00     0.165 HD
BRANCH  13  15
HETATM   15  C9  UNL     1      23.121   3.103  50.136  1.00  0.00     0.088 C 
HETATM   16  C10 UNL     1      24.235   3.501  49.508  1.00  0.00     0.020 C 
BRANCH  16  17
HETATM   17  C11 UNL     1      24.680   4.891  49.534  1.00  0.00     0.038 C 
HETATM   18  C12 UNL     1      25.960   5.204  49.409  1.00  0.00     0.090 C 
HETATM   19  C13 UNL     1      26.961   4.120  49.238  1.00  0.00     0.082 C 
HETATM   20  F1  UNL     1      26.323   6.507  49.439  1.00  0.00    -0.211 F 
ENDBRANCH  16  17
ENDBRANCH  13  15
ENDBRANCH   9  13
BRANCH  12  21
HETATM   21  N4  UNL     1      26.479   0.282  53.113  1.00  0.00    -0.321 N 
HETATM   22  C17 UNL     1      26.925   1.501  53.696  1.00  0.00     0.246 C 
HETATM   23  O2  UNL     1      26.215   2.395  54.213  1.00  0.00    -0.268 OA
HETATM   24  H14 UNL     1      27.144  -0.410  52.703  1.00  0.00     0.169 HD
BRANCH  22  25
HETATM   25  C18 UNL     1      28.357   1.758  53.705  1.00  0.00     0.086 C 
HETATM   26  C19 UNL     1      29.180   0.736  53.626  1.00  0.00     0.223 C 
HETATM   27 CL1  UNL     1      30.159  -0.698  53.518  1.00  0.00    -0.230 Cl
ENDBRANCH  22  25
ENDBRANCH  12  21
BRANCH   1  28
HETATM   28  O1  UNL     1      25.298  -1.122  55.179  1.00  0.00    -0.354 OA
HETATM   29  C1  UNL     1      25.009  -0.803  56.519  1.00  0.00     0.210 C 
ENDBRANCH   1  28
TORSDOF 6
ENDMDL
MODEL 5
REMARK VINA RESULT:      -7.7      4.194      6.904
REMARK  6 active torsions:
REMARK  status: ('A' for Active; 'I' for Inactive)
REMARK    1  A    between atoms: O1_2  and  C2_3 
REMARK    2  A    between atoms: C8_11  and  N3_12 
REMARK    3  A    between atoms: N3_12  and  C9_13 
REMARK    4  A    between atoms: C10_14  and  C11_15 
REMARK    5  A    between atoms: C16_21  and  N4_22 
REMARK       I    between atoms: N4_22  and  C17_23 
REMARK    6  A    between atoms: C17_23  and  C18_25 
ROOT
HETATM    1  C2  UNL     1      19.903  -0.630  53.390  1.00  0.00     0.097 A 
HETATM    2  C3  UNL     1      20.692  -1.130  54.404  1.00  0.00     0.071 A 
HETATM    3  C4  UNL     1      22.068  -0.935  54.389  1.00  0.00     0.071 A 
HETATM    4  N1  UNL     1      22.800  -1.439  55.398  1.00  0.00    -0.259 NA
HETATM    5  C5  UNL     1      24.150  -1.278  55.432  1.00  0.00     0.142 A 
HETATM    6  C6  UNL     1      24.830  -0.583  54.427  1.00  0.00     0.089 A 
HETATM    7  C7  UNL     1      26.248  -0.426  54.484  1.00  0.00     0.103 C 
HETATM    8  N2  UNL     1      27.397  -0.308  54.547  1.00  0.00    -0.191 NA
HETATM    9  C8  UNL     1      24.026  -0.094  53.425  1.00  0.00     0.067 A 
HETATM   10  C14 UNL     1      22.660  -0.231  53.348  1.00  0.00     0.023 A 
HETATM   11  C15 UNL     1      21.891   0.275  52.327  1.00  0.00     0.048 A 
HETATM   12  C16 UNL     1      20.519   0.067  52.363  1.00  0.00     0.069 A 
ENDROOT
BRANCH   9  13
HETATM   13  N3  UNL     1      24.674   0.618  52.382  1.00  0.00    -0.364 N 
HETATM   14  H6  UNL     1      25.235   0.351  51.547  1.00  0.00     0.165 HD
BRANCH  13  15
HETATM   15  C9  UNL     1      24.742   2.018  52.164  1.00  0.00     0.088 C 
HETATM   16  C10 UNL     1      24.611   2.616  50.974  1.00  0.00     0.020 C 
BRANCH  16  17
HETATM   17  C11 UNL     1      24.694   4.066  50.827  1.00  0.00     0.038 C 
HETATM   18  C12 UNL     1      25.654   4.629  50.110  1.00  0.00     0.090 C 
HETATM   19  C13 UNL     1      26.664   3.769  49.443  1.00  0.00     0.082 C 
HETATM   20  F1  UNL     1      25.689   5.977  50.003  1.00  0.00    -0.211 F 
ENDBRANCH  16  17
ENDBRANCH  13  15
ENDBRANCH   9  13
BRANCH  12  21
HETATM   21  N4  UNL     1      19.713   0.600  51.290  1.00  0.00    -0.321 N 
HETATM   22  C17 UNL     1      19.340   1.959  51.488  1.00  0.00     0.246 C 
HETATM   23  O2  UNL     1      19.637   2.689  52.463  1.00  0.00    -0.268 OA
HETATM   24  H14 UNL     1      19.420   0.064  50.444  1.00  0.00     0.169 HD
BRANCH  22  25
HETATM   25  C18 UNL     1      18.526   2.590  50.461  1.00  0.00     0.086 C 
HETATM   26  C19 UNL     1      18.781   3.839  50.136  1.00  0.00     0.223 C 
HETATM   27 CL1  UNL     1      19.217   5.488  49.799  1.00  0.00    -0.230 Cl
ENDBRANCH  22  25
ENDBRANCH  12  21
BRANCH   1  28
HETATM   28  O1  UNL     1      18.525  -0.797  53.356  1.00  0.00    -0.354 OA
HETATM   29  C1  UNL     1      18.021  -2.090  53.586  1.00  0.00     0.210 C 
ENDBRANCH   1  28
TORSDOF 6
ENDMDL
MODEL 6
REMARK VINA RESULT:      -7.6      3.321      5.307
REMARK  6 active torsions:
REMARK  status: ('A' for Active; 'I' for Inactive)
REMARK    1  A    between atoms: O1_2  and  C2_3 
REMARK    2  A    between atoms: C8_11  and  N3_12 
REMARK    3  A    between atoms: N3_12  and  C9_13 
REMARK    4  A    between atoms: C10_14  and  C11_15 
REMARK    5  A    between atoms: C16_21  and  N4_22 
REMARK       I    between atoms: N4_22  and  C17_23 
REMARK    6  A    between atoms: C17_23  and  C18_25 
ROOT
HETATM    1  C2  UNL     1      26.573   1.793  52.481  1.00  0.00     0.097 A 
HETATM    2  C3  UNL     1      26.078   0.698  53.156  1.00  0.00     0.071 A 
HETATM    3  C4  UNL     1      24.709   0.457  53.201  1.00  0.00     0.071 A 
HETATM    4  N1  UNL     1      24.268  -0.623  53.870  1.00  0.00    -0.259 NA
HETATM    5  C5  UNL     1      22.940  -0.905  53.947  1.00  0.00     0.142 A 
HETATM    6  C6  UNL     1      21.982  -0.089  53.336  1.00  0.00     0.089 A 
HETATM    7  C7  UNL     1      20.593  -0.405  53.429  1.00  0.00     0.103 C 
HETATM    8  N2  UNL     1      19.471  -0.677  53.516  1.00  0.00    -0.191 NA
HETATM    9  C8  UNL     1      22.496   0.997  52.670  1.00  0.00     0.067 A 
HETATM   10  C14 UNL     1      23.828   1.322  52.565  1.00  0.00     0.023 A 
HETATM   11  C15 UNL     1      24.303   2.420  51.887  1.00  0.00     0.048 A 
HETATM   12  C16 UNL     1      25.673   2.641  51.855  1.00  0.00     0.069 A 
ENDROOT
BRANCH   9  13
HETATM   13  N3  UNL     1      21.560   1.854  52.035  1.00  0.00    -0.364 N 
HETATM   14  H6  UNL     1      20.839   2.529  52.363  1.00  0.00     0.165 HD
BRANCH  13  15
HETATM   15  C9  UNL     1      21.325   2.050  50.650  1.00  0.00     0.088 C 
HETATM   16  C10 UNL     1      21.964   1.408  49.665  1.00  0.00     0.020 C 
BRANCH  16  17
HETATM   17  C11 UNL     1      21.668   1.663  48.258  1.00  0.00     0.038 C 
HETATM   18  C12 UNL     1      22.222   2.678  47.613  1.00  0.00     0.090 C 
HETATM   19  C13 UNL     1      23.163   3.573  48.335  1.00  0.00     0.082 C 
HETATM   20  F1  UNL     1      21.916   2.874  46.310  1.00  0.00    -0.211 F 
ENDBRANCH  16  17
ENDBRANCH  13  15
ENDBRANCH   9  13
BRANCH  12  21
HETATM   21  N4  UNL     1      26.169   3.794  51.143  1.00  0.00    -0.321 N 
HETATM   22  C17 UNL     1      26.579   3.501  49.813  1.00  0.00     0.246 C 
HETATM   23  O2  UNL     1      26.547   2.385  49.242  1.00  0.00    -0.268 OA
HETATM   24  H14 UNL     1      26.231   4.757  51.540  1.00  0.00     0.169 HD
BRANCH  22  25
HETATM   25  C18 UNL     1      27.094   4.598  49.009  1.00  0.00     0.086 C 
HETATM   26  C19 UNL     1      26.329   5.651  48.817  1.00  0.00     0.223 C 
HETATM   27 CL1  UNL     1      25.222   6.979  48.638  1.00  0.00    -0.230 Cl
ENDBRANCH  22  25
ENDBRANCH  12  21
BRANCH   1  28
HETATM   28  O1  UNL     1      27.930   2.080  52.404  1.00  0.00    -0.354 OA
HETATM   29  C1  UNL     1      28.593   2.409  53.601  1.00  0.00     0.210 C 
ENDBRANCH   1  28
TORSDOF 6
ENDMDL
MODEL 7
REMARK VINA RESULT:      -7.5      3.581      6.217
REMARK  6 active torsions:
REMARK  status: ('A' for Active; 'I' for Inactive)
REMARK    1  A    between atoms: O1_2  and  C2_3 
REMARK    2  A    between atoms: C8_11  and  N3_12 
REMARK    3  A    between atoms: N3_12  and  C9_13 
REMARK    4  A    between atoms: C10_14  and  C11_15 
REMARK    5  A    between atoms: C16_21  and  N4_22 
REMARK       I    between atoms: N4_22  and  C17_23 
REMARK    6  A    between atoms: C17_23  and  C18_25 
ROOT
HETATM    1  C2  UNL     1      27.056   1.663  52.736  1.00  0.00     0.097 A 
HETATM    2  C3  UNL     1      26.795   0.836  53.807  1.00  0.00     0.071 A 
HETATM    3  C4  UNL     1      25.546   0.241  53.950  1.00  0.00     0.071 A 
HETATM    4  N1  UNL     1      25.334  -0.559  55.010  1.00  0.00    -0.259 NA
HETATM    5  C5  UNL     1      24.131  -1.165  55.199  1.00  0.00     0.142 A 
HETATM    6  C6  UNL     1      23.071  -0.985  54.304  1.00  0.00     0.089 A 
HETATM    7  C7  UNL     1      21.818  -1.633  54.522  1.00  0.00     0.103 C 
HETATM    8  N2  UNL     1      20.809  -2.165  54.716  1.00  0.00    -0.191 NA
HETATM    9  C8  UNL     1      23.353  -0.157  53.245  1.00  0.00     0.067 A 
HETATM   10  C14 UNL     1      24.550   0.477  53.011  1.00  0.00     0.023 A 
HETATM   11  C15 UNL     1      24.792   1.299  51.936  1.00  0.00     0.048 A 
HETATM   12  C16 UNL     1      26.045   1.883  51.814  1.00  0.00     0.069 A 
ENDROOT
BRANCH   9  13
HETATM   13  N3  UNL     1      22.305   0.057  52.310  1.00  0.00    -0.364 N 
HETATM   14  H6  UNL     1      22.075  -0.314  51.366  1.00  0.00     0.165 HD
BRANCH  13  15
HETATM   15  C9  UNL     1      21.178   0.911  52.412  1.00  0.00     0.088 C 
HETATM   16  C10 UNL     1      21.093   2.137  51.880  1.00  0.00     0.020 C 
BRANCH  16  17
HETATM   17  C11 UNL     1      19.897   2.960  52.027  1.00  0.00     0.038 C 
HETATM   18  C12 UNL     1      19.418   3.662  51.012  1.00  0.00     0.090 C 
HETATM   19  C13 UNL     1      20.113   3.611  49.700  1.00  0.00     0.082 C 
HETATM   20  F1  UNL     1      18.306   4.410  51.198  1.00  0.00    -0.211 F 
ENDBRANCH  16  17
ENDBRANCH  13  15
ENDBRANCH   9  13
BRANCH  12  21
HETATM   21  N4  UNL     1      26.296   2.745  50.684  1.00  0.00    -0.321 N 
HETATM   22  C17 UNL     1      25.402   3.850  50.611  1.00  0.00     0.246 C 
HETATM   23  O2  UNL     1      24.468   4.120  51.403  1.00  0.00    -0.268 OA
HETATM   24  H14 UNL     1      27.049   2.597  49.977  1.00  0.00     0.169 HD
BRANCH  22  25
HETATM   25  C18 UNL     1      25.572   4.781  49.506  1.00  0.00     0.086 C 
HETATM   26  C19 UNL     1      26.774   4.941  48.997  1.00  0.00     0.223 C 
HETATM   27 CL1  UNL     1      28.409   5.061  48.416  1.00  0.00    -0.230 Cl
ENDBRANCH  22  25
ENDBRANCH  12  21
BRANCH   1  28
HETATM   28  O1  UNL     1      28.285   2.282  52.545  1.00  0.00    -0.354 OA
HETATM   29  C1  UNL     1      29.086   2.500  53.681  1.00  0.00     0.210 C 
ENDBRANCH   1  28
TORSDOF 6
ENDMDL
MODEL 8
REMARK VINA RESULT:      -7.2      3.483      6.310
REMARK  6 active torsions:
REMARK  status: ('A' for Active; 'I' for Inactive)
REMARK    1  A    between atoms: O1_2  and  C2_3 
REMARK    2  A    between atoms: C8_11  and  N3_12 
REMARK    3  A    between atoms: N3_12  and  C9_13 
REMARK    4  A    between atoms: C10_14  and  C11_15 
REMARK    5  A    between atoms: C16_21  and  N4_22 
REMARK       I    between atoms: N4_22  and  C17_23 
REMARK    6  A    between atoms: C17_23  and  C18_25 
ROOT
HETATM    1  C2  UNL     1      21.773   5.190  50.330  1.00  0.00     0.097 A 
HETATM    2  C3  UNL     1      20.799   4.580  51.091  1.00  0.00     0.071 A 
HETATM    3  C4  UNL     1      21.070   3.395  51.766  1.00  0.00     0.071 A 
HETATM    4  N1  UNL     1      20.091   2.834  52.497  1.00  0.00    -0.259 NA
HETATM    5  C5  UNL     1      20.302   1.674  53.177  1.00  0.00     0.142 A 
HETATM    6  C6  UNL     1      21.538   1.021  53.145  1.00  0.00     0.089 A 
HETATM    7  C7  UNL     1      21.737  -0.194  53.866  1.00  0.00     0.103 C 
HETATM    8  N2  UNL     1      21.879  -1.179  54.457  1.00  0.00    -0.191 NA
HETATM    9  C8  UNL     1      22.494   1.645  52.380  1.00  0.00     0.067 A 
HETATM   10  C14 UNL     1      22.329   2.816  51.677  1.00  0.00     0.023 A 
HETATM   11  C15 UNL     1      23.314   3.408  50.923  1.00  0.00     0.048 A 
HETATM   12  C16 UNL     1      23.021   4.591  50.258  1.00  0.00     0.069 A 
ENDROOT
BRANCH   9  13
HETATM   13  N3  UNL     1      23.766   1.017  52.317  1.00  0.00    -0.364 N 
HETATM   14  H6  UNL     1      24.209   0.312  51.694  1.00  0.00     0.165 HD
BRANCH  13  15
HETATM   15  C9  UNL     1      24.891   1.193  53.163  1.00  0.00     0.088 C 
HETATM   16  C10 UNL     1      25.460   0.226  53.893  1.00  0.00     0.020 C 
BRANCH  16  17
HETATM   17  C11 UNL     1      26.619   0.482  54.743  1.00  0.00     0.038 C 
HETATM   18  C12 UNL     1      27.827   0.060  54.401  1.00  0.00     0.090 C 
HETATM   19  C13 UNL     1      28.004  -0.687  53.130  1.00  0.00     0.082 C 
HETATM   20  F1  UNL     1      28.870   0.322  55.221  1.00  0.00    -0.211 F 
ENDBRANCH  16  17
ENDBRANCH  13  15
ENDBRANCH   9  13
BRANCH  12  21
HETATM   21  N4  UNL     1      24.056   5.211  49.467  1.00  0.00    -0.321 N 
HETATM   22  C17 UNL     1      24.775   6.218  50.170  1.00  0.00     0.246 C 
HETATM   23  O2  UNL     1      24.591   6.589  51.353  1.00  0.00    -0.268 OA
HETATM   24  H14 UNL     1      24.277   4.965  48.477  1.00  0.00     0.169 HD
BRANCH  22  25
HETATM   25  C18 UNL     1      25.842   6.904  49.459  1.00  0.00     0.086 C 
HETATM   26  C19 UNL     1      26.835   6.191  48.975  1.00  0.00     0.223 C 
HETATM   27 CL1  UNL     1      28.086   5.137  48.385  1.00  0.00    -0.230 Cl
ENDBRANCH  22  25
ENDBRANCH  12  21
BRANCH   1  28
HETATM   28  O1  UNL     1      21.556   6.373  49.637  1.00  0.00    -0.354 OA
HETATM   29  C1  UNL     1      21.115   7.488  50.374  1.00  0.00     0.210 C 
ENDBRANCH   1  28
TORSDOF 6
ENDMDL
MODEL 9
REMARK VINA RESULT:      -7.1      3.831      5.764
REMARK  6 active torsions:
REMARK  status: ('A' for Active; 'I' for Inactive)
REMARK    1  A    between atoms: O1_2  and  C2_3 
REMARK    2  A    between atoms: C8_11  and  N3_12 
REMARK    3  A    between atoms: N3_12  and  C9_13 
REMARK    4  A    between atoms: C10_14  and  C11_15 
REMARK    5  A    between atoms: C16_21  and  N4_22 
REMARK       I    between atoms: N4_22  and  C17_23 
REMARK    6  A    between atoms: C17_23  and  C18_25 
ROOT
HETATM    1  C2  UNL     1      25.953  -0.036  52.906  1.00  0.00     0.097 A 
HETATM    2  C3  UNL     1      26.690   0.710  52.011  1.00  0.00     0.071 A 
HETATM    3  C4  UNL     1      26.154   1.861  51.443  1.00  0.00     0.071 A 
HETATM    4  N1  UNL     1      26.907   2.559  50.574  1.00  0.00    -0.259 NA
HETATM    5  C5  UNL     1      26.432   3.692  49.990  1.00  0.00     0.142 A 
HETATM    6  C6  UNL     1      25.149   4.176  50.266  1.00  0.00     0.089 A 
HETATM    7  C7  UNL     1      24.672   5.368  49.641  1.00  0.00     0.103 C 
HETATM    8  N2  UNL     1      24.302   6.334  49.125  1.00  0.00    -0.191 NA
HETATM    9  C8  UNL     1      24.432   3.418  51.160  1.00  0.00     0.067 A 
HETATM   10  C14 UNL     1      24.869   2.268  51.776  1.00  0.00     0.023 A 
HETATM   11  C15 UNL     1      24.119   1.538  52.667  1.00  0.00     0.048 A 
HETATM   12  C16 UNL     1      24.673   0.392  53.220  1.00  0.00     0.069 A 
ENDROOT
BRANCH   9  13
HETATM   13  N3  UNL     1      23.123   3.871  51.470  1.00  0.00    -0.364 N 
HETATM   14  H6  UNL     1      22.697   4.411  52.250  1.00  0.00     0.165 HD
BRANCH  13  15
HETATM   15  C9  UNL     1      21.921   3.700  50.736  1.00  0.00     0.088 C 
HETATM   16  C10 UNL     1      21.497   2.541  50.217  1.00  0.00     0.020 C 
BRANCH  16  17
HETATM   17  C11 UNL     1      20.247   2.442  49.472  1.00  0.00     0.038 C 
HETATM   18  C12 UNL     1      19.269   1.645  49.874  1.00  0.00     0.090 C 
HETATM   19  C13 UNL     1      19.450   0.837  51.107  1.00  0.00     0.082 C 
HETATM   20  F1  UNL     1      18.129   1.587  49.149  1.00  0.00    -0.211 F 
ENDBRANCH  16  17
ENDBRANCH  13  15
ENDBRANCH   9  13
BRANCH  12  21
HETATM   21  N4  UNL     1      23.883  -0.373  54.155  1.00  0.00    -0.321 N 
HETATM   22  C17 UNL     1      22.653  -0.832  53.608  1.00  0.00     0.246 C 
HETATM   23  O2  UNL     1      22.223  -0.636  52.447  1.00  0.00    -0.268 OA
HETATM   24  H14 UNL     1      24.162  -0.583  55.139  1.00  0.00     0.169 HD
BRANCH  22  25
HETATM   25  C18 UNL     1      21.782  -1.614  54.472  1.00  0.00     0.086 C 
HETATM   26  C19 UNL     1      20.506  -1.702  54.165  1.00  0.00     0.223 C 
HETATM   27 CL1  UNL     1      18.845  -1.739  53.651  1.00  0.00    -0.230 Cl
ENDBRANCH  22  25
ENDBRANCH  12  21
BRANCH   1  28
HETATM   28  O1  UNL     1      26.439  -1.192  53.501  1.00  0.00    -0.354 OA
HETATM   29  C1  UNL     1      26.980  -2.180  52.658  1.00  0.00     0.210 C 
ENDBRANCH   1  28
TORSDOF 6
ENDMDL
