MODEL 1
REMARK VINA RESULT:      -8.2      0.000      0.000
REMARK  6 active torsions:
REMARK  status: ('A' for Active; 'I' for Inactive)
REMARK    1  A    between atoms: C3_3  and  C4_4 
REMARK    2  A    between atoms: C3_3  and  N5_24 
REMARK    3  A    between atoms: C4_4  and  C5_5 
REMARK    4  A    between atoms: C8_9  and  N2_10 
REMARK    5  A    between atoms: N2_10  and  C9_11 
REMARK    6  A    between atoms: N5_24  and  S1_25 
ROOT
HETATM    1  C5  UNL     1      23.211   1.628  52.685  1.00  0.00     0.075 C 
HETATM    2  C6  UNL     1      23.360   3.120  52.817  1.00  0.00     0.185 C 
HETATM    3  N1  UNL     1      24.079   3.592  51.645  1.00  0.00    -0.377 N 
HETATM    4  C7  UNL     1      23.515   3.317  50.360  1.00  0.00     0.129 A 
HETATM    5  C8  UNL     1      23.688   4.155  49.274  1.00  0.00     0.160 A 
HETATM    6  N3  UNL     1      23.079   3.720  48.153  1.00  0.00    -0.222 NA
HETATM    7  C15 UNL     1      22.370   2.582  48.094  1.00  0.00     0.238 A 
HETATM    8  N4  UNL     1      22.203   1.771  49.147  1.00  0.00    -0.215 NA
HETATM    9  C16 UNL     1      22.791   2.141  50.327  1.00  0.00     0.201 A 
HETATM   10  O1  UNL     1      22.662   1.360  51.439  1.00  0.00    -0.293 OA
HETATM   11  H8  UNL     1      25.000   4.132  51.648  1.00  0.00     0.160 HD
ENDROOT
BRANCH   1  12
HETATM   12  C4  UNL     1      23.442   0.545  53.383  1.00  0.00     0.064 C 
BRANCH  12  13
HETATM   13  C3  UNL     1      23.747  -0.552  54.286  1.00  0.00     0.040 C 
HETATM   14  C2  UNL     1      23.000  -1.433  54.951  1.00  0.00    -0.001 C 
HETATM   15  C1  UNL     1      21.580  -1.155  54.643  1.00  0.00     0.038 C 
BRANCH  13  16
HETATM   16  N5  UNL     1      25.186  -0.544  54.368  1.00  0.00    -0.285 N 
HETATM   17  H14 UNL     1      25.239  -1.487  54.863  1.00  0.00     0.178 HD
BRANCH  16  18
HETATM   18  S1  UNL     1      26.611   0.348  53.993  1.00  0.00     0.227 S 
HETATM   19  C17 UNL     1      26.840   0.338  52.238  1.00  0.00     0.186 C 
HETATM   20  O2  UNL     1      26.530   1.757  54.507  1.00  0.00    -0.206 OA
HETATM   21  O3  UNL     1      27.766  -0.390  54.593  1.00  0.00    -0.206 OA
ENDBRANCH  16  18
ENDBRANCH  13  16
ENDBRANCH  12  13
ENDBRANCH   1  12
BRANCH   5  22
HETATM   22  N2  UNL     1      24.437   5.339  49.424  1.00  0.00    -0.339 N 
HETATM   23  H9  UNL     1      24.005   6.157  49.878  1.00  0.00     0.167 HD
BRANCH  22  24
HETATM   24  C9  UNL     1      25.773   5.564  49.009  1.00  0.00     0.035 A 
HETATM   25  C10 UNL     1      26.769   4.616  48.983  1.00  0.00     0.032 A 
HETATM   26  C11 UNL     1      28.070   4.816  48.579  1.00  0.00     0.046 A 
HETATM   27  C12 UNL     1      28.433   6.074  48.157  1.00  0.00     0.138 A 
HETATM   28  F1  UNL     1      29.671   6.413  47.735  1.00  0.00    -0.204 F 
HETATM   29  C13 UNL     1      27.482   7.067  48.160  1.00  0.00     0.074 A 
HETATM   30 CL1  UNL     1      27.898   8.693  47.630  1.00  0.00    -0.081 Cl
HETATM   31  C14 UNL     1      26.206   6.797  48.575  1.00  0.00     0.056 A 
ENDBRANCH  22  24
ENDBRANCH   5  22
TORSDOF 6
ENDMDL
MODEL 2
REMARK VINA RESULT:      -7.9      4.861      8.035
REMARK  6 active torsions:
REMARK  status: ('A' for Active; 'I' for Inactive)
REMARK    1  A    between atoms: C3_3  and  C4_4 
REMARK    2  A    between atoms: C3_3  and  N5_24 
REMARK    3  A    between atoms: C4_4  and  C5_5 
REMARK    4  A    between atoms: C8_9  and  N2_10 
REMARK    5  A    between atoms: N2_10  and  C9_11 
REMARK    6  A    between atoms: N5_24  and  S1_25 
ROOT
HETATM    1  C5  UNL     1      25.781   4.916  49.265  1.00  0.00     0.075 C 
HETATM    2  C6  UNL     1      26.704   3.809  49.699  1.00  0.00     0.185 C 
HETATM    3  N1  UNL     1      26.464   3.570  51.113  1.00  0.00    -0.377 N 
HETATM    4  C7  UNL     1      25.137   3.221  51.515  1.00  0.00     0.129 A 
HETATM    5  C8  UNL     1      24.876   2.407  52.602  1.00  0.00     0.160 A 
HETATM    6  N3  UNL     1      23.563   2.198  52.818  1.00  0.00    -0.222 NA
HETATM    7  C15 UNL     1      22.596   2.728  52.053  1.00  0.00     0.238 A 
HETATM    8  N4  UNL     1      22.850   3.517  51.000  1.00  0.00    -0.215 NA
HETATM    9  C16 UNL     1      24.162   3.780  50.711  1.00  0.00     0.201 A 
HETATM   10  O1  UNL     1      24.492   4.577  49.653  1.00  0.00    -0.293 OA
HETATM   11  H8  UNL     1      27.191   3.630  51.893  1.00  0.00     0.160 HD
ENDROOT
BRANCH   1  12
HETATM   12  C4  UNL     1      25.840   6.068  48.646  1.00  0.00     0.064 C 
BRANCH  12  13
HETATM   13  C3  UNL     1      25.773   7.394  48.057  1.00  0.00     0.040 C 
HETATM   14  C2  UNL     1      24.862   8.032  47.322  1.00  0.00    -0.001 C 
HETATM   15  C1  UNL     1      23.719   7.116  47.114  1.00  0.00     0.038 C 
BRANCH  13  16
HETATM   16  N5  UNL     1      27.019   8.008  48.442  1.00  0.00    -0.285 N 
HETATM   17  H14 UNL     1      27.613   7.181  48.125  1.00  0.00     0.178 HD
BRANCH  16  18
HETATM   18  S1  UNL     1      27.742   9.408  49.140  1.00  0.00     0.227 S 
HETATM   19  C17 UNL     1      29.484   9.132  49.287  1.00  0.00     0.186 C 
HETATM   20  O2  UNL     1      27.469  10.636  48.318  1.00  0.00    -0.206 OA
HETATM   21  O3  UNL     1      27.198   9.543  50.527  1.00  0.00    -0.206 OA
ENDBRANCH  16  18
ENDBRANCH  13  16
ENDBRANCH  12  13
ENDBRANCH   1  12
BRANCH   5  22
HETATM   22  N2  UNL     1      25.950   1.880  53.347  1.00  0.00    -0.339 N 
HETATM   23  H9  UNL     1      26.374   2.448  54.096  1.00  0.00     0.167 HD
BRANCH  22  24
HETATM   24  C9  UNL     1      26.557   0.610  53.191  1.00  0.00     0.035 A 
HETATM   25  C10 UNL     1      25.922  -0.526  52.745  1.00  0.00     0.032 A 
HETATM   26  C11 UNL     1      26.497  -1.767  52.584  1.00  0.00     0.046 A 
HETATM   27  C12 UNL     1      27.830  -1.910  52.891  1.00  0.00     0.138 A 
HETATM   28  F1  UNL     1      28.522  -3.065  52.781  1.00  0.00    -0.204 F 
HETATM   29  C13 UNL     1      28.521  -0.810  53.343  1.00  0.00     0.074 A 
HETATM   30 CL1  UNL     1      30.228  -0.945  53.751  1.00  0.00    -0.081 Cl
HETATM   31  C14 UNL     1      27.886   0.393  53.480  1.00  0.00     0.056 A 
ENDBRANCH  22  24
ENDBRANCH   5  22
TORSDOF 6
ENDMDL
MODEL 3
REMARK VINA RESULT:      -7.9      4.886      8.242
REMARK  6 active torsions:
REMARK  status: ('A' for Active; 'I' for Inactive)
REMARK    1  A    between atoms: C3_3  and  C4_4 
REMARK    2  A    between atoms: C3_3  and  N5_24 
REMARK    3  A    between atoms: C4_4  and  C5_5 
REMARK    4  A    between atoms: C8_9  and  N2_10 
REMARK    5  A    between atoms: N2_10  and  C9_11 
REMARK    6  A    between atoms: N5_24  and  S1_25 
ROOT
HETATM    1  C5  UNL     1      26.632   5.219  48.961  1.00  0.00     0.075 C 
HETATM    2  C6  UNL     1      26.696   3.907  49.697  1.00  0.00     0.185 C 
HETATM    3  N1  UNL     1      25.845   4.022  50.870  1.00  0.00    -0.377 N 
HETATM    4  C7  UNL     1      24.467   4.346  50.665  1.00  0.00     0.129 A 
HETATM    5  C8  UNL     1      23.464   3.907  51.509  1.00  0.00     0.160 A 
HETATM    6  N3  UNL     1      22.233   4.320  51.146  1.00  0.00    -0.222 NA
HETATM    7  C15 UNL     1      22.000   5.086  50.068  1.00  0.00     0.238 A 
HETATM    8  N4  UNL     1      22.974   5.510  49.252  1.00  0.00    -0.215 NA
HETATM    9  C16 UNL     1      24.256   5.134  49.550  1.00  0.00     0.201 A 
HETATM   10  O1  UNL     1      25.296   5.533  48.760  1.00  0.00    -0.293 OA
HETATM   11  H8  UNL     1      26.150   3.887  51.883  1.00  0.00     0.160 HD
ENDROOT
BRANCH   1  12
HETATM   12  C4  UNL     1      27.446   6.119  48.471  1.00  0.00     0.064 C 
BRANCH  12  13
HETATM   13  C3  UNL     1      28.476   7.037  48.013  1.00  0.00     0.040 C 
HETATM   14  C2  UNL     1      28.499   8.023  47.116  1.00  0.00    -0.001 C 
HETATM   15  C1  UNL     1      27.151   8.126  46.514  1.00  0.00     0.038 C 
BRANCH  13  16
HETATM   16  N5  UNL     1      29.636   6.670  48.785  1.00  0.00    -0.285 N 
HETATM   17  H14 UNL     1      29.270   7.108  49.686  1.00  0.00     0.178 HD
BRANCH  16  18
HETATM   18  S1  UNL     1      31.171   5.889  48.734  1.00  0.00     0.227 S 
HETATM   19  C17 UNL     1      32.332   6.974  47.955  1.00  0.00     0.186 C 
HETATM   20  O2  UNL     1      31.642   5.510  50.109  1.00  0.00    -0.206 OA
HETATM   21  O3  UNL     1      31.027   4.689  47.852  1.00  0.00    -0.206 OA
ENDBRANCH  16  18
ENDBRANCH  13  16
ENDBRANCH  12  13
ENDBRANCH   1  12
BRANCH   5  22
HETATM   22  N2  UNL     1      23.792   3.095  52.613  1.00  0.00    -0.339 N 
HETATM   23  H9  UNL     1      24.410   3.468  53.349  1.00  0.00     0.167 HD
BRANCH  22  24
HETATM   24  C9  UNL     1      23.366   1.766  52.853  1.00  0.00     0.035 A 
HETATM   25  C10 UNL     1      24.194   0.698  53.110  1.00  0.00     0.032 A 
HETATM   26  C11 UNL     1      23.797  -0.598  53.350  1.00  0.00     0.046 A 
HETATM   27  C12 UNL     1      22.450  -0.878  53.337  1.00  0.00     0.138 A 
HETATM   28  F1  UNL     1      21.919  -2.100  53.555  1.00  0.00    -0.204 F 
HETATM   29  C13 UNL     1      21.570   0.148  53.085  1.00  0.00     0.074 A 
HETATM   30 CL1  UNL     1      19.837  -0.160  53.056  1.00  0.00    -0.081 Cl
HETATM   31  C14 UNL     1      22.034   1.414  52.855  1.00  0.00     0.056 A 
ENDBRANCH  22  24
ENDBRANCH   5  22
TORSDOF 6
ENDMDL
MODEL 4
REMARK VINA RESULT:      -7.7      3.136      3.908
REMARK  6 active torsions:
REMARK  status: ('A' for Active; 'I' for Inactive)
REMARK    1  A    between atoms: C3_3  and  C4_4 
REMARK    2  A    between atoms: C3_3  and  N5_24 
REMARK    3  A    between atoms: C4_4  and  C5_5 
REMARK    4  A    between atoms: C8_9  and  N2_10 
REMARK    5  A    between atoms: N2_10  and  C9_11 
REMARK    6  A    between atoms: N5_24  and  S1_25 
ROOT
HETATM    1  C5  UNL     1      23.293   1.681  52.461  1.00  0.00     0.075 C 
HETATM    2  C6  UNL     1      22.304   2.803  52.292  1.00  0.00     0.185 C 
HETATM    3  N1  UNL     1      23.045   4.052  52.352  1.00  0.00    -0.377 N 
HETATM    4  C7  UNL     1      24.100   4.248  51.406  1.00  0.00     0.129 A 
HETATM    5  C8  UNL     1      24.453   5.497  50.930  1.00  0.00     0.160 A 
HETATM    6  N3  UNL     1      25.471   5.471  50.047  1.00  0.00    -0.222 NA
HETATM    7  C15 UNL     1      26.086   4.341  49.665  1.00  0.00     0.238 A 
HETATM    8  N4  UNL     1      25.743   3.131  50.128  1.00  0.00    -0.215 NA
HETATM    9  C16 UNL     1      24.716   3.069  51.030  1.00  0.00     0.201 A 
HETATM   10  O1  UNL     1      24.316   1.869  51.543  1.00  0.00    -0.293 OA
HETATM   11  H8  UNL     1      22.879   4.849  53.042  1.00  0.00     0.160 HD
ENDROOT
BRANCH   1  12
HETATM   12  C4  UNL     1      23.462   0.613  53.200  1.00  0.00     0.064 C 
BRANCH  12  13
HETATM   13  C3  UNL     1      23.626  -0.468  54.156  1.00  0.00     0.040 C 
HETATM   14  C2  UNL     1      22.774  -1.248  54.821  1.00  0.00    -0.001 C 
HETATM   15  C1  UNL     1      21.399  -0.853  54.442  1.00  0.00     0.038 C 
BRANCH  13  16
HETATM   16  N5  UNL     1      25.055  -0.591  54.299  1.00  0.00    -0.285 N 
HETATM   17  H14 UNL     1      25.013  -1.604  54.627  1.00  0.00     0.178 HD
BRANCH  16  18
HETATM   18  S1  UNL     1      26.560   0.234  54.145  1.00  0.00     0.227 S 
HETATM   19  C17 UNL     1      27.136   0.054  52.481  1.00  0.00     0.186 C 
HETATM   20  O2  UNL     1      26.431   1.687  54.506  1.00  0.00    -0.206 OA
HETATM   21  O3  UNL     1      27.542  -0.467  55.030  1.00  0.00    -0.206 OA
ENDBRANCH  16  18
ENDBRANCH  13  16
ENDBRANCH  12  13
ENDBRANCH   1  12
BRANCH   5  22
HETATM   22  N2  UNL     1      23.747   6.633  51.373  1.00  0.00    -0.339 N 
HETATM   23  H9  UNL     1      23.874   6.962  52.342  1.00  0.00     0.167 HD
BRANCH  22  24
HETATM   24  C9  UNL     1      22.836   7.419  50.625  1.00  0.00     0.035 A 
HETATM   25  C10 UNL     1      21.465   7.353  50.716  1.00  0.00     0.032 A 
HETATM   26  C11 UNL     1      20.567   8.112  50.001  1.00  0.00     0.046 A 
HETATM   27  C12 UNL     1      21.062   9.031  49.104  1.00  0.00     0.138 A 
HETATM   28  F1  UNL     1      20.299   9.840  48.337  1.00  0.00    -0.204 F 
HETATM   29  C13 UNL     1      22.425   9.145  48.967  1.00  0.00     0.074 A 
HETATM   30 CL1  UNL     1      23.106  10.305  47.831  1.00  0.00    -0.081 Cl
HETATM   31  C14 UNL     1      23.260   8.358  49.711  1.00  0.00     0.056 A 
ENDBRANCH  22  24
ENDBRANCH   5  22
TORSDOF 6
ENDMDL
MODEL 5
REMARK VINA RESULT:      -7.7      2.187      2.909
REMARK  6 active torsions:
REMARK  status: ('A' for Active; 'I' for Inactive)
REMARK    1  A    between atoms: C3_3  and  C4_4 
REMARK    2  A    between atoms: C3_3  and  N5_24 
REMARK    3  A    between atoms: C4_4  and  C5_5 
REMARK    4  A    between atoms: C8_9  and  N2_10 
REMARK    5  A    between atoms: N2_10  and  C9_11 
REMARK    6  A    between atoms: N5_24  and  S1_25 
ROOT
HETATM    1  C5  UNL     1      24.862   2.781  51.583  1.00  0.00     0.075 C 
HETATM    2  C6  UNL     1      26.196   3.093  50.959  1.00  0.00     0.185 C 
HETATM    3  N1  UNL     1      25.953   3.964  49.820  1.00  0.00    -0.377 N 
HETATM    4  C7  UNL     1      25.277   5.201  50.059  1.00  0.00     0.129 A 
HETATM    5  C8  UNL     1      25.506   6.335  49.302  1.00  0.00     0.160 A 
HETATM    6  N3  UNL     1      24.770   7.397  49.683  1.00  0.00    -0.222 NA
HETATM    7  C15 UNL     1      23.896   7.362  50.701  1.00  0.00     0.238 A 
HETATM    8  N4  UNL     1      23.675   6.262  51.434  1.00  0.00    -0.215 NA
HETATM    9  C16 UNL     1      24.384   5.137  51.111  1.00  0.00     0.201 A 
HETATM   10  O1  UNL     1      24.206   3.981  51.816  1.00  0.00    -0.293 OA
HETATM   11  H8  UNL     1      26.232   3.769  48.809  1.00  0.00     0.160 HD
ENDROOT
BRANCH   1  12
HETATM   12  C4  UNL     1      24.165   1.738  51.957  1.00  0.00     0.064 C 
BRANCH  12  13
HETATM   13  C3  UNL     1      23.436   0.621  52.533  1.00  0.00     0.040 C 
HETATM   14  C2  UNL     1      22.263   0.048  52.264  1.00  0.00    -0.001 C 
HETATM   15  C1  UNL     1      21.650   0.772  51.128  1.00  0.00     0.038 C 
BRANCH  13  16
HETATM   16  N5  UNL     1      24.296   0.156  53.593  1.00  0.00    -0.285 N 
HETATM   17  H14 UNL     1      23.499  -0.277  54.153  1.00  0.00     0.178 HD
BRANCH  16  18
HETATM   18  S1  UNL     1      25.922   0.090  54.159  1.00  0.00     0.227 S 
HETATM   19  C17 UNL     1      26.935  -0.610  52.887  1.00  0.00     0.186 C 
HETATM   20  O2  UNL     1      26.426   1.452  54.546  1.00  0.00    -0.206 OA
HETATM   21  O3  UNL     1      25.949  -0.856  55.317  1.00  0.00    -0.206 OA
ENDBRANCH  16  18
ENDBRANCH  13  16
ENDBRANCH  12  13
ENDBRANCH   1  12
BRANCH   5  22
HETATM   22  N2  UNL     1      26.451   6.291  48.257  1.00  0.00    -0.339 N 
HETATM   23  H9  UNL     1      26.140   6.055  47.303  1.00  0.00     0.167 HD
BRANCH  22  24
HETATM   24  C9  UNL     1      27.842   6.539  48.352  1.00  0.00     0.035 A 
HETATM   25  C10 UNL     1      28.830   5.590  48.229  1.00  0.00     0.032 A 
HETATM   26  C11 UNL     1      30.186   5.813  48.314  1.00  0.00     0.046 A 
HETATM   27  C12 UNL     1      30.619   7.099  48.543  1.00  0.00     0.138 A 
HETATM   28  F1  UNL     1      31.916   7.463  48.650  1.00  0.00    -0.204 F 
HETATM   29  C13 UNL     1      29.679   8.094  48.676  1.00  0.00     0.074 A 
HETATM   30 CL1  UNL     1      30.185   9.754  48.972  1.00  0.00    -0.081 Cl
HETATM   31  C14 UNL     1      28.347   7.800  48.580  1.00  0.00     0.056 A 
ENDBRANCH  22  24
ENDBRANCH   5  22
TORSDOF 6
ENDMDL
MODEL 6
REMARK VINA RESULT:      -7.6      5.940      9.206
REMARK  6 active torsions:
REMARK  status: ('A' for Active; 'I' for Inactive)
REMARK    1  A    between atoms: C3_3  and  C4_4 
REMARK    2  A    between atoms: C3_3  and  N5_24 
REMARK    3  A    between atoms: C4_4  and  C5_5 
REMARK    4  A    between atoms: C8_9  and  N2_10 
REMARK    5  A    between atoms: N2_10  and  C9_11 
REMARK    6  A    between atoms: N5_24  and  S1_25 
ROOT
HETATM    1  C5  UNL     1      27.567   7.749  48.980  1.00  0.00     0.075 C 
HETATM    2  C6  UNL     1      27.396   6.446  48.246  1.00  0.00     0.185 C 
HETATM    3  N1  UNL     1      26.936   5.459  49.209  1.00  0.00    -0.377 N 
HETATM    4  C7  UNL     1      25.722   5.730  49.914  1.00  0.00     0.129 A 
HETATM    5  C8  UNL     1      24.869   4.731  50.345  1.00  0.00     0.160 A 
HETATM    6  N3  UNL     1      23.780   5.191  50.991  1.00  0.00    -0.222 NA
HETATM    7  C15 UNL     1      23.542   6.496  51.199  1.00  0.00     0.238 A 
HETATM    8  N4  UNL     1      24.370   7.463  50.782  1.00  0.00    -0.215 NA
HETATM    9  C16 UNL     1      25.502   7.080  50.115  1.00  0.00     0.201 A 
HETATM   10  O1  UNL     1      26.389   8.014  49.663  1.00  0.00    -0.293 OA
HETATM   11  H8  UNL     1      27.421   4.538  49.446  1.00  0.00     0.160 HD
ENDROOT
BRANCH   1  12
HETATM   12  C4  UNL     1      28.476   8.674  49.153  1.00  0.00     0.064 C 
BRANCH  12  13
HETATM   13  C3  UNL     1      29.602   9.574  49.341  1.00  0.00     0.040 C 
HETATM   14  C2  UNL     1      30.921   9.397  49.418  1.00  0.00    -0.001 C 
HETATM   15  C1  UNL     1      31.198   7.951  49.273  1.00  0.00     0.038 C 
BRANCH  13  16
HETATM   16  N5  UNL     1      28.991  10.875  49.446  1.00  0.00    -0.285 N 
HETATM   17  H14 UNL     1      28.477  10.645  50.351  1.00  0.00     0.178 HD
BRANCH  16  18
HETATM   18  S1  UNL     1      28.840  12.423  48.703  1.00  0.00     0.227 S 
HETATM   19  C17 UNL     1      28.189  12.206  47.072  1.00  0.00     0.186 C 
HETATM   20  O2  UNL     1      27.958  13.335  49.507  1.00  0.00    -0.206 OA
HETATM   21  O3  UNL     1      30.221  12.980  48.557  1.00  0.00    -0.206 OA
ENDBRANCH  16  18
ENDBRANCH  13  16
ENDBRANCH  12  13
ENDBRANCH   1  12
BRANCH   5  22
HETATM   22  N2  UNL     1      25.186   3.385  50.075  1.00  0.00    -0.339 N 
HETATM   23  H9  UNL     1      25.278   3.073  49.097  1.00  0.00     0.167 HD
BRANCH  22  24
HETATM   24  C9  UNL     1      25.403   2.351  51.019  1.00  0.00     0.035 A 
HETATM   25  C10 UNL     1      26.632   1.863  51.398  1.00  0.00     0.032 A 
HETATM   26  C11 UNL     1      26.861   0.864  52.316  1.00  0.00     0.046 A 
HETATM   27  C12 UNL     1      25.774   0.281  52.927  1.00  0.00     0.138 A 
HETATM   28  F1  UNL     1      25.850  -0.707  53.845  1.00  0.00    -0.204 F 
HETATM   29  C13 UNL     1      24.517   0.726  52.591  1.00  0.00     0.074 A 
HETATM   30 CL1  UNL     1      23.096   0.011  53.345  1.00  0.00    -0.081 Cl
HETATM   31  C14 UNL     1      24.363   1.725  51.669  1.00  0.00     0.056 A 
ENDBRANCH  22  24
ENDBRANCH   5  22
TORSDOF 6
ENDMDL
MODEL 7
REMARK VINA RESULT:      -7.5      5.849      9.042
REMARK  6 active torsions:
REMARK  status: ('A' for Active; 'I' for Inactive)
REMARK    1  A    between atoms: C3_3  and  C4_4 
REMARK    2  A    between atoms: C3_3  and  N5_24 
REMARK    3  A    between atoms: C4_4  and  C5_5 
REMARK    4  A    between atoms: C8_9  and  N2_10 
REMARK    5  A    between atoms: N2_10  and  C9_11 
REMARK    6  A    between atoms: N5_24  and  S1_25 
ROOT
HETATM    1  C5  UNL     1      23.669   2.359  52.218  1.00  0.00     0.075 C 
HETATM    2  C6  UNL     1      22.260   2.882  52.295  1.00  0.00     0.185 C 
HETATM    3  N1  UNL     1      21.365   1.761  52.054  1.00  0.00    -0.377 N 
HETATM    4  C7  UNL     1      21.464   0.630  52.923  1.00  0.00     0.129 A 
HETATM    5  C8  UNL     1      20.380  -0.172  53.231  1.00  0.00     0.160 A 
HETATM    6  N3  UNL     1      20.679  -1.188  54.064  1.00  0.00    -0.222 NA
HETATM    7  C15 UNL     1      21.910  -1.404  54.551  1.00  0.00     0.238 A 
HETATM    8  N4  UNL     1      22.960  -0.627  54.251  1.00  0.00    -0.215 NA
HETATM    9  C16 UNL     1      22.741   0.430  53.409  1.00  0.00     0.201 A 
HETATM   10  O1  UNL     1      23.767   1.262  53.061  1.00  0.00    -0.293 OA
HETATM   11  H8  UNL     1      20.630   1.699  51.283  1.00  0.00     0.160 HD
ENDROOT
BRANCH   1  12
HETATM   12  C4  UNL     1      24.793   2.632  51.605  1.00  0.00     0.064 C 
BRANCH  12  13
HETATM   13  C3  UNL     1      26.080   2.768  50.944  1.00  0.00     0.040 C 
HETATM   14  C2  UNL     1      26.525   3.522  49.938  1.00  0.00    -0.001 C 
HETATM   15  C1  UNL     1      25.401   4.357  49.460  1.00  0.00     0.038 C 
BRANCH  13  16
HETATM   16  N5  UNL     1      26.928   1.832  51.639  1.00  0.00    -0.285 N 
HETATM   17  H14 UNL     1      27.109   1.236  50.774  1.00  0.00     0.178 HD
BRANCH  16  18
HETATM   18  S1  UNL     1      27.622   1.426  53.163  1.00  0.00     0.227 S 
HETATM   19  C17 UNL     1      27.032  -0.171  53.645  1.00  0.00     0.186 C 
HETATM   20  O2  UNL     1      29.123   1.440  53.105  1.00  0.00    -0.206 OA
HETATM   21  O3  UNL     1      27.102   2.410  54.162  1.00  0.00    -0.206 OA
ENDBRANCH  16  18
ENDBRANCH  13  16
ENDBRANCH  12  13
ENDBRANCH   1  12
BRANCH   5  22
HETATM   22  N2  UNL     1      19.116   0.132  52.687  1.00  0.00    -0.339 N 
HETATM   23  H9  UNL     1      18.937   1.078  52.320  1.00  0.00     0.167 HD
BRANCH  22  24
HETATM   24  C9  UNL     1      18.002  -0.736  52.576  1.00  0.00     0.035 A 
HETATM   25  C10 UNL     1      16.885  -0.504  51.807  1.00  0.00     0.032 A 
HETATM   26  C11 UNL     1      15.797  -1.338  51.685  1.00  0.00     0.046 A 
HETATM   27  C12 UNL     1      15.801  -2.520  52.388  1.00  0.00     0.138 A 
HETATM   28  F1  UNL     1      14.804  -3.431  52.362  1.00  0.00    -0.204 F 
HETATM   29  C13 UNL     1      16.891  -2.810  53.175  1.00  0.00     0.074 A 
HETATM   30 CL1  UNL     1      16.942  -4.310  54.095  1.00  0.00    -0.081 Cl
HETATM   31  C14 UNL     1      17.939  -1.935  53.250  1.00  0.00     0.056 A 
ENDBRANCH  22  24
ENDBRANCH   5  22
TORSDOF 6
ENDMDL
MODEL 8
REMARK VINA RESULT:      -7.4      5.044      6.784
REMARK  6 active torsions:
REMARK  status: ('A' for Active; 'I' for Inactive)
REMARK    1  A    between atoms: C3_3  and  C4_4 
REMARK    2  A    between atoms: C3_3  and  N5_24 
REMARK    3  A    between atoms: C4_4  and  C5_5 
REMARK    4  A    between atoms: C8_9  and  N2_10 
REMARK    5  A    between atoms: N2_10  and  C9_11 
REMARK    6  A    between atoms: N5_24  and  S1_25 
ROOT
HETATM    1  C5  UNL     1      20.568   0.841  52.542  1.00  0.00     0.075 C 
HETATM    2  C6  UNL     1      21.892   0.156  52.754  1.00  0.00     0.185 C 
HETATM    3  N1  UNL     1      22.841   0.742  51.821  1.00  0.00    -0.377 N 
HETATM    4  C7  UNL     1      23.059   2.154  51.891  1.00  0.00     0.129 A 
HETATM    5  C8  UNL     1      24.269   2.740  51.568  1.00  0.00     0.160 A 
HETATM    6  N3  UNL     1      24.272   4.081  51.696  1.00  0.00    -0.222 NA
HETATM    7  C15 UNL     1      23.203   4.785  52.100  1.00  0.00     0.238 A 
HETATM    8  N4  UNL     1      22.031   4.217  52.413  1.00  0.00    -0.215 NA
HETATM    9  C16 UNL     1      21.943   2.855  52.309  1.00  0.00     0.201 A 
HETATM   10  O1  UNL     1      20.778   2.211  52.610  1.00  0.00    -0.293 OA
HETATM   11  H8  UNL     1      23.400   0.217  51.080  1.00  0.00     0.160 HD
ENDROOT
BRANCH   1  12
HETATM   12  C4  UNL     1      19.317   0.528  52.319  1.00  0.00     0.064 C 
BRANCH  12  13
HETATM   13  C3  UNL     1      17.987   0.031  52.009  1.00  0.00     0.040 C 
HETATM   14  C2  UNL     1      17.280  -1.025  52.413  1.00  0.00    -0.001 C 
HETATM   15  C1  UNL     1      18.106  -1.790  53.373  1.00  0.00     0.038 C 
BRANCH  13  16
HETATM   16  N5  UNL     1      17.470   0.988  51.064  1.00  0.00    -0.285 N 
HETATM   17  H14 UNL     1      17.158   0.245  50.366  1.00  0.00     0.178 HD
BRANCH  16  18
HETATM   18  S1  UNL     1      17.239   2.665  50.744  1.00  0.00     0.227 S 
HETATM   19  C17 UNL     1      18.380   3.165  49.486  1.00  0.00     0.186 C 
HETATM   20  O2  UNL     1      15.827   2.955  50.321  1.00  0.00    -0.206 OA
HETATM   21  O3  UNL     1      17.603   3.408  51.991  1.00  0.00    -0.206 OA
ENDBRANCH  16  18
ENDBRANCH  13  16
ENDBRANCH  12  13
ENDBRANCH   1  12
BRANCH   5  22
HETATM   22  N2  UNL     1      25.346   1.926  51.164  1.00  0.00    -0.339 N 
HETATM   23  H9  UNL     1      25.479   1.722  50.163  1.00  0.00     0.167 HD
BRANCH  22  24
HETATM   24  C9  UNL     1      26.318   1.319  51.997  1.00  0.00     0.035 A 
HETATM   25  C10 UNL     1      27.153   1.986  52.863  1.00  0.00     0.032 A 
HETATM   26  C11 UNL     1      28.099   1.412  53.683  1.00  0.00     0.046 A 
HETATM   27  C12 UNL     1      28.242   0.044  53.651  1.00  0.00     0.138 A 
HETATM   28  F1  UNL     1      29.127  -0.651  54.398  1.00  0.00    -0.204 F 
HETATM   29  C13 UNL     1      27.436  -0.680  52.805  1.00  0.00     0.074 A 
HETATM   30 CL1  UNL     1      27.583  -2.432  52.727  1.00  0.00    -0.081 Cl
HETATM   31  C14 UNL     1      26.516  -0.044  52.017  1.00  0.00     0.056 A 
ENDBRANCH  22  24
ENDBRANCH   5  22
TORSDOF 6
ENDMDL
MODEL 9
REMARK VINA RESULT:      -7.4      4.975      8.466
REMARK  6 active torsions:
REMARK  status: ('A' for Active; 'I' for Inactive)
REMARK    1  A    between atoms: C3_3  and  C4_4 
REMARK    2  A    between atoms: C3_3  and  N5_24 
REMARK    3  A    between atoms: C4_4  and  C5_5 
REMARK    4  A    between atoms: C8_9  and  N2_10 
REMARK    5  A    between atoms: N2_10  and  C9_11 
REMARK    6  A    between atoms: N5_24  and  S1_25 
ROOT
HETATM    1  C5  UNL     1      28.435   7.195  48.577  1.00  0.00     0.075 C 
HETATM    2  C6  UNL     1      28.152   5.799  48.090  1.00  0.00     0.185 C 
HETATM    3  N1  UNL     1      27.478   5.090  49.165  1.00  0.00    -0.377 N 
HETATM    4  C7  UNL     1      26.255   5.640  49.664  1.00  0.00     0.129 A 
HETATM    5  C8  UNL     1      25.239   4.857  50.177  1.00  0.00     0.160 A 
HETATM    6  N3  UNL     1      24.171   5.563  50.596  1.00  0.00    -0.222 NA
HETATM    7  C15 UNL     1      24.097   6.901  50.524  1.00  0.00     0.238 A 
HETATM    8  N4  UNL     1      25.083   7.660  50.026  1.00  0.00    -0.215 NA
HETATM    9  C16 UNL     1      26.206   7.019  49.577  1.00  0.00     0.201 A 
HETATM   10  O1  UNL     1      27.250   7.731  49.059  1.00  0.00    -0.293 OA
HETATM   11  H8  UNL     1      27.809   4.187  49.627  1.00  0.00     0.160 HD
ENDROOT
BRANCH   1  12
HETATM   12  C4  UNL     1      29.444   8.024  48.673  1.00  0.00     0.064 C 
BRANCH  12  13
HETATM   13  C3  UNL     1      30.665   8.809  48.739  1.00  0.00     0.040 C 
HETATM   14  C2  UNL     1      30.918  10.109  48.885  1.00  0.00    -0.001 C 
HETATM   15  C1  UNL     1      29.624  10.818  48.991  1.00  0.00     0.038 C 
BRANCH  13  16
HETATM   16  N5  UNL     1      31.715   7.830  48.605  1.00  0.00    -0.285 N 
HETATM   17  H14 UNL     1      32.457   8.549  48.344  1.00  0.00     0.178 HD
BRANCH  16  18
HETATM   18  S1  UNL     1      32.095   6.152  48.706  1.00  0.00     0.227 S 
HETATM   19  C17 UNL     1      33.856   5.973  48.746  1.00  0.00     0.186 C 
HETATM   20  O2  UNL     1      31.472   5.519  49.918  1.00  0.00    -0.206 OA
HETATM   21  O3  UNL     1      31.614   5.513  47.442  1.00  0.00    -0.206 OA
ENDBRANCH  16  18
ENDBRANCH  13  16
ENDBRANCH  12  13
ENDBRANCH   1  12
BRANCH   5  22
HETATM   22  N2  UNL     1      25.390   3.456  50.206  1.00  0.00    -0.339 N 
HETATM   23  H9  UNL     1      25.335   2.922  49.326  1.00  0.00     0.167 HD
BRANCH  22  24
HETATM   24  C9  UNL     1      25.618   2.644  51.345  1.00  0.00     0.035 A 
HETATM   25  C10 UNL     1      24.639   2.050  52.108  1.00  0.00     0.032 A 
HETATM   26  C11 UNL     1      24.843   1.255  53.213  1.00  0.00     0.046 A 
HETATM   27  C12 UNL     1      26.138   1.018  53.614  1.00  0.00     0.138 A 
HETATM   28  F1  UNL     1      26.484   0.260  54.677  1.00  0.00    -0.204 F 
HETATM   29  C13 UNL     1      27.161   1.585  52.892  1.00  0.00     0.074 A 
HETATM   30 CL1  UNL     1      28.834   1.311  53.366  1.00  0.00    -0.081 Cl
HETATM   31  C14 UNL     1      26.887   2.364  51.802  1.00  0.00     0.056 A 
ENDBRANCH  22  24
ENDBRANCH   5  22
TORSDOF 6
ENDMDL
