MODEL 1
REMARK VINA RESULT:      -8.8      0.000      0.000
REMARK  1 active torsions:
REMARK  status: ('A' for Active; 'I' for Inactive)
REMARK    1  A    between atoms: N2_10  and  C7_11 
ROOT
HETATM    1 CL1  UNL     1      24.912  -0.895  55.049  1.00  0.00    -0.084 Cl
HETATM    2  C1  UNL     1      23.877  -0.205  53.777  1.00  0.00     0.034 C 
HETATM    3  C2  UNL     1      24.671   0.605  53.121  1.00  0.00     0.023 C 
HETATM    4  C3  UNL     1      24.299   1.414  51.978  1.00  0.00     0.001 C 
HETATM    5  C4  UNL     1      23.600   1.943  51.036  1.00  0.00     0.011 C 
HETATM    6  C5  UNL     1      23.135   2.719  49.891  1.00  0.00     0.201 C 
HETATM    7  S1  UNL     1      21.928   1.721  48.975  1.00  0.00    -0.081 SA
HETATM    8  C6  UNL     1      20.476   2.502  49.664  1.00  0.00     0.097 C 
HETATM    9  N1  UNL     1      20.948   3.330  50.510  1.00  0.00    -0.168 NA
HETATM   10  N2  UNL     1      22.214   3.787  50.308  1.00  0.00    -0.251 N 
HETATM   11  C13 UNL     1      19.040   2.225  49.294  1.00  0.00     0.098 C 
HETATM   12  C14 UNL     1      18.377   1.245  50.150  1.00  0.00     0.019 C 
HETATM   13  C15 UNL     1      18.244   0.326  51.138  1.00  0.00     0.098 C 
HETATM   14  O1  UNL     1      16.987  -0.273  51.344  1.00  0.00    -0.346 OA
HETATM   15  C16 UNL     1      16.523  -0.468  52.663  1.00  0.00     0.202 C 
HETATM   16  C17 UNL     1      17.456  -1.465  53.336  1.00  0.00     0.202 C 
HETATM   17  O2  UNL     1      18.805  -1.136  52.991  1.00  0.00    -0.346 OA
HETATM   18  C18 UNL     1      19.170  -0.204  52.075  1.00  0.00     0.101 C 
HETATM   19  C19 UNL     1      20.419  -0.175  52.499  1.00  0.00     0.040 C 
HETATM   20  C20 UNL     1      21.368  -0.692  53.433  1.00  0.00     0.005 C 
HETATM   21  C21 UNL     1      22.550  -0.739  53.913  1.00  0.00     0.024 C 
ENDROOT
BRANCH  10  22
HETATM   22  C7  UNL     1      22.709   5.140  50.464  1.00  0.00     0.054 A 
HETATM   23  C8  UNL     1      24.055   5.392  50.620  1.00  0.00     0.031 A 
HETATM   24  C9  UNL     1      24.652   6.627  50.773  1.00  0.00     0.002 A 
HETATM   25  C10 UNL     1      23.758   7.706  50.763  1.00  0.00     0.000 A 
HETATM   26  C11 UNL     1      22.422   7.507  50.611  1.00  0.00     0.002 A 
HETATM   27  C12 UNL     1      21.895   6.241  50.464  1.00  0.00     0.031 A 
ENDBRANCH  10  22
TORSDOF 1
ENDMDL
MODEL 2
REMARK VINA RESULT:      -8.6      3.565      5.890
REMARK  1 active torsions:
REMARK  status: ('A' for Active; 'I' for Inactive)
REMARK    1  A    between atoms: N2_10  and  C7_11 
ROOT
HETATM    1 CL1  UNL     1      18.670  -0.338  52.597  1.00  0.00    -0.084 Cl
HETATM    2  C1  UNL     1      20.077   0.651  52.141  1.00  0.00     0.034 C 
HETATM    3  C2  UNL     1      19.561   1.658  51.481  1.00  0.00     0.023 C 
HETATM    4  C3  UNL     1      20.303   2.756  50.895  1.00  0.00     0.001 C 
HETATM    5  C4  UNL     1      21.282   3.512  50.540  1.00  0.00     0.011 C 
HETATM    6  C5  UNL     1      22.111   4.577  49.984  1.00  0.00     0.201 C 
HETATM    7  S1  UNL     1      23.498   4.872  51.116  1.00  0.00    -0.081 SA
HETATM    8  C6  UNL     1      24.698   3.919  50.197  1.00  0.00     0.097 C 
HETATM    9  N1  UNL     1      24.024   3.429  49.233  1.00  0.00    -0.168 NA
HETATM   10  N2  UNL     1      22.904   4.096  48.842  1.00  0.00    -0.251 N 
HETATM   11  C13 UNL     1      26.164   3.765  50.515  1.00  0.00     0.098 C 
HETATM   12  C14 UNL     1      26.487   2.581  51.307  1.00  0.00     0.019 C 
HETATM   13  C15 UNL     1      26.268   1.450  52.022  1.00  0.00     0.098 C 
HETATM   14  O1  UNL     1      27.372   0.756  52.551  1.00  0.00    -0.346 OA
HETATM   15  C16 UNL     1      27.396  -0.653  52.489  1.00  0.00     0.202 C 
HETATM   16  C17 UNL     1      26.258  -1.172  53.357  1.00  0.00     0.202 C 
HETATM   17  O2  UNL     1      25.098  -0.369  53.120  1.00  0.00    -0.346 OA
HETATM   18  C18 UNL     1      25.075   0.769  52.382  1.00  0.00     0.101 C 
HETATM   19  C19 UNL     1      23.759   0.769  52.295  1.00  0.00     0.040 C 
HETATM   20  C20 UNL     1      22.546   0.100  52.643  1.00  0.00     0.005 C 
HETATM   21  C21 UNL     1      21.272   0.013  52.619  1.00  0.00     0.024 C 
ENDROOT
BRANCH  10  22
HETATM   22  C7  UNL     1      22.444   4.353  47.492  1.00  0.00     0.054 A 
HETATM   23  C8  UNL     1      22.475   5.624  46.959  1.00  0.00     0.031 A 
HETATM   24  C9  UNL     1      22.073   5.998  45.694  1.00  0.00     0.002 A 
HETATM   25  C10 UNL     1      21.588   4.946  44.906  1.00  0.00     0.000 A 
HETATM   26  C11 UNL     1      21.539   3.676  45.387  1.00  0.00     0.002 A 
HETATM   27  C12 UNL     1      21.958   3.374  46.666  1.00  0.00     0.031 A 
ENDBRANCH  10  22
TORSDOF 1
ENDMDL
MODEL 3
REMARK VINA RESULT:      -8.3      1.814      2.619
REMARK  1 active torsions:
REMARK  status: ('A' for Active; 'I' for Inactive)
REMARK    1  A    between atoms: N2_10  and  C7_11 
ROOT
HETATM    1 CL1  UNL     1      28.104   1.367  53.104  1.00  0.00    -0.084 Cl
HETATM    2  C1  UNL     1      26.544   1.595  52.280  1.00  0.00     0.034 C 
HETATM    3  C2  UNL     1      26.792   2.503  51.369  1.00  0.00     0.023 C 
HETATM    4  C3  UNL     1      25.834   3.038  50.423  1.00  0.00     0.001 C 
HETATM    5  C4  UNL     1      24.733   3.243  49.788  1.00  0.00     0.011 C 
HETATM    6  C5  UNL     1      23.700   3.723  48.875  1.00  0.00     0.201 C 
HETATM    7  S1  UNL     1      22.603   2.334  48.472  1.00  0.00    -0.081 SA
HETATM    8  C6  UNL     1      21.312   2.775  49.626  1.00  0.00     0.097 C 
HETATM    9  N1  UNL     1      21.778   3.794  50.231  1.00  0.00    -0.168 NA
HETATM   10  N2  UNL     1      22.706   4.546  49.579  1.00  0.00    -0.251 N 
HETATM   11  C13 UNL     1      19.984   2.080  49.804  1.00  0.00     0.098 C 
HETATM   12  C14 UNL     1      19.970   1.069  50.857  1.00  0.00     0.019 C 
HETATM   13  C15 UNL     1      20.457   0.274  51.841  1.00  0.00     0.098 C 
HETATM   14  O1  UNL     1      19.580  -0.610  52.497  1.00  0.00    -0.346 OA
HETATM   15  C16 UNL     1      19.672  -0.762  53.897  1.00  0.00     0.202 C 
HETATM   16  C17 UNL     1      21.028  -1.384  54.205  1.00  0.00     0.202 C 
HETATM   17  O2  UNL     1      22.019  -0.749  53.391  1.00  0.00    -0.346 OA
HETATM   18  C18 UNL     1      21.759   0.129  52.390  1.00  0.00     0.101 C 
HETATM   19  C19 UNL     1      23.011   0.542  52.334  1.00  0.00     0.040 C 
HETATM   20  C20 UNL     1      24.328   0.415  52.872  1.00  0.00     0.005 C 
HETATM   21  C21 UNL     1      25.561   0.745  52.894  1.00  0.00     0.024 C 
ENDROOT
BRANCH  10  22
HETATM   22  C7  UNL     1      22.804   5.991  49.523  1.00  0.00     0.054 A 
HETATM   23  C8  UNL     1      22.197   6.708  48.513  1.00  0.00     0.031 A 
HETATM   24  C9  UNL     1      22.211   8.077  48.349  1.00  0.00     0.002 A 
HETATM   25  C10 UNL     1      22.929   8.770  49.332  1.00  0.00     0.000 A 
HETATM   26  C11 UNL     1      23.545   8.107  50.347  1.00  0.00     0.002 A 
HETATM   27  C12 UNL     1      23.488   6.733  50.448  1.00  0.00     0.031 A 
ENDBRANCH  10  22
TORSDOF 1
ENDMDL
MODEL 4
REMARK VINA RESULT:      -8.0      9.036     12.149
REMARK  1 active torsions:
REMARK  status: ('A' for Active; 'I' for Inactive)
REMARK    1  A    between atoms: N2_10  and  C7_11 
ROOT
HETATM    1 CL1  UNL     1      25.016   5.281  49.233  1.00  0.00    -0.084 Cl
HETATM    2  C1  UNL     1      26.560   6.141  49.031  1.00  0.00     0.034 C 
HETATM    3  C2  UNL     1      26.278   7.383  49.345  1.00  0.00     0.023 C 
HETATM    4  C3  UNL     1      27.213   8.490  49.341  1.00  0.00     0.001 C 
HETATM    5  C4  UNL     1      28.302   9.164  49.215  1.00  0.00     0.011 C 
HETATM    6  C5  UNL     1      29.313  10.217  49.183  1.00  0.00     0.201 C 
HETATM    7  S1  UNL     1      30.897   9.504  49.708  1.00  0.00    -0.081 SA
HETATM    8  C6  UNL     1      31.559   9.286  48.062  1.00  0.00     0.097 C 
HETATM    9  N1  UNL     1      30.608   9.658  47.299  1.00  0.00    -0.168 NA
HETATM   10  N2  UNL     1      29.703  10.540  47.803  1.00  0.00    -0.251 N 
HETATM   11  C13 UNL     1      32.935   8.784  47.701  1.00  0.00     0.098 C 
HETATM   12  C14 UNL     1      33.004   7.349  47.441  1.00  0.00     0.019 C 
HETATM   13  C15 UNL     1      32.570   6.068  47.341  1.00  0.00     0.098 C 
HETATM   14  O1  UNL     1      33.475   5.074  46.925  1.00  0.00    -0.346 OA
HETATM   15  C16 UNL     1      33.046   4.085  46.015  1.00  0.00     0.202 C 
HETATM   16  C17 UNL     1      31.971   3.257  46.707  1.00  0.00     0.202 C 
HETATM   17  O2  UNL     1      31.098   4.140  47.418  1.00  0.00    -0.346 OA
HETATM   18  C18 UNL     1      31.305   5.470  47.587  1.00  0.00     0.101 C 
HETATM   19  C19 UNL     1      30.061   5.687  47.970  1.00  0.00     0.040 C 
HETATM   20  C20 UNL     1      28.780   5.108  48.223  1.00  0.00     0.005 C 
HETATM   21  C21 UNL     1      27.559   5.212  48.582  1.00  0.00     0.024 C 
ENDROOT
BRANCH  10  22
HETATM   22  C7  UNL     1      29.119  11.692  47.145  1.00  0.00     0.054 A 
HETATM   23  C8  UNL     1      29.148  12.939  47.733  1.00  0.00     0.031 A 
HETATM   24  C9  UNL     1      28.635  14.109  47.213  1.00  0.00     0.002 A 
HETATM   25  C10 UNL     1      28.030  13.967  45.957  1.00  0.00     0.000 A 
HETATM   26  C11 UNL     1      27.978  12.759  45.337  1.00  0.00     0.002 A 
HETATM   27  C12 UNL     1      28.513  11.628  45.918  1.00  0.00     0.031 A 
ENDBRANCH  10  22
TORSDOF 1
ENDMDL
MODEL 5
REMARK VINA RESULT:      -7.9      4.030      6.008
REMARK  1 active torsions:
REMARK  status: ('A' for Active; 'I' for Inactive)
REMARK    1  A    between atoms: N2_10  and  C7_11 
ROOT
HETATM    1 CL1  UNL     1      20.345   3.810  44.178  1.00  0.00    -0.084 Cl
HETATM    2  C1  UNL     1      21.010   4.163  45.789  1.00  0.00     0.034 C 
HETATM    3  C2  UNL     1      21.844   5.154  45.582  1.00  0.00     0.023 C 
HETATM    4  C3  UNL     1      22.645   5.812  46.594  1.00  0.00     0.001 C 
HETATM    5  C4  UNL     1      23.158   6.115  47.734  1.00  0.00     0.011 C 
HETATM    6  C5  UNL     1      23.926   6.719  48.820  1.00  0.00     0.201 C 
HETATM    7  S1  UNL     1      22.898   6.718  50.315  1.00  0.00    -0.081 SA
HETATM    8  C6  UNL     1      23.638   5.268  51.052  1.00  0.00     0.097 C 
HETATM    9  N1  UNL     1      24.475   4.875  50.176  1.00  0.00    -0.168 NA
HETATM   10  N2  UNL     1      24.967   5.803  49.310  1.00  0.00    -0.251 N 
HETATM   11  C13 UNL     1      23.323   4.682  52.406  1.00  0.00     0.098 C 
HETATM   12  C14 UNL     1      22.323   3.618  52.384  1.00  0.00     0.019 C 
HETATM   13  C15 UNL     1      21.399   2.774  51.864  1.00  0.00     0.098 C 
HETATM   14  O1  UNL     1      20.766   1.850  52.716  1.00  0.00    -0.346 OA
HETATM   15  C16 UNL     1      20.554   0.529  52.268  1.00  0.00     0.202 C 
HETATM   16  C17 UNL     1      19.581   0.590  51.098  1.00  0.00     0.202 C 
HETATM   17  O2  UNL     1      19.947   1.685  50.253  1.00  0.00    -0.346 OA
HETATM   18  C18 UNL     1      20.891   2.613  50.547  1.00  0.00     0.101 C 
HETATM   19  C19 UNL     1      20.952   3.047  49.302  1.00  0.00     0.040 C 
HETATM   20  C20 UNL     1      20.458   2.902  47.970  1.00  0.00     0.005 C 
HETATM   21  C21 UNL     1      20.441   3.251  46.742  1.00  0.00     0.024 C 
ENDROOT
BRANCH  10  22
HETATM   22  C7  UNL     1      26.332   5.960  48.851  1.00  0.00     0.054 A 
HETATM   23  C8  UNL     1      26.807   7.185  48.433  1.00  0.00     0.031 A 
HETATM   24  C9  UNL     1      28.079   7.466  47.979  1.00  0.00     0.002 A 
HETATM   25  C10 UNL     1      28.942   6.362  47.956  1.00  0.00     0.000 A 
HETATM   26  C11 UNL     1      28.520   5.135  48.359  1.00  0.00     0.002 A 
HETATM   27  C12 UNL     1      27.230   4.927  48.801  1.00  0.00     0.031 A 
ENDBRANCH  10  22
TORSDOF 1
ENDMDL
MODEL 6
REMARK VINA RESULT:      -7.8      4.134      7.099
REMARK  1 active torsions:
REMARK  status: ('A' for Active; 'I' for Inactive)
REMARK    1  A    between atoms: N2_10  and  C7_11 
ROOT
HETATM    1 CL1  UNL     1      25.688   9.083  49.592  1.00  0.00    -0.084 Cl
HETATM    2  C1  UNL     1      24.688   7.612  49.643  1.00  0.00     0.034 C 
HETATM    3  C2  UNL     1      24.916   7.110  50.832  1.00  0.00     0.023 C 
HETATM    4  C3  UNL     1      24.329   5.898  51.367  1.00  0.00     0.001 C 
HETATM    5  C4  UNL     1      23.624   4.826  51.462  1.00  0.00     0.011 C 
HETATM    6  C5  UNL     1      22.984   3.595  51.917  1.00  0.00     0.201 C 
HETATM    7  S1  UNL     1      21.303   3.540  51.235  1.00  0.00    -0.081 SA
HETATM    8  C6  UNL     1      21.686   2.441  49.879  1.00  0.00     0.097 C 
HETATM    9  N1  UNL     1      22.944   2.264  49.976  1.00  0.00    -0.168 NA
HETATM   10  N2  UNL     1      23.512   2.423  51.202  1.00  0.00    -0.251 N 
HETATM   11  C13 UNL     1      20.713   1.866  48.879  1.00  0.00     0.098 C 
HETATM   12  C14 UNL     1      20.597   2.635  47.643  1.00  0.00     0.019 C 
HETATM   13  C15 UNL     1      20.816   3.647  46.768  1.00  0.00     0.098 C 
HETATM   14  O1  UNL     1      20.181   3.610  45.512  1.00  0.00    -0.346 OA
HETATM   15  C16 UNL     1      20.906   3.982  44.360  1.00  0.00     0.202 C 
HETATM   16  C17 UNL     1      21.250   5.460  44.490  1.00  0.00     0.202 C 
HETATM   17  O2  UNL     1      21.673   5.716  45.833  1.00  0.00    -0.346 OA
HETATM   18  C18 UNL     1      21.604   4.826  46.854  1.00  0.00     0.101 C 
HETATM   19  C19 UNL     1      22.416   5.532  47.617  1.00  0.00     0.040 C 
HETATM   20  C20 UNL     1      23.216   6.710  47.727  1.00  0.00     0.005 C 
HETATM   21  C21 UNL     1      24.006   7.465  48.387  1.00  0.00     0.024 C 
ENDROOT
BRANCH  10  22
HETATM   22  C7  UNL     1      24.529   1.602  51.828  1.00  0.00     0.054 A 
HETATM   23  C8  UNL     1      24.192   0.606  52.719  1.00  0.00     0.031 A 
HETATM   24  C9  UNL     1      25.058  -0.243  53.376  1.00  0.00     0.002 A 
HETATM   25  C10 UNL     1      26.411  -0.033  53.076  1.00  0.00     0.000 A 
HETATM   26  C11 UNL     1      26.792   0.936  52.203  1.00  0.00     0.002 A 
HETATM   27  C12 UNL     1      25.868   1.750  51.582  1.00  0.00     0.031 A 
ENDBRANCH  10  22
TORSDOF 1
ENDMDL
MODEL 7
REMARK VINA RESULT:      -7.6      3.652      5.943
REMARK  1 active torsions:
REMARK  status: ('A' for Active; 'I' for Inactive)
REMARK    1  A    between atoms: N2_10  and  C7_11 
ROOT
HETATM    1 CL1  UNL     1      19.147   9.366  48.485  1.00  0.00    -0.084 Cl
HETATM    2  C1  UNL     1      20.059   8.038  49.241  1.00  0.00     0.034 C 
HETATM    3  C2  UNL     1      21.239   8.556  49.481  1.00  0.00     0.023 C 
HETATM    4  C3  UNL     1      22.356   7.870  50.098  1.00  0.00     0.001 C 
HETATM    5  C4  UNL     1      23.064   6.948  50.652  1.00  0.00     0.011 C 
HETATM    6  C5  UNL     1      24.132   6.178  51.281  1.00  0.00     0.201 C 
HETATM    7  S1  UNL     1      23.387   5.057  52.499  1.00  0.00    -0.081 SA
HETATM    8  C6  UNL     1      23.411   3.605  51.458  1.00  0.00     0.097 C 
HETATM    9  N1  UNL     1      23.865   4.033  50.348  1.00  0.00    -0.168 NA
HETATM   10  N2  UNL     1      24.651   5.144  50.373  1.00  0.00    -0.251 N 
HETATM   11  C13 UNL     1      22.994   2.208  51.847  1.00  0.00     0.098 C 
HETATM   12  C14 UNL     1      21.610   1.880  51.516  1.00  0.00     0.019 C 
HETATM   13  C15 UNL     1      20.347   2.074  51.063  1.00  0.00     0.098 C 
HETATM   14  O1  UNL     1      19.439   0.999  51.101  1.00  0.00    -0.346 OA
HETATM   15  C16 UNL     1      18.576   0.785  50.005  1.00  0.00     0.202 C 
HETATM   16  C17 UNL     1      17.638   1.982  49.916  1.00  0.00     0.202 C 
HETATM   17  O2  UNL     1      18.396   3.176  50.131  1.00  0.00    -0.346 OA
HETATM   18  C18 UNL     1      19.694   3.214  50.524  1.00  0.00     0.101 C 
HETATM   19  C19 UNL     1      19.829   4.485  50.195  1.00  0.00     0.040 C 
HETATM   20  C20 UNL     1      19.194   5.645  49.654  1.00  0.00     0.005 C 
HETATM   21  C21 UNL     1      19.222   6.873  49.307  1.00  0.00     0.024 C 
ENDROOT
BRANCH  10  22
HETATM   22  C7  UNL     1      25.870   5.392  49.629  1.00  0.00     0.054 A 
HETATM   23  C8  UNL     1      26.211   6.664  49.223  1.00  0.00     0.031 A 
HETATM   24  C9  UNL     1      27.338   7.032  48.518  1.00  0.00     0.002 A 
HETATM   25  C10 UNL     1      28.194   5.969  48.201  1.00  0.00     0.000 A 
HETATM   26  C11 UNL     1      27.900   4.697  48.580  1.00  0.00     0.002 A 
HETATM   27  C12 UNL     1      26.753   4.403  49.285  1.00  0.00     0.031 A 
ENDBRANCH  10  22
TORSDOF 1
ENDMDL
MODEL 8
REMARK VINA RESULT:      -7.4      3.501      6.647
REMARK  1 active torsions:
REMARK  status: ('A' for Active; 'I' for Inactive)
REMARK    1  A    between atoms: N2_10  and  C7_11 
ROOT
HETATM    1 CL1  UNL     1      24.490   6.574  48.096  1.00  0.00    -0.084 Cl
HETATM    2  C1  UNL     1      23.826   5.119  48.875  1.00  0.00     0.034 C 
HETATM    3  C2  UNL     1      22.616   5.015  48.382  1.00  0.00     0.023 C 
HETATM    4  C3  UNL     1      21.656   3.979  48.704  1.00  0.00     0.001 C 
HETATM    5  C4  UNL     1      21.125   2.933  49.233  1.00  0.00     0.011 C 
HETATM    6  C5  UNL     1      20.225   1.850  49.617  1.00  0.00     0.201 C 
HETATM    7  S1  UNL     1      21.213   0.350  49.874  1.00  0.00    -0.081 SA
HETATM    8  C6  UNL     1      21.281   0.471  51.656  1.00  0.00     0.097 C 
HETATM    9  N1  UNL     1      20.678   1.565  51.910  1.00  0.00    -0.168 NA
HETATM   10  N2  UNL     1      19.763   2.007  51.005  1.00  0.00    -0.251 N 
HETATM   11  C13 UNL     1      21.906  -0.519  52.606  1.00  0.00     0.098 C 
HETATM   12  C14 UNL     1      23.286  -0.212  52.974  1.00  0.00     0.019 C 
HETATM   13  C15 UNL     1      24.468   0.452  52.972  1.00  0.00     0.098 C 
HETATM   14  O1  UNL     1      25.505  -0.006  53.805  1.00  0.00    -0.346 OA
HETATM   15  C16 UNL     1      26.287   0.931  54.514  1.00  0.00     0.202 C 
HETATM   16  C17 UNL     1      27.053   1.760  53.491  1.00  0.00     0.202 C 
HETATM   17  O2  UNL     1      26.170   2.088  52.414  1.00  0.00    -0.346 OA
HETATM   18  C18 UNL     1      24.919   1.590  52.253  1.00  0.00     0.101 C 
HETATM   19  C19 UNL     1      24.594   2.507  51.361  1.00  0.00     0.040 C 
HETATM   20  C20 UNL     1      25.024   3.655  50.627  1.00  0.00     0.005 C 
HETATM   21  C21 UNL     1      24.808   4.579  49.774  1.00  0.00     0.024 C 
ENDROOT
BRANCH  10  22
HETATM   22  C7  UNL     1      18.460   2.587  51.265  1.00  0.00     0.054 A 
HETATM   23  C8  UNL     1      17.348   1.791  51.442  1.00  0.00     0.031 A 
HETATM   24  C9  UNL     1      16.061   2.216  51.698  1.00  0.00     0.002 A 
HETATM   25  C10 UNL     1      15.916   3.607  51.774  1.00  0.00     0.000 A 
HETATM   26  C11 UNL     1      16.983   4.433  51.606  1.00  0.00     0.002 A 
HETATM   27  C12 UNL     1      18.244   3.936  51.353  1.00  0.00     0.031 A 
ENDBRANCH  10  22
TORSDOF 1
ENDMDL
MODEL 9
REMARK VINA RESULT:      -7.4      5.461      7.973
REMARK  1 active torsions:
REMARK  status: ('A' for Active; 'I' for Inactive)
REMARK    1  A    between atoms: N2_10  and  C7_11 
ROOT
HETATM    1 CL1  UNL     1      22.413   7.961  43.386  1.00  0.00    -0.084 Cl
HETATM    2  C1  UNL     1      23.078   7.370  44.927  1.00  0.00     0.034 C 
HETATM    3  C2  UNL     1      24.116   8.140  45.145  1.00  0.00     0.023 C 
HETATM    4  C3  UNL     1      25.004   8.062  46.287  1.00  0.00     0.001 C 
HETATM    5  C4  UNL     1      25.527   7.680  47.399  1.00  0.00     0.011 C 
HETATM    6  C5  UNL     1      26.366   7.527  48.584  1.00  0.00     0.201 C 
HETATM    7  S1  UNL     1      25.307   7.045  49.977  1.00  0.00    -0.081 SA
HETATM    8  C6  UNL     1      25.681   5.299  49.902  1.00  0.00     0.097 C 
HETATM    9  N1  UNL     1      26.444   5.194  48.888  1.00  0.00    -0.168 NA
HETATM   10  N2  UNL     1      27.161   6.291  48.520  1.00  0.00    -0.251 N 
HETATM   11  C13 UNL     1      25.194   4.230  50.848  1.00  0.00     0.098 C 
HETATM   12  C14 UNL     1      23.986   3.540  50.406  1.00  0.00     0.019 C 
HETATM   13  C15 UNL     1      22.918   3.255  49.619  1.00  0.00     0.098 C 
HETATM   14  O1  UNL     1      22.065   2.198  49.988  1.00  0.00    -0.346 OA
HETATM   15  C16 UNL     1      21.585   1.319  48.994  1.00  0.00     0.202 C 
HETATM   16  C17 UNL     1      20.694   2.124  48.058  1.00  0.00     0.202 C 
HETATM   17  O2  UNL     1      21.325   3.381  47.794  1.00  0.00    -0.346 OA
HETATM   18  C18 UNL     1      22.438   3.841  48.418  1.00  0.00     0.101 C 
HETATM   19  C19 UNL     1      22.641   4.782  47.516  1.00  0.00     0.040 C 
HETATM   20  C20 UNL     1      22.178   5.386  46.306  1.00  0.00     0.005 C 
HETATM   21  C21 UNL     1      22.286   6.263  45.385  1.00  0.00     0.024 C 
ENDROOT
BRANCH  10  22
HETATM   22  C7  UNL     1      28.544   6.351  48.090  1.00  0.00     0.054 A 
HETATM   23  C8  UNL     1      29.347   5.231  48.120  1.00  0.00     0.031 A 
HETATM   24  C9  UNL     1      30.671   5.154  47.738  1.00  0.00     0.002 A 
HETATM   25  C10 UNL     1      31.211   6.362  47.281  1.00  0.00     0.000 A 
HETATM   26  C11 UNL     1      30.458   7.493  47.232  1.00  0.00     0.002 A 
HETATM   27  C12 UNL     1      29.139   7.496  47.632  1.00  0.00     0.031 A 
ENDBRANCH  10  22
TORSDOF 1
ENDMDL
