MODEL 1
REMARK VINA RESULT:      -7.7      0.000      0.000
REMARK  4 active torsions:
REMARK  status: ('A' for Active; 'I' for Inactive)
REMARK    1  A    between atoms: C4_4  and  C5_5 
REMARK    2  A    between atoms: C6_6  and  N1_7 
REMARK    3  A    between atoms: N1_7  and  C7_8 
REMARK    4  A    between atoms: C16_19  and  O1_20 
ROOT
HETATM    1  C1  UNL     1      28.478   5.337  48.408  1.00  0.00     0.017 C 
HETATM    2  C2  UNL     1      27.291   5.508  48.630  1.00  0.00    -0.089 C 
HETATM    3  C3  UNL     1      25.898   5.721  48.877  1.00  0.00     0.063 C 
HETATM    4  C4  UNL     1      25.415   5.892  50.115  1.00  0.00     0.010 C 
ENDROOT
BRANCH   4   5
HETATM    5  C5  UNL     1      24.005   6.109  50.378  1.00  0.00     0.018 C 
HETATM    6  C6  UNL     1      23.311   5.365  51.199  1.00  0.00     0.090 C 
BRANCH   6   7
HETATM    7  N1  UNL     1      24.008   4.304  51.843  1.00  0.00    -0.350 N 
HETATM    8  H6  UNL     1      24.968   3.984  52.131  1.00  0.00     0.166 HD
BRANCH   7   9
HETATM    9  C7  UNL     1      23.216   3.222  52.310  1.00  0.00     0.143 C 
HETATM   10  C8  UNL     1      21.883   3.261  52.249  1.00  0.00     0.134 C 
HETATM   11  N2  UNL     1      20.880   2.294  52.659  1.00  0.00    -0.392 N 
HETATM   12  C9  UNL     1      20.713   1.149  51.765  1.00  0.00     0.158 C 
HETATM   13  H8  UNL     1      20.370   2.495  53.546  1.00  0.00     0.159 HD
HETATM   14  C10 UNL     1      19.859   0.105  52.382  1.00  0.00    -0.029 A 
HETATM   15  C11 UNL     1      18.515   0.116  52.092  1.00  0.00     0.028 A 
HETATM   16  C15 UNL     1      20.366  -0.875  53.242  1.00  0.00     0.001 A 
HETATM   17  C12 UNL     1      17.581  -0.775  52.580  1.00  0.00     0.011 A 
HETATM   18 BR1  UNL     1      15.763  -0.635  52.091  1.00  0.00    -0.051 Br
HETATM   19  C13 UNL     1      18.065  -1.748  53.430  1.00  0.00     0.020 A 
HETATM   20  C14 UNL     1      19.410  -1.774  53.731  1.00  0.00     0.013 A 
HETATM   21  C16 UNL     1      21.715  -1.159  53.745  1.00  0.00     0.298 C 
HETATM   22  N3  UNL     1      22.784  -0.485  53.088  1.00  0.00    -0.154 NA
HETATM   23  N4  UNL     1      23.289   0.563  53.652  1.00  0.00    -0.145 NA
HETATM   24  C17 UNL     1      24.367   1.162  52.887  1.00  0.00     0.259 C 
HETATM   25  N5  UNL     1      23.394   1.966  52.885  1.00  0.00    -0.221 NA
BRANCH  21  26
HETATM   26  O1  UNL     1      21.819  -0.881  55.129  1.00  0.00    -0.369 OA
HETATM   27  H15 UNL     1      22.194   0.014  55.250  1.00  0.00     0.212 HD
ENDBRANCH  21  26
ENDBRANCH   7   9
ENDBRANCH   6   7
ENDBRANCH   4   5
TORSDOF 4
ENDMDL
MODEL 2
REMARK VINA RESULT:      -7.5      1.699      2.283
REMARK  4 active torsions:
REMARK  status: ('A' for Active; 'I' for Inactive)
REMARK    1  A    between atoms: C4_4  and  C5_5 
REMARK    2  A    between atoms: C6_6  and  N1_7 
REMARK    3  A    between atoms: N1_7  and  C7_8 
REMARK    4  A    between atoms: C16_19  and  O1_20 
ROOT
HETATM    1  C1  UNL     1      21.710   4.363  47.707  1.00  0.00     0.017 C 
HETATM    2  C2  UNL     1      22.659   3.780  48.204  1.00  0.00    -0.089 C 
HETATM    3  C3  UNL     1      23.759   3.085  48.798  1.00  0.00     0.063 C 
HETATM    4  C4  UNL     1      24.795   3.734  49.346  1.00  0.00     0.010 C 
ENDROOT
BRANCH   4   5
HETATM    5  C5  UNL     1      25.918   3.041  49.951  1.00  0.00     0.018 C 
HETATM    6  C6  UNL     1      26.036   2.868  51.241  1.00  0.00     0.090 C 
BRANCH   6   7
HETATM    7  N1  UNL     1      24.996   3.398  52.054  1.00  0.00    -0.350 N 
HETATM    8  H6  UNL     1      24.645   4.286  52.494  1.00  0.00     0.166 HD
BRANCH   7   9
HETATM    9  C7  UNL     1      24.006   2.477  52.490  1.00  0.00     0.143 C 
HETATM   10  C8  UNL     1      22.706   2.729  52.331  1.00  0.00     0.134 C 
HETATM   11  N2  UNL     1      21.531   1.952  52.691  1.00  0.00    -0.392 N 
HETATM   12  C9  UNL     1      21.240   0.817  51.817  1.00  0.00     0.158 C 
HETATM   13  H8  UNL     1      21.003   2.267  53.533  1.00  0.00     0.159 HD
HETATM   14  C10 UNL     1      20.187  -0.051  52.398  1.00  0.00    -0.029 A 
HETATM   15  C11 UNL     1      18.886   0.166  52.010  1.00  0.00     0.028 A 
HETATM   16  C15 UNL     1      20.467  -1.068  53.318  1.00  0.00     0.001 A 
HETATM   17  C12 UNL     1      17.787  -0.543  52.452  1.00  0.00     0.011 A 
HETATM   18 BR1  UNL     1      16.054  -0.130  51.827  1.00  0.00    -0.051 Br
HETATM   19  C13 UNL     1      18.046  -1.549  53.360  1.00  0.00     0.020 A 
HETATM   20  C14 UNL     1      19.345  -1.781  53.759  1.00  0.00     0.013 A 
HETATM   21  C16 UNL     1      21.714  -1.547  53.925  1.00  0.00     0.298 C 
HETATM   22  N3  UNL     1      22.920  -1.079  53.330  1.00  0.00    -0.154 NA
HETATM   23  N4  UNL     1      23.552  -0.107  53.902  1.00  0.00    -0.145 NA
HETATM   24  C17 UNL     1      24.762   0.281  53.203  1.00  0.00     0.259 C 
HETATM   25  N5  UNL     1      23.937   1.231  53.109  1.00  0.00    -0.221 NA
BRANCH  21  26
HETATM   26  O1  UNL     1      21.768  -1.237  55.305  1.00  0.00    -0.369 OA
HETATM   27  H15 UNL     1      22.109  -2.011  55.795  1.00  0.00     0.212 HD
ENDBRANCH  21  26
ENDBRANCH   7   9
ENDBRANCH   6   7
ENDBRANCH   4   5
TORSDOF 4
ENDMDL
MODEL 3
REMARK VINA RESULT:      -7.4      3.673      4.918
REMARK  4 active torsions:
REMARK  status: ('A' for Active; 'I' for Inactive)
REMARK    1  A    between atoms: C4_4  and  C5_5 
REMARK    2  A    between atoms: C6_6  and  N1_7 
REMARK    3  A    between atoms: N1_7  and  C7_8 
REMARK    4  A    between atoms: C16_19  and  O1_20 
ROOT
HETATM    1  C1  UNL     1      28.344   9.583  49.696  1.00  0.00     0.017 C 
HETATM    2  C2  UNL     1      27.622   8.907  48.983  1.00  0.00    -0.089 C 
HETATM    3  C3  UNL     1      26.785   8.122  48.130  1.00  0.00     0.063 C 
HETATM    4  C4  UNL     1      25.454   8.085  48.281  1.00  0.00     0.010 C 
ENDROOT
BRANCH   4   5
HETATM    5  C5  UNL     1      24.593   7.291  47.423  1.00  0.00     0.018 C 
HETATM    6  C6  UNL     1      23.606   6.566  47.879  1.00  0.00     0.090 C 
BRANCH   6   7
HETATM    7  N1  UNL     1      23.401   6.582  49.287  1.00  0.00    -0.350 N 
HETATM    8  H6  UNL     1      22.961   7.137  50.064  1.00  0.00     0.166 HD
BRANCH   7   9
HETATM    9  C7  UNL     1      23.948   5.492  50.016  1.00  0.00     0.143 C 
HETATM   10  C8  UNL     1      23.244   4.867  50.961  1.00  0.00     0.134 C 
HETATM   11  N2  UNL     1      23.586   3.748  51.823  1.00  0.00    -0.392 N 
HETATM   12  C9  UNL     1      23.564   2.435  51.182  1.00  0.00     0.158 C 
HETATM   13  H8  UNL     1      23.816   3.975  52.815  1.00  0.00     0.159 HD
HETATM   14  C10 UNL     1      24.160   1.399  52.060  1.00  0.00    -0.029 A 
HETATM   15  C11 UNL     1      23.314   0.665  52.858  1.00  0.00     0.028 A 
HETATM   16  C15 UNL     1      25.536   1.148  52.108  1.00  0.00     0.001 A 
HETATM   17  C12 UNL     1      23.699  -0.331  53.733  1.00  0.00     0.011 A 
HETATM   18 BR1  UNL     1      22.418  -1.257  54.767  1.00  0.00    -0.051 Br
HETATM   19  C13 UNL     1      25.052  -0.591  53.792  1.00  0.00     0.020 A 
HETATM   20  C14 UNL     1      25.915   0.135  52.998  1.00  0.00     0.013 A 
HETATM   21  C16 UNL     1      26.681   1.737  51.405  1.00  0.00     0.298 C 
HETATM   22  N3  UNL     1      26.373   2.564  50.287  1.00  0.00    -0.154 NA
HETATM   23  N4  UNL     1      26.394   3.847  50.447  1.00  0.00    -0.145 NA
HETATM   24  C17 UNL     1      26.061   4.580  49.239  1.00  0.00     0.259 C 
HETATM   25  N5  UNL     1      25.133   4.764  50.075  1.00  0.00    -0.221 NA
BRANCH  21  26
HETATM   26  O1  UNL     1      27.494   2.492  52.285  1.00  0.00    -0.369 OA
HETATM   27  H15 UNL     1      27.332   2.199  53.204  1.00  0.00     0.212 HD
ENDBRANCH  21  26
ENDBRANCH   7   9
ENDBRANCH   6   7
ENDBRANCH   4   5
TORSDOF 4
ENDMDL
MODEL 4
REMARK VINA RESULT:      -7.4      3.653      5.171
REMARK  4 active torsions:
REMARK  status: ('A' for Active; 'I' for Inactive)
REMARK    1  A    between atoms: C4_4  and  C5_5 
REMARK    2  A    between atoms: C6_6  and  N1_7 
REMARK    3  A    between atoms: N1_7  and  C7_8 
REMARK    4  A    between atoms: C16_19  and  O1_20 
ROOT
HETATM    1  C1  UNL     1      25.847   8.480  43.717  1.00  0.00     0.017 C 
HETATM    2  C2  UNL     1      24.940   8.272  44.505  1.00  0.00    -0.089 C 
HETATM    3  C3  UNL     1      23.868   8.045  45.425  1.00  0.00     0.063 C 
HETATM    4  C4  UNL     1      24.084   7.590  46.667  1.00  0.00     0.010 C 
ENDROOT
BRANCH   4   5
HETATM    5  C5  UNL     1      23.006   7.356  47.610  1.00  0.00     0.018 C 
HETATM    6  C6  UNL     1      23.210   7.000  48.851  1.00  0.00     0.090 C 
BRANCH   6   7
HETATM    7  N1  UNL     1      24.565   6.846  49.255  1.00  0.00    -0.350 N 
HETATM    8  H6  UNL     1      25.509   7.309  49.221  1.00  0.00     0.166 HD
BRANCH   7   9
HETATM    9  C7  UNL     1      24.875   5.665  49.982  1.00  0.00     0.143 C 
HETATM   10  C8  UNL     1      24.040   5.179  50.903  1.00  0.00     0.134 C 
HETATM   11  N2  UNL     1      24.139   4.009  51.758  1.00  0.00    -0.392 N 
HETATM   12  C9  UNL     1      23.882   2.729  51.100  1.00  0.00     0.158 C 
HETATM   13  H8  UNL     1      24.383   4.179  52.758  1.00  0.00     0.159 HD
HETATM   14  C10 UNL     1      24.246   1.591  51.979  1.00  0.00    -0.029 A 
HETATM   15  C11 UNL     1      23.255   1.027  52.748  1.00  0.00     0.028 A 
HETATM   16  C15 UNL     1      25.547   1.080  52.055  1.00  0.00     0.001 A 
HETATM   17  C12 UNL     1      23.419  -0.031  53.618  1.00  0.00     0.011 A 
HETATM   18 BR1  UNL     1      21.959  -0.702  54.610  1.00  0.00    -0.051 Br
HETATM   19  C13 UNL     1      24.696  -0.547  53.706  1.00  0.00     0.020 A 
HETATM   20  C14 UNL     1      25.701   0.006  52.942  1.00  0.00     0.013 A 
HETATM   21  C16 UNL     1      26.801   1.444  51.387  1.00  0.00     0.298 C 
HETATM   22  N3  UNL     1      26.685   2.323  50.273  1.00  0.00    -0.154 NA
HETATM   23  N4  UNL     1      26.948   3.577  50.449  1.00  0.00    -0.145 NA
HETATM   24  C17 UNL     1      26.793   4.370  49.244  1.00  0.00     0.259 C 
HETATM   25  N5  UNL     1      25.896   4.722  50.060  1.00  0.00    -0.221 NA
BRANCH  21  26
HETATM   26  O1  UNL     1      27.720   2.021  52.296  1.00  0.00    -0.369 OA
HETATM   27  H15 UNL     1      28.553   1.510  52.279  1.00  0.00     0.212 HD
ENDBRANCH  21  26
ENDBRANCH   7   9
ENDBRANCH   6   7
ENDBRANCH   4   5
TORSDOF 4
ENDMDL
MODEL 5
REMARK VINA RESULT:      -7.2      4.864      9.647
REMARK  4 active torsions:
REMARK  status: ('A' for Active; 'I' for Inactive)
REMARK    1  A    between atoms: C4_4  and  C5_5 
REMARK    2  A    between atoms: C6_6  and  N1_7 
REMARK    3  A    between atoms: N1_7  and  C7_8 
REMARK    4  A    between atoms: C16_19  and  O1_20 
ROOT
HETATM    1  C1  UNL     1      22.106  -1.144  53.355  1.00  0.00     0.017 C 
HETATM    2  C2  UNL     1      21.894  -0.345  52.460  1.00  0.00    -0.089 C 
HETATM    3  C3  UNL     1      21.663   0.593  51.405  1.00  0.00     0.063 C 
HETATM    4  C4  UNL     1      20.916   1.691  51.582  1.00  0.00     0.010 C 
ENDROOT
BRANCH   4   5
HETATM    5  C5  UNL     1      20.674   2.650  50.520  1.00  0.00     0.018 C 
HETATM    6  C6  UNL     1      21.305   3.791  50.434  1.00  0.00     0.090 C 
BRANCH   6   7
HETATM    7  N1  UNL     1      22.264   4.068  51.448  1.00  0.00    -0.350 N 
HETATM    8  H6  UNL     1      22.501   3.874  52.454  1.00  0.00     0.166 HD
BRANCH   7   9
HETATM    9  C7  UNL     1      23.349   4.907  51.077  1.00  0.00     0.143 C 
HETATM   10  C8  UNL     1      24.562   4.407  50.836  1.00  0.00     0.134 C 
HETATM   11  N2  UNL     1      25.803   5.056  50.450  1.00  0.00    -0.392 N 
HETATM   12  C9  UNL     1      25.885   5.466  49.049  1.00  0.00     0.158 C 
HETATM   13  H8  UNL     1      26.522   5.173  51.196  1.00  0.00     0.159 HD
HETATM   14  C10 UNL     1      27.066   6.330  48.811  1.00  0.00    -0.029 A 
HETATM   15  C11 UNL     1      28.223   5.733  48.367  1.00  0.00     0.028 A 
HETATM   16  C15 UNL     1      27.047   7.713  49.022  1.00  0.00     0.001 A 
HETATM   17  C12 UNL     1      29.411   6.383  48.099  1.00  0.00     0.011 A 
HETATM   18 BR1  UNL     1      30.921   5.427  47.492  1.00  0.00    -0.051 Br
HETATM   19  C13 UNL     1      29.409   7.748  48.303  1.00  0.00     0.020 A 
HETATM   20  C14 UNL     1      28.258   8.363  48.747  1.00  0.00     0.013 A 
HETATM   21  C16 UNL     1      26.004   8.636  49.482  1.00  0.00     0.298 C 
HETATM   22  N3  UNL     1      24.678   8.118  49.511  1.00  0.00    -0.154 NA
HETATM   23  N4  UNL     1      24.194   7.731  50.646  1.00  0.00    -0.145 NA
HETATM   24  C17 UNL     1      22.838   7.222  50.548  1.00  0.00     0.259 C 
HETATM   25  N5  UNL     1      23.595   6.258  50.850  1.00  0.00    -0.221 NA
BRANCH  21  26
HETATM   26  O1  UNL     1      26.295   9.144  50.770  1.00  0.00    -0.369 OA
HETATM   27  H15 UNL     1      25.656   8.777  51.412  1.00  0.00     0.212 HD
ENDBRANCH  21  26
ENDBRANCH   7   9
ENDBRANCH   6   7
ENDBRANCH   4   5
TORSDOF 4
ENDMDL
MODEL 6
REMARK VINA RESULT:      -7.2      4.491      7.924
REMARK  4 active torsions:
REMARK  status: ('A' for Active; 'I' for Inactive)
REMARK    1  A    between atoms: C4_4  and  C5_5 
REMARK    2  A    between atoms: C6_6  and  N1_7 
REMARK    3  A    between atoms: N1_7  and  C7_8 
REMARK    4  A    between atoms: C16_19  and  O1_20 
ROOT
HETATM    1  C1  UNL     1      30.526  -0.301  53.631  1.00  0.00     0.017 C 
HETATM    2  C2  UNL     1      29.438  -0.819  53.444  1.00  0.00    -0.089 C 
HETATM    3  C3  UNL     1      28.170  -1.440  53.213  1.00  0.00     0.063 C 
HETATM    4  C4  UNL     1      27.065  -0.724  52.968  1.00  0.00     0.010 C 
ENDROOT
BRANCH   4   5
HETATM    5  C5  UNL     1      25.772  -1.342  52.732  1.00  0.00     0.018 C 
HETATM    6  C6  UNL     1      24.640  -0.757  53.022  1.00  0.00     0.090 C 
BRANCH   6   7
HETATM    7  N1  UNL     1      24.722   0.543  53.595  1.00  0.00    -0.350 N 
HETATM    8  H6  UNL     1      24.896   1.052  54.499  1.00  0.00     0.166 HD
BRANCH   7   9
HETATM    9  C7  UNL     1      24.508   1.635  52.712  1.00  0.00     0.143 C 
HETATM   10  C8  UNL     1      25.476   2.516  52.452  1.00  0.00     0.134 C 
HETATM   11  N2  UNL     1      25.492   3.693  51.599  1.00  0.00    -0.392 N 
HETATM   12  C9  UNL     1      25.590   3.424  50.165  1.00  0.00     0.158 C 
HETATM   13  H8  UNL     1      25.433   4.617  52.077  1.00  0.00     0.159 HD
HETATM   14  C10 UNL     1      25.351   4.654  49.371  1.00  0.00    -0.029 A 
HETATM   15  C11 UNL     1      26.443   5.392  48.980  1.00  0.00     0.028 A 
HETATM   16  C15 UNL     1      24.069   5.087  49.015  1.00  0.00     0.001 A 
HETATM   17  C12 UNL     1      26.402   6.558  48.243  1.00  0.00     0.011 A 
HETATM   18 BR1  UNL     1      27.992   7.464  47.777  1.00  0.00    -0.051 Br
HETATM   19  C13 UNL     1      25.145   6.999  47.884  1.00  0.00     0.020 A 
HETATM   20  C14 UNL     1      24.039   6.271  48.267  1.00  0.00     0.013 A 
HETATM   21  C16 UNL     1      22.729   4.546  49.269  1.00  0.00     0.298 C 
HETATM   22  N3  UNL     1      22.674   3.213  49.767  1.00  0.00    -0.154 NA
HETATM   23  N4  UNL     1      22.486   3.038  51.034  1.00  0.00    -0.145 NA
HETATM   24  C17 UNL     1      22.451   1.639  51.420  1.00  0.00     0.259 C 
HETATM   25  N5  UNL     1      23.488   2.157  51.922  1.00  0.00    -0.221 NA
BRANCH  21  26
HETATM   26  O1  UNL     1      22.001   5.368  50.162  1.00  0.00    -0.369 OA
HETATM   27  H15 UNL     1      22.040   4.981  51.059  1.00  0.00     0.212 HD
ENDBRANCH  21  26
ENDBRANCH   7   9
ENDBRANCH   6   7
ENDBRANCH   4   5
TORSDOF 4
ENDMDL
MODEL 7
REMARK VINA RESULT:      -7.2      3.193      5.038
REMARK  4 active torsions:
REMARK  status: ('A' for Active; 'I' for Inactive)
REMARK    1  A    between atoms: C4_4  and  C5_5 
REMARK    2  A    between atoms: C6_6  and  N1_7 
REMARK    3  A    between atoms: N1_7  and  C7_8 
REMARK    4  A    between atoms: C16_19  and  O1_20 
ROOT
HETATM    1  C1  UNL     1      30.174  10.453  49.160  1.00  0.00     0.017 C 
HETATM    2  C2  UNL     1      30.195   9.273  48.856  1.00  0.00    -0.089 C 
HETATM    3  C3  UNL     1      30.230   7.893  48.481  1.00  0.00     0.063 C 
HETATM    4  C4  UNL     1      29.153   7.103  48.583  1.00  0.00     0.010 C 
ENDROOT
BRANCH   4   5
HETATM    5  C5  UNL     1      29.174   5.701  48.207  1.00  0.00     0.018 C 
HETATM    6  C6  UNL     1      28.239   4.857  48.552  1.00  0.00     0.090 C 
BRANCH   6   7
HETATM    7  N1  UNL     1      27.167   5.376  49.332  1.00  0.00    -0.350 N 
HETATM    8  H6  UNL     1      26.826   6.245  49.815  1.00  0.00     0.166 HD
BRANCH   7   9
HETATM    9  C7  UNL     1      26.111   4.473  49.630  1.00  0.00     0.143 C 
HETATM   10  C8  UNL     1      26.288   3.453  50.471  1.00  0.00     0.134 C 
HETATM   11  N2  UNL     1      25.373   2.417  50.922  1.00  0.00    -0.392 N 
HETATM   12  C9  UNL     1      24.390   2.841  51.917  1.00  0.00     0.158 C 
HETATM   13  H8  UNL     1      25.494   1.471  50.501  1.00  0.00     0.159 HD
HETATM   14  C10 UNL     1      23.357   1.798  52.128  1.00  0.00    -0.029 A 
HETATM   15  C11 UNL     1      23.539   0.908  53.160  1.00  0.00     0.028 A 
HETATM   16  C15 UNL     1      22.218   1.688  51.321  1.00  0.00     0.001 A 
HETATM   17  C12 UNL     1      22.682  -0.121  53.494  1.00  0.00     0.011 A 
HETATM   18 BR1  UNL     1      23.066  -1.267  54.944  1.00  0.00    -0.051 Br
HETATM   19  C13 UNL     1      21.554  -0.244  52.708  1.00  0.00     0.020 A 
HETATM   20  C14 UNL     1      21.355   0.641  51.670  1.00  0.00     0.013 A 
HETATM   21  C16 UNL     1      21.736   2.456  50.168  1.00  0.00     0.298 C 
HETATM   22  N3  UNL     1      22.391   3.696  49.923  1.00  0.00    -0.154 NA
HETATM   23  N4  UNL     1      23.293   3.743  48.998  1.00  0.00    -0.145 NA
HETATM   24  C17 UNL     1      23.889   5.058  48.844  1.00  0.00     0.259 C 
HETATM   25  N5  UNL     1      24.775   4.278  49.291  1.00  0.00    -0.221 NA
BRANCH  21  26
HETATM   26  O1  UNL     1      21.802   1.694  48.977  1.00  0.00    -0.369 OA
HETATM   27  H15 UNL     1      22.699   1.769  48.596  1.00  0.00     0.212 HD
ENDBRANCH  21  26
ENDBRANCH   7   9
ENDBRANCH   6   7
ENDBRANCH   4   5
TORSDOF 4
ENDMDL
MODEL 8
REMARK VINA RESULT:      -7.2      4.427      6.196
REMARK  4 active torsions:
REMARK  status: ('A' for Active; 'I' for Inactive)
REMARK    1  A    between atoms: C4_4  and  C5_5 
REMARK    2  A    between atoms: C6_6  and  N1_7 
REMARK    3  A    between atoms: N1_7  and  C7_8 
REMARK    4  A    between atoms: C16_19  and  O1_20 
ROOT
HETATM    1  C1  UNL     1      20.410   8.262  48.875  1.00  0.00     0.017 C 
HETATM    2  C2  UNL     1      21.535   8.312  49.343  1.00  0.00    -0.089 C 
HETATM    3  C3  UNL     1      22.851   8.387  49.899  1.00  0.00     0.063 C 
HETATM    4  C4  UNL     1      23.946   8.139  49.168  1.00  0.00     0.010 C 
ENDROOT
BRANCH   4   5
HETATM    5  C5  UNL     1      25.286   8.211  49.720  1.00  0.00     0.018 C 
HETATM    6  C6  UNL     1      26.178   7.271  49.551  1.00  0.00     0.090 C 
BRANCH   6   7
HETATM    7  N1  UNL     1      25.776   6.142  48.784  1.00  0.00    -0.350 N 
HETATM    8  H6  UNL     1      25.560   5.827  47.804  1.00  0.00     0.166 HD
BRANCH   7   9
HETATM    9  C7  UNL     1      25.560   4.937  49.504  1.00  0.00     0.143 C 
HETATM   10  C8  UNL     1      26.490   3.981  49.553  1.00  0.00     0.134 C 
HETATM   11  N2  UNL     1      26.495   2.687  50.213  1.00  0.00    -0.392 N 
HETATM   12  C9  UNL     1      26.705   2.723  51.659  1.00  0.00     0.158 C 
HETATM   13  H8  UNL     1      26.350   1.852  49.606  1.00  0.00     0.159 HD
HETATM   14  C10 UNL     1      26.449   1.397  52.272  1.00  0.00    -0.029 A 
HETATM   15  C11 UNL     1      27.521   0.557  52.463  1.00  0.00     0.028 A 
HETATM   16  C15 UNL     1      25.171   0.974  52.654  1.00  0.00     0.001 A 
HETATM   17  C12 UNL     1      27.461  -0.707  53.015  1.00  0.00     0.011 A 
HETATM   18 BR1  UNL     1      29.024  -1.748  53.216  1.00  0.00    -0.051 Br
HETATM   19  C13 UNL     1      26.208  -1.139  53.397  1.00  0.00     0.020 A 
HETATM   20  C14 UNL     1      25.123  -0.310  53.213  1.00  0.00     0.013 A 
HETATM   21  C16 UNL     1      23.850   1.610  52.588  1.00  0.00     0.298 C 
HETATM   22  N3  UNL     1      23.840   3.005  52.304  1.00  0.00    -0.154 NA
HETATM   23  N4  UNL     1      23.577   3.385  51.097  1.00  0.00    -0.145 NA
HETATM   24  C17 UNL     1      23.597   4.827  50.932  1.00  0.00     0.259 C 
HETATM   25  N5  UNL     1      24.566   4.346  50.280  1.00  0.00    -0.221 NA
BRANCH  21  26
HETATM   26  O1  UNL     1      23.018   0.973  51.637  1.00  0.00    -0.369 OA
HETATM   27  H15 UNL     1      22.228   0.616  52.088  1.00  0.00     0.212 HD
ENDBRANCH  21  26
ENDBRANCH   7   9
ENDBRANCH   6   7
ENDBRANCH   4   5
TORSDOF 4
ENDMDL
MODEL 9
REMARK VINA RESULT:      -7.2      2.916      4.739
REMARK  4 active torsions:
REMARK  status: ('A' for Active; 'I' for Inactive)
REMARK    1  A    between atoms: C4_4  and  C5_5 
REMARK    2  A    between atoms: C6_6  and  N1_7 
REMARK    3  A    between atoms: N1_7  and  C7_8 
REMARK    4  A    between atoms: C16_19  and  O1_20 
ROOT
HETATM    1  C1  UNL     1      32.328   4.462  47.252  1.00  0.00     0.017 C 
HETATM    2  C2  UNL     1      31.439   5.228  47.585  1.00  0.00    -0.089 C 
HETATM    3  C3  UNL     1      30.404   6.127  47.992  1.00  0.00     0.063 C 
HETATM    4  C4  UNL     1      29.108   5.858  47.786  1.00  0.00     0.010 C 
ENDROOT
BRANCH   4   5
HETATM    5  C5  UNL     1      28.049   6.762  48.194  1.00  0.00     0.018 C 
HETATM    6  C6  UNL     1      27.040   6.389  48.937  1.00  0.00     0.090 C 
BRANCH   6   7
HETATM    7  N1  UNL     1      27.017   5.025  49.342  1.00  0.00    -0.350 N 
HETATM    8  H6  UNL     1      27.616   4.164  49.424  1.00  0.00     0.166 HD
BRANCH   7   9
HETATM    9  C7  UNL     1      25.779   4.536  49.838  1.00  0.00     0.143 C 
HETATM   10  C8  UNL     1      25.638   3.265  50.219  1.00  0.00     0.134 C 
HETATM   11  N2  UNL     1      24.489   2.549  50.748  1.00  0.00    -0.392 N 
HETATM   12  C9  UNL     1      24.174   2.822  52.149  1.00  0.00     0.158 C 
HETATM   13  H8  UNL     1      23.994   1.909  50.091  1.00  0.00     0.159 HD
HETATM   14  C10 UNL     1      22.859   2.247  52.525  1.00  0.00    -0.029 A 
HETATM   15  C11 UNL     1      22.841   0.998  53.100  1.00  0.00     0.028 A 
HETATM   16  C15 UNL     1      21.651   2.922  52.314  1.00  0.00     0.001 A 
HETATM   17  C12 UNL     1      21.711   0.318  53.505  1.00  0.00     0.011 A 
HETATM   18 BR1  UNL     1      21.842  -1.398  54.284  1.00  0.00    -0.051 Br
HETATM   19  C13 UNL     1      20.511   0.968  53.304  1.00  0.00     0.020 A 
HETATM   20  C14 UNL     1      20.511   2.222  52.729  1.00  0.00     0.013 A 
HETATM   21  C16 UNL     1      21.329   4.231  51.737  1.00  0.00     0.298 C 
HETATM   22  N3  UNL     1      22.425   5.122  51.552  1.00  0.00    -0.154 NA
HETATM   23  N4  UNL     1      22.932   5.236  50.368  1.00  0.00    -0.145 NA
HETATM   24  C17 UNL     1      24.042   6.168  50.307  1.00  0.00     0.259 C 
HETATM   25  N5  UNL     1      24.495   5.009  50.094  1.00  0.00    -0.221 NA
BRANCH  21  26
HETATM   26  O1  UNL     1      20.670   4.099  50.491  1.00  0.00    -0.369 OA
HETATM   27  H15 UNL     1      21.306   4.274  49.770  1.00  0.00     0.212 HD
ENDBRANCH  21  26
ENDBRANCH   7   9
ENDBRANCH   6   7
ENDBRANCH   4   5
TORSDOF 4
ENDMDL
