MODEL 1
REMARK VINA RESULT:      -7.7      0.000      0.000
REMARK  2 active torsions:
REMARK  status: ('A' for Active; 'I' for Inactive)
REMARK    1  A    between atoms: O1_2  and  C2_3 
REMARK    2  A    between atoms: C14_19  and  O2_20 
ROOT
HETATM    1  C2  UNL     1      27.325  -0.151  53.252  1.00  0.00     0.097 C 
HETATM    2  C3  UNL     1      26.363  -1.079  53.391  1.00  0.00     0.015 C 
HETATM    3  C4  UNL     1      25.192  -0.576  52.655  1.00  0.00     0.059 C 
HETATM    4  C5  UNL     1      24.145   0.120  53.474  1.00  0.00     0.108 C 
HETATM    5  C6  UNL     1      23.029  -0.827  53.720  1.00  0.00    -0.003 C 
HETATM    6  C7  UNL     1      21.763  -0.837  53.323  1.00  0.00     0.009 C 
HETATM    7  C8  UNL     1      21.462   0.356  52.468  1.00  0.00     0.210 C 
HETATM    8  F1  UNL     1      21.896   0.125  51.182  1.00  0.00    -0.243 F 
HETATM    9  C9  UNL     1      22.260   1.504  53.033  1.00  0.00     0.161 C 
HETATM   10  N1  UNL     1      23.648   1.281  52.813  1.00  0.00    -0.375 N 
HETATM   11  C10 UNL     1      24.080   1.576  51.517  1.00  0.00     0.258 A 
HETATM   12  N2  UNL     1      23.105   2.408  50.797  1.00  0.00    -0.251 NA
HETATM   13  C11 UNL     1      23.744   3.408  50.345  1.00  0.00     0.230 A 
HETATM   14  N3  UNL     1      25.111   3.377  50.682  1.00  0.00    -0.243 NA
HETATM   15  C12 UNL     1      25.360   2.317  51.378  1.00  0.00     0.082 A 
HETATM   16  C13 UNL     1      26.733   2.086  51.913  1.00  0.00     0.071 C 
HETATM   17  C14 UNL     1      27.332   1.135  52.590  1.00  0.00     0.103 C 
ENDROOT
BRANCH   1  18
HETATM   18  O1  UNL     1      28.297  -0.798  53.959  1.00  0.00    -0.353 OA
HETATM   19  C1  UNL     1      29.264  -1.671  53.409  1.00  0.00     0.210 C 
ENDBRANCH   1  18
BRANCH  17  20
HETATM   20  O2  UNL     1      28.693   1.459  52.844  1.00  0.00    -0.353 OA
HETATM   21  C15 UNL     1      28.890   2.550  53.737  1.00  0.00     0.210 C 
ENDBRANCH  17  20
TORSDOF 2
ENDMDL
MODEL 2
REMARK VINA RESULT:      -7.6      2.888      5.313
REMARK  2 active torsions:
REMARK  status: ('A' for Active; 'I' for Inactive)
REMARK    1  A    between atoms: O1_2  and  C2_3 
REMARK    2  A    between atoms: C14_19  and  O2_20 
ROOT
HETATM    1  C2  UNL     1      25.230   3.632  50.681  1.00  0.00     0.097 C 
HETATM    2  C3  UNL     1      26.484   3.149  50.685  1.00  0.00     0.015 C 
HETATM    3  C4  UNL     1      26.440   1.887  51.442  1.00  0.00     0.059 C 
HETATM    4  C5  UNL     1      26.845   1.967  52.884  1.00  0.00     0.108 C 
HETATM    5  C6  UNL     1      28.241   1.480  53.012  1.00  0.00    -0.003 C 
HETATM    6  C7  UNL     1      28.765   0.419  53.612  1.00  0.00     0.009 C 
HETATM    7  C8  UNL     1      27.698  -0.405  54.266  1.00  0.00     0.210 C 
HETATM    8  F1  UNL     1      27.088  -1.204  53.325  1.00  0.00    -0.243 F 
HETATM    9  C9  UNL     1      26.669   0.563  54.798  1.00  0.00     0.161 C 
HETATM   10  N1  UNL     1      25.989   1.185  53.714  1.00  0.00    -0.375 N 
HETATM   11  C10 UNL     1      24.993   0.397  53.130  1.00  0.00     0.258 A 
HETATM   12  N2  UNL     1      24.611  -0.724  54.000  1.00  0.00    -0.251 NA
HETATM   13  C11 UNL     1      23.346  -0.681  54.115  1.00  0.00     0.230 A 
HETATM   14  N3  UNL     1      22.773   0.389  53.402  1.00  0.00    -0.243 NA
HETATM   15  C12 UNL     1      23.704   1.059  52.806  1.00  0.00     0.082 A 
HETATM   16  C13 UNL     1      23.356   2.285  52.031  1.00  0.00     0.071 C 
HETATM   17  C14 UNL     1      24.010   3.148  51.290  1.00  0.00     0.103 C 
ENDROOT
BRANCH   1  18
HETATM   18  O1  UNL     1      25.475   4.748  49.934  1.00  0.00    -0.353 OA
HETATM   19  C1  UNL     1      26.582   4.929  49.074  1.00  0.00     0.210 C 
ENDBRANCH   1  18
BRANCH  17  20
HETATM   20  O2  UNL     1      23.147   4.160  50.789  1.00  0.00    -0.353 OA
HETATM   21  C15 UNL     1      22.398   4.850  51.783  1.00  0.00     0.210 C 
ENDBRANCH  17  20
TORSDOF 2
ENDMDL
MODEL 3
REMARK VINA RESULT:      -7.5      2.700      4.815
REMARK  2 active torsions:
REMARK  status: ('A' for Active; 'I' for Inactive)
REMARK    1  A    between atoms: O1_2  and  C2_3 
REMARK    2  A    between atoms: C14_19  and  O2_20 
ROOT
HETATM    1  C2  UNL     1      25.784   0.667  52.170  1.00  0.00     0.097 C 
HETATM    2  C3  UNL     1      26.788   1.370  51.618  1.00  0.00     0.015 C 
HETATM    3  C4  UNL     1      26.278   2.737  51.424  1.00  0.00     0.059 C 
HETATM    4  C5  UNL     1      25.767   3.064  50.052  1.00  0.00     0.108 C 
HETATM    5  C6  UNL     1      26.813   3.826  49.325  1.00  0.00    -0.003 C 
HETATM    6  C7  UNL     1      26.861   5.075  48.881  1.00  0.00     0.009 C 
HETATM    7  C8  UNL     1      25.593   5.805  49.203  1.00  0.00     0.210 C 
HETATM    8  F1  UNL     1      25.628   6.239  50.509  1.00  0.00    -0.243 F 
HETATM    9  C9  UNL     1      24.472   4.804  49.071  1.00  0.00     0.161 C 
HETATM   10  N1  UNL     1      24.568   3.835  50.108  1.00  0.00    -0.375 N 
HETATM   11  C10 UNL     1      24.082   4.265  51.345  1.00  0.00     0.258 A 
HETATM   12  N2  UNL     1      23.236   5.458  51.209  1.00  0.00    -0.251 NA
HETATM   13  C11 UNL     1      22.143   5.201  51.805  1.00  0.00     0.230 A 
HETATM   14  N3  UNL     1      22.122   3.908  52.362  1.00  0.00    -0.243 NA
HETATM   15  C12 UNL     1      23.242   3.312  52.116  1.00  0.00     0.082 A 
HETATM   16  C13 UNL     1      23.442   1.899  52.549  1.00  0.00     0.071 C 
HETATM   17  C14 UNL     1      24.427   1.033  52.512  1.00  0.00     0.103 C 
ENDROOT
BRANCH   1  18
HETATM   18  O1  UNL     1      26.447  -0.521  52.288  1.00  0.00    -0.353 OA
HETATM   19  C1  UNL     1      27.659  -0.714  52.990  1.00  0.00     0.210 C 
ENDBRANCH   1  18
BRANCH  17  20
HETATM   20  O2  UNL     1      24.045  -0.212  53.080  1.00  0.00    -0.353 OA
HETATM   21  C15 UNL     1      22.641  -0.445  53.116  1.00  0.00     0.210 C 
ENDBRANCH  17  20
TORSDOF 2
ENDMDL
MODEL 4
REMARK VINA RESULT:      -7.5      1.661      2.300
REMARK  2 active torsions:
REMARK  status: ('A' for Active; 'I' for Inactive)
REMARK    1  A    between atoms: O1_2  and  C2_3 
REMARK    2  A    between atoms: C14_19  and  O2_20 
ROOT
HETATM    1  C2  UNL     1      25.942   0.193  54.351  1.00  0.00     0.097 C 
HETATM    2  C3  UNL     1      24.705  -0.235  54.047  1.00  0.00     0.015 C 
HETATM    3  C4  UNL     1      24.354   0.391  52.762  1.00  0.00     0.059 C 
HETATM    4  C5  UNL     1      23.521   1.636  52.838  1.00  0.00     0.108 C 
HETATM    5  C6  UNL     1      22.110   1.282  52.545  1.00  0.00    -0.003 C 
HETATM    6  C7  UNL     1      21.299   1.598  51.543  1.00  0.00     0.009 C 
HETATM    7  C8  UNL     1      21.995   2.482  50.553  1.00  0.00     0.210 C 
HETATM    8  F1  UNL     1      22.775   1.715  49.716  1.00  0.00    -0.243 F 
HETATM    9  C9  UNL     1      22.906   3.386  51.346  1.00  0.00     0.161 C 
HETATM   10  N1  UNL     1      23.967   2.624  51.911  1.00  0.00    -0.375 N 
HETATM   11  C10 UNL     1      24.996   2.316  51.017  1.00  0.00     0.258 A 
HETATM   12  N2  UNL     1      24.944   3.166  49.819  1.00  0.00    -0.251 NA
HETATM   13  C11 UNL     1      26.101   3.673  49.682  1.00  0.00     0.230 A 
HETATM   14  N3  UNL     1      26.995   3.265  50.689  1.00  0.00    -0.243 NA
HETATM   15  C12 UNL     1      26.391   2.466  51.506  1.00  0.00     0.082 A 
HETATM   16  C13 UNL     1      27.111   1.943  52.703  1.00  0.00     0.071 C 
HETATM   17  C14 UNL     1      26.835   1.109  53.678  1.00  0.00     0.103 C 
ENDROOT
BRANCH   1  18
HETATM   18  O1  UNL     1      26.083  -0.499  55.520  1.00  0.00    -0.353 OA
HETATM   19  C1  UNL     1      25.030  -1.102  56.245  1.00  0.00     0.210 C 
ENDBRANCH   1  18
BRANCH  17  20
HETATM   20  O2  UNL     1      27.927   0.988  54.580  1.00  0.00    -0.353 OA
HETATM   21  C15 UNL     1      29.208   0.937  53.963  1.00  0.00     0.210 C 
ENDBRANCH  17  20
TORSDOF 2
ENDMDL
MODEL 5
REMARK VINA RESULT:      -7.3      1.534      3.659
REMARK  2 active torsions:
REMARK  status: ('A' for Active; 'I' for Inactive)
REMARK    1  A    between atoms: O1_2  and  C2_3 
REMARK    2  A    between atoms: C14_19  and  O2_20 
ROOT
HETATM    1  C2  UNL     1      27.090   0.776  53.221  1.00  0.00     0.097 C 
HETATM    2  C3  UNL     1      26.908   2.086  52.984  1.00  0.00     0.015 C 
HETATM    3  C4  UNL     1      25.453   2.302  52.940  1.00  0.00     0.059 C 
HETATM    4  C5  UNL     1      24.830   2.330  51.576  1.00  0.00     0.108 C 
HETATM    5  C6  UNL     1      24.604   3.745  51.187  1.00  0.00    -0.003 C 
HETATM    6  C7  UNL     1      23.498   4.448  50.980  1.00  0.00     0.009 C 
HETATM    7  C8  UNL     1      22.280   3.602  51.192  1.00  0.00     0.210 C 
HETATM    8  F1  UNL     1      22.005   3.516  52.539  1.00  0.00    -0.243 F 
HETATM    9  C9  UNL     1      22.622   2.220  50.694  1.00  0.00     0.161 C 
HETATM   10  N1  UNL     1      23.590   1.625  51.550  1.00  0.00    -0.375 N 
HETATM   11  C10 UNL     1      23.068   1.104  52.737  1.00  0.00     0.258 A 
HETATM   12  N2  UNL     1      21.610   0.937  52.659  1.00  0.00    -0.251 NA
HETATM   13  C11 UNL     1      21.362  -0.262  52.999  1.00  0.00     0.230 A 
HETATM   14  N3  UNL     1      22.526  -0.988  53.314  1.00  0.00    -0.243 NA
HETATM   15  C12 UNL     1      23.562  -0.228  53.171  1.00  0.00     0.082 A 
HETATM   16  C13 UNL     1      24.928  -0.787  53.385  1.00  0.00     0.071 C 
HETATM   17  C14 UNL     1      26.151  -0.313  53.374  1.00  0.00     0.103 C 
ENDROOT
BRANCH   1  18
HETATM   18  O1  UNL     1      28.455   0.791  53.250  1.00  0.00    -0.353 OA
HETATM   19  C1  UNL     1      29.245   1.399  54.253  1.00  0.00     0.210 C 
ENDBRANCH   1  18
BRANCH  17  20
HETATM   20  O2  UNL     1      27.104  -1.333  53.644  1.00  0.00    -0.353 OA
HETATM   21  C15 UNL     1      27.215  -2.328  52.632  1.00  0.00     0.210 C 
ENDBRANCH  17  20
TORSDOF 2
ENDMDL
MODEL 6
REMARK VINA RESULT:      -7.2      2.135      3.753
REMARK  2 active torsions:
REMARK  status: ('A' for Active; 'I' for Inactive)
REMARK    1  A    between atoms: O1_2  and  C2_3 
REMARK    2  A    between atoms: C14_19  and  O2_20 
ROOT
HETATM    1  C2  UNL     1      23.945   0.049  53.522  1.00  0.00     0.097 C 
HETATM    2  C3  UNL     1      22.720   0.465  53.158  1.00  0.00     0.015 C 
HETATM    3  C4  UNL     1      22.919   1.443  52.076  1.00  0.00     0.059 C 
HETATM    4  C5  UNL     1      22.903   2.888  52.479  1.00  0.00     0.108 C 
HETATM    5  C6  UNL     1      21.573   3.457  52.147  1.00  0.00    -0.003 C 
HETATM    6  C7  UNL     1      21.189   4.383  51.277  1.00  0.00     0.009 C 
HETATM    7  C8  UNL     1      22.363   4.917  50.515  1.00  0.00     0.210 C 
HETATM    8  F1  UNL     1      22.685   4.051  49.494  1.00  0.00    -0.243 F 
HETATM    9  C9  UNL     1      23.523   4.957  51.479  1.00  0.00     0.161 C 
HETATM   10  N1  UNL     1      23.920   3.632  51.810  1.00  0.00    -0.375 N 
HETATM   11  C10 UNL     1      24.706   3.006  50.839  1.00  0.00     0.258 A 
HETATM   12  N2  UNL     1      25.266   3.977  49.888  1.00  0.00    -0.251 NA
HETATM   13  C11 UNL     1      26.518   3.766  49.847  1.00  0.00     0.230 A 
HETATM   14  N3  UNL     1      26.920   2.719  50.698  1.00  0.00    -0.243 NA
HETATM   15  C12 UNL     1      25.888   2.239  51.311  1.00  0.00     0.082 A 
HETATM   16  C13 UNL     1      26.061   1.157  52.322  1.00  0.00     0.071 C 
HETATM   17  C14 UNL     1      25.265   0.430  53.070  1.00  0.00     0.103 C 
ENDROOT
BRANCH   1  18
HETATM   18  O1  UNL     1      23.549  -0.838  54.482  1.00  0.00    -0.353 OA
HETATM   19  C1  UNL     1      22.215  -1.054  54.895  1.00  0.00     0.210 C 
ENDBRANCH   1  18
BRANCH  17  20
HETATM   20  O2  UNL     1      26.000  -0.474  53.884  1.00  0.00    -0.353 OA
HETATM   21  C15 UNL     1      26.953   0.138  54.745  1.00  0.00     0.210 C 
ENDBRANCH  17  20
TORSDOF 2
ENDMDL
MODEL 7
REMARK VINA RESULT:      -7.0      8.719     11.143
REMARK  2 active torsions:
REMARK  status: ('A' for Active; 'I' for Inactive)
REMARK    1  A    between atoms: O1_2  and  C2_3 
REMARK    2  A    between atoms: C14_19  and  O2_20 
ROOT
HETATM    1  C2  UNL     1      29.830   6.830  48.156  1.00  0.00     0.097 C 
HETATM    2  C3  UNL     1      29.876   5.490  48.062  1.00  0.00     0.015 C 
HETATM    3  C4  UNL     1      31.290   5.112  48.216  1.00  0.00     0.059 C 
HETATM    4  C5  UNL     1      32.052   4.873  46.946  1.00  0.00     0.108 C 
HETATM    5  C6  UNL     1      32.146   3.409  46.718  1.00  0.00    -0.003 C 
HETATM    6  C7  UNL     1      33.174   2.570  46.712  1.00  0.00     0.009 C 
HETATM    7  C8  UNL     1      34.455   3.294  46.995  1.00  0.00     0.210 C 
HETATM    8  F1  UNL     1      34.587   3.489  48.351  1.00  0.00    -0.243 F 
HETATM    9  C9  UNL     1      34.342   4.646  46.335  1.00  0.00     0.161 C 
HETATM   10  N1  UNL     1      33.364   5.430  47.009  1.00  0.00    -0.375 N 
HETATM   11  C10 UNL     1      33.811   6.011  48.198  1.00  0.00     0.258 A 
HETATM   12  N2  UNL     1      35.278   6.007  48.285  1.00  0.00    -0.251 NA
HETATM   13  C11 UNL     1      35.631   7.200  48.542  1.00  0.00     0.230 A 
HETATM   14  N3  UNL     1      34.536   8.080  48.645  1.00  0.00    -0.243 NA
HETATM   15  C12 UNL     1      33.438   7.428  48.446  1.00  0.00     0.082 A 
HETATM   16  C13 UNL     1      32.135   8.153  48.440  1.00  0.00     0.071 C 
HETATM   17  C14 UNL     1      30.871   7.819  48.323  1.00  0.00     0.103 C 
ENDROOT
BRANCH   1  18
HETATM   18  O1  UNL     1      28.478   6.968  48.018  1.00  0.00    -0.353 OA
HETATM   19  C1  UNL     1      27.509   6.070  48.522  1.00  0.00     0.210 C 
ENDBRANCH   1  18
BRANCH  17  20
HETATM   20  O2  UNL     1      30.026   8.960  48.380  1.00  0.00    -0.353 OA
HETATM   21  C15 UNL     1      30.386   9.920  49.367  1.00  0.00     0.210 C 
ENDBRANCH  17  20
TORSDOF 2
ENDMDL
MODEL 8
REMARK VINA RESULT:      -6.9      3.425      6.292
REMARK  2 active torsions:
REMARK  status: ('A' for Active; 'I' for Inactive)
REMARK    1  A    between atoms: O1_2  and  C2_3 
REMARK    2  A    between atoms: C14_19  and  O2_20 
ROOT
HETATM    1  C2  UNL     1      20.982   1.700  51.311  1.00  0.00     0.097 C 
HETATM    2  C3  UNL     1      21.898   2.134  50.428  1.00  0.00     0.015 C 
HETATM    3  C4  UNL     1      23.190   1.580  50.865  1.00  0.00     0.059 C 
HETATM    4  C5  UNL     1      24.059   2.493  51.679  1.00  0.00     0.108 C 
HETATM    5  C6  UNL     1      25.106   3.063  50.794  1.00  0.00    -0.003 C 
HETATM    6  C7  UNL     1      26.425   2.920  50.766  1.00  0.00     0.009 C 
HETATM    7  C8  UNL     1      26.885   1.999  51.854  1.00  0.00     0.210 C 
HETATM    8  F1  UNL     1      26.708   0.691  51.460  1.00  0.00    -0.243 F 
HETATM    9  C9  UNL     1      25.994   2.255  53.044  1.00  0.00     0.161 C 
HETATM   10  N1  UNL     1      24.675   1.802  52.764  1.00  0.00    -0.375 N 
HETATM   11  C10 UNL     1      24.502   0.421  52.890  1.00  0.00     0.258 A 
HETATM   12  N2  UNL     1      25.598  -0.195  53.651  1.00  0.00    -0.251 NA
HETATM   13  C11 UNL     1      25.059  -0.881  54.575  1.00  0.00     0.230 A 
HETATM   14  N3  UNL     1      23.653  -0.811  54.553  1.00  0.00    -0.243 NA
HETATM   15  C12 UNL     1      23.273  -0.051  53.579  1.00  0.00     0.082 A 
HETATM   16  C13 UNL     1      21.822   0.236  53.383  1.00  0.00     0.071 C 
HETATM   17  C14 UNL     1      21.103   0.897  52.507  1.00  0.00     0.103 C 
ENDROOT
BRANCH   1  18
HETATM   18  O1  UNL     1      19.891   2.282  50.731  1.00  0.00    -0.353 OA
HETATM   19  C1  UNL     1      19.361   1.944  49.464  1.00  0.00     0.210 C 
ENDBRANCH   1  18
BRANCH  17  20
HETATM   20  O2  UNL     1      19.719   0.844  52.827  1.00  0.00    -0.353 OA
HETATM   21  C15 UNL     1      19.210  -0.465  53.058  1.00  0.00     0.210 C 
ENDBRANCH  17  20
TORSDOF 2
ENDMDL
MODEL 9
REMARK VINA RESULT:      -6.8      2.981      5.644
REMARK  2 active torsions:
REMARK  status: ('A' for Active; 'I' for Inactive)
REMARK    1  A    between atoms: O1_2  and  C2_3 
REMARK    2  A    between atoms: C14_19  and  O2_20 
ROOT
HETATM    1  C2  UNL     1      21.212   0.317  51.996  1.00  0.00     0.097 C 
HETATM    2  C3  UNL     1      21.111   0.909  50.793  1.00  0.00     0.015 C 
HETATM    3  C4  UNL     1      22.450   1.429  50.473  1.00  0.00     0.059 C 
HETATM    4  C5  UNL     1      22.686   2.880  50.773  1.00  0.00     0.108 C 
HETATM    5  C6  UNL     1      22.570   3.650  49.509  1.00  0.00    -0.003 C 
HETATM    6  C7  UNL     1      23.455   4.338  48.799  1.00  0.00     0.009 C 
HETATM    7  C8  UNL     1      24.807   4.292  49.442  1.00  0.00     0.210 C 
HETATM    8  F1  UNL     1      25.431   3.106  49.123  1.00  0.00    -0.243 F 
HETATM    9  C9  UNL     1      24.578   4.315  50.933  1.00  0.00     0.161 C 
HETATM   10  N1  UNL     1      23.974   3.095  51.346  1.00  0.00    -0.375 N 
HETATM   11  C10 UNL     1      24.863   2.024  51.467  1.00  0.00     0.258 A 
HETATM   12  N2  UNL     1      26.258   2.482  51.520  1.00  0.00    -0.251 NA
HETATM   13  C11 UNL     1      26.777   1.948  52.550  1.00  0.00     0.230 A 
HETATM   14  N3  UNL     1      25.869   1.139  53.258  1.00  0.00    -0.243 NA
HETATM   15  C12 UNL     1      24.722   1.153  52.662  1.00  0.00     0.082 A 
HETATM   16  C13 UNL     1      23.568   0.419  53.256  1.00  0.00     0.071 C 
HETATM   17  C14 UNL     1      22.323   0.186  52.912  1.00  0.00     0.103 C 
ENDROOT
BRANCH   1  18
HETATM   18  O1  UNL     1      19.917  -0.105  52.092  1.00  0.00    -0.353 OA
HETATM   19  C1  UNL     1      18.872   0.253  51.209  1.00  0.00     0.210 C 
ENDBRANCH   1  18
BRANCH  17  20
HETATM   20  O2  UNL     1      21.651  -0.592  53.895  1.00  0.00    -0.353 OA
HETATM   21  C15 UNL     1      22.497  -1.155  54.891  1.00  0.00     0.210 C 
ENDBRANCH  17  20
TORSDOF 2
ENDMDL
