MODEL 1
REMARK VINA RESULT:      -8.8      0.000      0.000
REMARK  6 active torsions:
REMARK  status: ('A' for Active; 'I' for Inactive)
REMARK    1  A    between atoms: C6_6  and  O1_7 
REMARK    2  A    between atoms: C7_8  and  N1_9 
REMARK    3  A    between atoms: N1_9  and  C8_10 
REMARK    4  A    between atoms: N1_9  and  C15_18 
REMARK    5  A    between atoms: C8_10  and  C9_11 
REMARK    6  A    between atoms: C15_18  and  N2_20 
ROOT
HETATM    1  N1  UNL     1      25.757   2.024  51.393  1.00  0.00    -0.317 N 
ENDROOT
BRANCH   1   2
HETATM    2  C7  UNL     1      26.722   1.235  52.148  1.00  0.00     0.071 A 
HETATM    3  C6  UNL     1      27.754   1.664  52.958  1.00  0.00     0.098 A 
HETATM    4  C4  UNL     1      28.520   0.697  53.573  1.00  0.00    -0.026 A 
HETATM    5  C3  UNL     1      28.285  -0.643  53.403  1.00  0.00     0.016 A 
HETATM    6  C5  UNL     1      29.619   1.208  54.435  1.00  0.00     0.051 C 
HETATM    7  C2  UNL     1      27.256  -1.062  52.596  1.00  0.00    -0.059 A 
HETATM    8  C1  UNL     1      27.039  -2.536  52.440  1.00  0.00     0.048 C 
HETATM    9  C22 UNL     1      26.470  -0.128  51.963  1.00  0.00     0.039 A 
BRANCH   3  10
HETATM   10  O1  UNL     1      27.889   3.043  53.046  1.00  0.00    -0.358 OA
HETATM   11  H8  UNL     1      27.540   3.582  53.835  1.00  0.00     0.217 HD
ENDBRANCH   3  10
ENDBRANCH   1   2
BRANCH   1  12
HETATM   12  C8  UNL     1      26.583   2.426  50.271  1.00  0.00     0.170 C 
BRANCH  12  13
HETATM   13  C9  UNL     1      26.113   3.718  49.658  1.00  0.00    -0.040 A 
HETATM   14  C10 UNL     1      27.167   4.530  49.213  1.00  0.00     0.012 A 
HETATM   15  C11 UNL     1      27.003   5.748  48.631  1.00  0.00     0.043 A 
HETATM   16  C12 UNL     1      25.733   6.248  48.450  1.00  0.00     0.116 A 
HETATM   17  F1  UNL     1      25.422   7.440  47.888  1.00  0.00    -0.206 F 
HETATM   18  C13 UNL     1      24.693   5.460  48.882  1.00  0.00     0.043 A 
HETATM   19  C14 UNL     1      24.853   4.229  49.471  1.00  0.00     0.012 A 
ENDBRANCH  12  13
ENDBRANCH   1  12
BRANCH   1  20
HETATM   20  C15 UNL     1      24.409   2.162  51.911  1.00  0.00     0.181 C 
HETATM   21  S1  UNL     1      24.363   3.324  53.107  1.00  0.00    -0.040 SA
BRANCH  20  22
HETATM   22  N2  UNL     1      23.134   1.557  51.651  1.00  0.00    -0.326 N 
HETATM   23  C16 UNL     1      22.491   1.505  50.388  1.00  0.00     0.094 A 
HETATM   24  C17 UNL     1      21.347   0.979  50.067  1.00  0.00     0.017 A 
HETATM   25  C18 UNL     1      20.579   0.345  51.117  1.00  0.00    -0.001 A 
HETATM   26  C19 UNL     1      21.175   0.393  52.292  1.00  0.00    -0.002 A 
HETATM   27  C20 UNL     1      22.456   0.957  52.757  1.00  0.00     0.110 A 
HETATM   28  C21 UNL     1      23.256  -0.204  53.350  1.00  0.00     0.037 C 
ENDBRANCH  20  22
ENDBRANCH   1  20
TORSDOF 6
ENDMDL
MODEL 2
REMARK VINA RESULT:      -8.5      2.905      5.758
REMARK  6 active torsions:
REMARK  status: ('A' for Active; 'I' for Inactive)
REMARK    1  A    between atoms: C6_6  and  O1_7 
REMARK    2  A    between atoms: C7_8  and  N1_9 
REMARK    3  A    between atoms: N1_9  and  C8_10 
REMARK    4  A    between atoms: N1_9  and  C15_18 
REMARK    5  A    between atoms: C8_10  and  C9_11 
REMARK    6  A    between atoms: C15_18  and  N2_20 
ROOT
HETATM    1  N1  UNL     1      24.301   2.339  52.298  1.00  0.00    -0.317 N 
ENDROOT
BRANCH   1   2
HETATM    2  C7  UNL     1      24.503   3.574  51.550  1.00  0.00     0.071 A 
HETATM    3  C6  UNL     1      23.796   4.757  51.616  1.00  0.00     0.098 A 
HETATM    4  C4  UNL     1      24.210   5.787  50.798  1.00  0.00    -0.026 A 
HETATM    5  C3  UNL     1      25.276   5.664  49.945  1.00  0.00     0.016 A 
HETATM    6  C5  UNL     1      23.418   7.042  50.904  1.00  0.00     0.051 C 
HETATM    7  C2  UNL     1      25.974   4.483  49.884  1.00  0.00    -0.059 A 
HETATM    8  C1  UNL     1      27.130   4.396  48.937  1.00  0.00     0.048 C 
HETATM    9  C22 UNL     1      25.592   3.432  50.685  1.00  0.00     0.039 A 
BRANCH   3  10
HETATM   10  O1  UNL     1      22.739   4.754  52.515  1.00  0.00    -0.358 OA
HETATM   11  H8  UNL     1      22.806   5.160  53.447  1.00  0.00     0.217 HD
ENDBRANCH   3  10
ENDBRANCH   1   2
BRANCH   1  12
HETATM   12  C8  UNL     1      25.441   2.395  53.191  1.00  0.00     0.170 C 
BRANCH  12  13
HETATM   13  C9  UNL     1      26.291   1.156  53.102  1.00  0.00    -0.040 A 
HETATM   14  C10 UNL     1      27.329   1.132  54.046  1.00  0.00     0.012 A 
HETATM   15  C11 UNL     1      28.235   0.126  54.164  1.00  0.00     0.043 A 
HETATM   16  C12 UNL     1      28.160  -0.957  53.316  1.00  0.00     0.116 A 
HETATM   17  F1  UNL     1      28.991  -2.026  53.319  1.00  0.00    -0.206 F 
HETATM   18  C13 UNL     1      27.148  -0.943  52.387  1.00  0.00     0.043 A 
HETATM   19  C14 UNL     1      26.229   0.071  52.264  1.00  0.00     0.012 A 
ENDBRANCH  12  13
ENDBRANCH   1  12
BRANCH   1  20
HETATM   20  C15 UNL     1      23.155   1.509  51.979  1.00  0.00     0.181 C 
HETATM   21  S1  UNL     1      22.720   1.707  50.381  1.00  0.00    -0.040 SA
BRANCH  20  22
HETATM   22  N2  UNL     1      22.323   0.578  52.687  1.00  0.00    -0.326 N 
HETATM   23  C16 UNL     1      22.783  -0.412  53.592  1.00  0.00     0.094 A 
HETATM   24  C17 UNL     1      22.104  -1.287  54.272  1.00  0.00     0.017 A 
HETATM   25  C18 UNL     1      20.665  -1.291  54.115  1.00  0.00    -0.001 A 
HETATM   26  C19 UNL     1      20.236  -0.371  53.272  1.00  0.00    -0.002 A 
HETATM   27  C20 UNL     1      20.913   0.656  52.461  1.00  0.00     0.110 A 
HETATM   28  C21 UNL     1      20.344   2.007  52.899  1.00  0.00     0.037 C 
ENDBRANCH  20  22
ENDBRANCH   1  20
TORSDOF 6
ENDMDL
MODEL 3
REMARK VINA RESULT:      -8.3      2.760      6.643
REMARK  6 active torsions:
REMARK  status: ('A' for Active; 'I' for Inactive)
REMARK    1  A    between atoms: C6_6  and  O1_7 
REMARK    2  A    between atoms: C7_8  and  N1_9 
REMARK    3  A    between atoms: N1_9  and  C8_10 
REMARK    4  A    between atoms: N1_9  and  C15_18 
REMARK    5  A    between atoms: C8_10  and  C9_11 
REMARK    6  A    between atoms: C15_18  and  N2_20 
ROOT
HETATM    1  N1  UNL     1      23.739   1.494  52.495  1.00  0.00    -0.317 N 
ENDROOT
BRANCH   1   2
HETATM    2  C7  UNL     1      22.463   1.167  51.872  1.00  0.00     0.071 A 
HETATM    3  C6  UNL     1      21.303   0.699  52.457  1.00  0.00     0.098 A 
HETATM    4  C4  UNL     1      20.222   0.479  51.629  1.00  0.00    -0.026 A 
HETATM    5  C3  UNL     1      20.274   0.708  50.279  1.00  0.00     0.016 A 
HETATM    6  C5  UNL     1      18.996  -0.024  52.305  1.00  0.00     0.051 C 
HETATM    7  C2  UNL     1      21.430   1.172  49.705  1.00  0.00    -0.059 A 
HETATM    8  C1  UNL     1      21.438   1.406  48.225  1.00  0.00     0.048 C 
HETATM    9  C22 UNL     1      22.532   1.404  50.496  1.00  0.00     0.039 A 
BRANCH   3  10
HETATM   10  O1  UNL     1      21.380   0.506  53.829  1.00  0.00    -0.358 OA
HETATM   11  H8  UNL     1      22.264   0.466  54.332  1.00  0.00     0.217 HD
ENDBRANCH   3  10
ENDBRANCH   1   2
BRANCH   1  12
HETATM   12  C8  UNL     1      23.995   0.260  53.211  1.00  0.00     0.170 C 
BRANCH  12  13
HETATM   13  C9  UNL     1      25.451   0.100  53.559  1.00  0.00    -0.040 A 
HETATM   14  C10 UNL     1      26.147  -0.714  52.653  1.00  0.00     0.012 A 
HETATM   15  C11 UNL     1      27.468  -1.017  52.752  1.00  0.00     0.043 A 
HETATM   16  C12 UNL     1      28.203  -0.509  53.800  1.00  0.00     0.116 A 
HETATM   17  F1  UNL     1      29.521  -0.726  54.024  1.00  0.00    -0.206 F 
HETATM   18  C13 UNL     1      27.531   0.289  54.694  1.00  0.00     0.043 A 
HETATM   19  C14 UNL     1      26.196   0.599  54.598  1.00  0.00     0.012 A 
ENDBRANCH  12  13
ENDBRANCH   1  12
BRANCH   1  20
HETATM   20  C15 UNL     1      24.322   2.800  52.250  1.00  0.00     0.181 C 
HETATM   21  S1  UNL     1      24.067   3.805  53.556  1.00  0.00    -0.040 SA
BRANCH  20  22
HETATM   22  N2  UNL     1      25.048   3.424  51.180  1.00  0.00    -0.326 N 
HETATM   23  C16 UNL     1      24.725   4.669  50.584  1.00  0.00     0.094 A 
HETATM   24  C17 UNL     1      25.325   5.302  49.620  1.00  0.00     0.017 A 
HETATM   25  C18 UNL     1      26.497   4.684  49.037  1.00  0.00    -0.001 A 
HETATM   26  C19 UNL     1      26.798   3.526  49.591  1.00  0.00    -0.002 A 
HETATM   27  C20 UNL     1      26.192   2.731  50.674  1.00  0.00     0.110 A 
HETATM   28  C21 UNL     1      27.269   2.559  51.747  1.00  0.00     0.037 C 
ENDBRANCH  20  22
ENDBRANCH   1  20
TORSDOF 6
ENDMDL
MODEL 4
REMARK VINA RESULT:      -8.1      2.594      6.364
REMARK  6 active torsions:
REMARK  status: ('A' for Active; 'I' for Inactive)
REMARK    1  A    between atoms: C6_6  and  O1_7 
REMARK    2  A    between atoms: C7_8  and  N1_9 
REMARK    3  A    between atoms: N1_9  and  C8_10 
REMARK    4  A    between atoms: N1_9  and  C15_18 
REMARK    5  A    between atoms: C8_10  and  C9_11 
REMARK    6  A    between atoms: C15_18  and  N2_20 
ROOT
HETATM    1  N1  UNL     1      24.357   1.894  51.723  1.00  0.00    -0.317 N 
ENDROOT
BRANCH   1   2
HETATM    2  C7  UNL     1      22.992   1.387  51.789  1.00  0.00     0.071 A 
HETATM    3  C6  UNL     1      22.030   1.347  50.800  1.00  0.00     0.098 A 
HETATM    4  C4  UNL     1      20.808   0.797  51.128  1.00  0.00    -0.026 A 
HETATM    5  C3  UNL     1      20.537   0.306  52.379  1.00  0.00     0.016 A 
HETATM    6  C5  UNL     1      19.805   0.775  50.031  1.00  0.00     0.051 C 
HETATM    7  C2  UNL     1      21.499   0.351  53.357  1.00  0.00    -0.059 A 
HETATM    8  C1  UNL     1      21.156  -0.197  54.709  1.00  0.00     0.048 C 
HETATM    9  C22 UNL     1      22.730   0.892  53.070  1.00  0.00     0.039 A 
BRANCH   3  10
HETATM   10  O1  UNL     1      22.426   1.876  49.580  1.00  0.00    -0.358 OA
HETATM   11  H8  UNL     1      23.300   1.620  49.125  1.00  0.00     0.217 HD
ENDBRANCH   3  10
ENDBRANCH   1   2
BRANCH   1  12
HETATM   12  C8  UNL     1      25.093   0.666  51.951  1.00  0.00     0.170 C 
BRANCH  12  13
HETATM   13  C9  UNL     1      26.429   0.919  52.597  1.00  0.00    -0.040 A 
HETATM   14  C10 UNL     1      27.210  -0.241  52.717  1.00  0.00     0.012 A 
HETATM   15  C11 UNL     1      28.450  -0.276  53.271  1.00  0.00     0.043 A 
HETATM   16  C12 UNL     1      29.008   0.886  53.758  1.00  0.00     0.116 A 
HETATM   17  F1  UNL     1      30.229   0.999  54.333  1.00  0.00    -0.206 F 
HETATM   18  C13 UNL     1      28.251   2.027  53.646  1.00  0.00     0.043 A 
HETATM   19  C14 UNL     1      26.998   2.068  53.086  1.00  0.00     0.012 A 
ENDBRANCH  12  13
ENDBRANCH   1  12
BRANCH   1  20
HETATM   20  C15 UNL     1      24.566   3.308  51.474  1.00  0.00     0.181 C 
HETATM   21  S1  UNL     1      23.746   4.224  52.601  1.00  0.00    -0.040 SA
BRANCH  20  22
HETATM   22  N2  UNL     1      25.292   4.093  50.517  1.00  0.00    -0.326 N 
HETATM   23  C16 UNL     1      26.515   3.719  49.905  1.00  0.00     0.094 A 
HETATM   24  C17 UNL     1      27.232   4.364  49.034  1.00  0.00     0.017 A 
HETATM   25  C18 UNL     1      26.754   5.657  48.595  1.00  0.00    -0.001 A 
HETATM   26  C19 UNL     1      25.617   6.008  49.164  1.00  0.00    -0.002 A 
HETATM   27  C20 UNL     1      24.735   5.358  50.150  1.00  0.00     0.110 A 
HETATM   28  C21 UNL     1      23.369   5.202  49.480  1.00  0.00     0.037 C 
ENDBRANCH  20  22
ENDBRANCH   1  20
TORSDOF 6
ENDMDL
MODEL 5
REMARK VINA RESULT:      -8.1      2.245      5.042
REMARK  6 active torsions:
REMARK  status: ('A' for Active; 'I' for Inactive)
REMARK    1  A    between atoms: C6_6  and  O1_7 
REMARK    2  A    between atoms: C7_8  and  N1_9 
REMARK    3  A    between atoms: N1_9  and  C8_10 
REMARK    4  A    between atoms: N1_9  and  C15_18 
REMARK    5  A    between atoms: C8_10  and  C9_11 
REMARK    6  A    between atoms: C15_18  and  N2_20 
ROOT
HETATM    1  N1  UNL     1      23.525   2.252  51.067  1.00  0.00    -0.317 N 
ENDROOT
BRANCH   1   2
HETATM    2  C7  UNL     1      23.889   1.246  52.058  1.00  0.00     0.071 A 
HETATM    3  C6  UNL     1      25.128   0.703  52.332  1.00  0.00     0.098 A 
HETATM    4  C4  UNL     1      25.198  -0.233  53.342  1.00  0.00    -0.026 A 
HETATM    5  C3  UNL     1      24.096  -0.626  54.056  1.00  0.00     0.016 A 
HETATM    6  C5  UNL     1      26.553  -0.789  53.601  1.00  0.00     0.051 C 
HETATM    7  C2  UNL     1      22.867  -0.082  53.776  1.00  0.00    -0.059 A 
HETATM    8  C1  UNL     1      21.692  -0.543  54.583  1.00  0.00     0.048 C 
HETATM    9  C22 UNL     1      22.755   0.856  52.776  1.00  0.00     0.039 A 
BRANCH   3  10
HETATM   10  O1  UNL     1      26.161   1.182  51.539  1.00  0.00    -0.358 OA
HETATM   11  H8  UNL     1      26.886   1.803  51.892  1.00  0.00     0.217 HD
ENDBRANCH   3  10
ENDBRANCH   1   2
BRANCH   1  12
HETATM   12  C8  UNL     1      22.543   1.509  50.302  1.00  0.00     0.170 C 
BRANCH  12  13
HETATM   13  C9  UNL     1      22.068   2.275  49.096  1.00  0.00    -0.040 A 
HETATM   14  C10 UNL     1      20.891   3.001  49.335  1.00  0.00     0.012 A 
HETATM   15  C11 UNL     1      20.260   3.765  48.406  1.00  0.00     0.043 A 
HETATM   16  C12 UNL     1      20.782   3.857  47.135  1.00  0.00     0.116 A 
HETATM   17  F1  UNL     1      20.262   4.577  46.113  1.00  0.00    -0.206 F 
HETATM   18  C13 UNL     1      21.934   3.150  46.890  1.00  0.00     0.043 A 
HETATM   19  C14 UNL     1      22.577   2.375  47.825  1.00  0.00     0.012 A 
ENDBRANCH  12  13
ENDBRANCH   1  12
BRANCH   1  20
HETATM   20  C15 UNL     1      24.166   3.552  51.123  1.00  0.00     0.181 C 
HETATM   21  S1  UNL     1      23.698   4.372  52.499  1.00  0.00    -0.040 SA
BRANCH  20  22
HETATM   22  N2  UNL     1      25.084   4.288  50.303  1.00  0.00    -0.326 N 
HETATM   23  C16 UNL     1      26.294   3.782  49.765  1.00  0.00     0.094 A 
HETATM   24  C17 UNL     1      27.176   4.374  49.016  1.00  0.00     0.017 A 
HETATM   25  C18 UNL     1      26.933   5.754  48.655  1.00  0.00    -0.001 A 
HETATM   26  C19 UNL     1      25.808   6.228  49.155  1.00  0.00    -0.002 A 
HETATM   27  C20 UNL     1      24.751   5.646  50.003  1.00  0.00     0.110 A 
HETATM   28  C21 UNL     1      23.447   5.747  49.209  1.00  0.00     0.037 C 
ENDBRANCH  20  22
ENDBRANCH   1  20
TORSDOF 6
ENDMDL
MODEL 6
REMARK VINA RESULT:      -7.9      2.302      5.403
REMARK  6 active torsions:
REMARK  status: ('A' for Active; 'I' for Inactive)
REMARK    1  A    between atoms: C6_6  and  O1_7 
REMARK    2  A    between atoms: C7_8  and  N1_9 
REMARK    3  A    between atoms: N1_9  and  C8_10 
REMARK    4  A    between atoms: N1_9  and  C15_18 
REMARK    5  A    between atoms: C8_10  and  C9_11 
REMARK    6  A    between atoms: C15_18  and  N2_20 
ROOT
HETATM    1  N1  UNL     1      24.632   2.758  52.430  1.00  0.00    -0.317 N 
ENDROOT
BRANCH   1   2
HETATM    2  C7  UNL     1      23.518   1.940  51.966  1.00  0.00     0.071 A 
HETATM    3  C6  UNL     1      22.964   1.858  50.705  1.00  0.00     0.098 A 
HETATM    4  C4  UNL     1      21.912   0.984  50.532  1.00  0.00    -0.026 A 
HETATM    5  C3  UNL     1      21.419   0.218  51.556  1.00  0.00     0.016 A 
HETATM    6  C5  UNL     1      21.348   0.931  49.156  1.00  0.00     0.051 C 
HETATM    7  C2  UNL     1      21.975   0.305  52.808  1.00  0.00    -0.059 A 
HETATM    8  C1  UNL     1      21.402  -0.551  53.895  1.00  0.00     0.048 C 
HETATM    9  C22 UNL     1      23.026   1.166  53.021  1.00  0.00     0.039 A 
BRANCH   3  10
HETATM   10  O1  UNL     1      23.551   2.685  49.757  1.00  0.00    -0.358 OA
HETATM   11  H8  UNL     1      24.258   3.378  49.991  1.00  0.00     0.217 HD
ENDBRANCH   3  10
ENDBRANCH   1   2
BRANCH   1  12
HETATM   12  C8  UNL     1      23.911   3.762  53.186  1.00  0.00     0.170 C 
BRANCH  12  13
HETATM   13  C9  UNL     1      23.296   4.808  52.293  1.00  0.00    -0.040 A 
HETATM   14  C10 UNL     1      24.244   5.679  51.735  1.00  0.00     0.012 A 
HETATM   15  C11 UNL     1      23.940   6.710  50.903  1.00  0.00     0.043 A 
HETATM   16  C12 UNL     1      22.626   6.944  50.564  1.00  0.00     0.116 A 
HETATM   17  F1  UNL     1      22.180   7.930  49.750  1.00  0.00    -0.206 F 
HETATM   18  C13 UNL     1      21.690   6.097  51.106  1.00  0.00     0.043 A 
HETATM   19  C14 UNL     1      21.991   5.053  51.947  1.00  0.00     0.012 A 
ENDBRANCH  12  13
ENDBRANCH   1  12
BRANCH   1  20
HETATM   20  C15 UNL     1      25.981   2.379  52.054  1.00  0.00     0.181 C 
HETATM   21  S1  UNL     1      26.348   2.966  50.536  1.00  0.00    -0.040 SA
BRANCH  20  22
HETATM   22  N2  UNL     1      27.053   1.640  52.656  1.00  0.00    -0.326 N 
HETATM   23  C16 UNL     1      28.030   2.174  53.533  1.00  0.00     0.094 A 
HETATM   24  C17 UNL     1      29.026   1.580  54.120  1.00  0.00     0.017 A 
HETATM   25  C18 UNL     1      29.206   0.166  53.871  1.00  0.00    -0.001 A 
HETATM   26  C19 UNL     1      28.298  -0.334  53.054  1.00  0.00    -0.002 A 
HETATM   27  C20 UNL     1      27.144   0.246  52.345  1.00  0.00     0.110 A 
HETATM   28  C21 UNL     1      25.908  -0.520  52.819  1.00  0.00     0.037 C 
ENDBRANCH  20  22
ENDBRANCH   1  20
TORSDOF 6
ENDMDL
MODEL 7
REMARK VINA RESULT:      -7.9      2.569      5.603
REMARK  6 active torsions:
REMARK  status: ('A' for Active; 'I' for Inactive)
REMARK    1  A    between atoms: C6_6  and  O1_7 
REMARK    2  A    between atoms: C7_8  and  N1_9 
REMARK    3  A    between atoms: N1_9  and  C8_10 
REMARK    4  A    between atoms: N1_9  and  C15_18 
REMARK    5  A    between atoms: C8_10  and  C9_11 
REMARK    6  A    between atoms: C15_18  and  N2_20 
ROOT
HETATM    1  N1  UNL     1      24.476   2.388  51.162  1.00  0.00    -0.317 N 
ENDROOT
BRANCH   1   2
HETATM    2  C7  UNL     1      24.147   3.333  50.103  1.00  0.00     0.071 A 
HETATM    3  C6  UNL     1      24.711   4.563  49.828  1.00  0.00     0.098 A 
HETATM    4  C4  UNL     1      24.215   5.258  48.745  1.00  0.00    -0.026 A 
HETATM    5  C3  UNL     1      23.203   4.768  47.960  1.00  0.00     0.016 A 
HETATM    6  C5  UNL     1      24.853   6.576  48.488  1.00  0.00     0.051 C 
HETATM    7  C2  UNL     1      22.648   3.545  48.240  1.00  0.00    -0.059 A 
HETATM    8  C1  UNL     1      21.545   3.052  47.354  1.00  0.00     0.048 C 
HETATM    9  C22 UNL     1      23.114   2.821  49.312  1.00  0.00     0.039 A 
BRANCH   3  10
HETATM   10  O1  UNL     1      25.723   4.947  50.696  1.00  0.00    -0.358 OA
HETATM   11  H8  UNL     1      26.363   5.712  50.494  1.00  0.00     0.217 HD
ENDBRANCH   3  10
ENDBRANCH   1   2
BRANCH   1  12
HETATM   12  C8  UNL     1      25.714   1.844  50.640  1.00  0.00     0.170 C 
BRANCH  12  13
HETATM   13  C9  UNL     1      26.665   1.446  51.738  1.00  0.00    -0.040 A 
HETATM   14  C10 UNL     1      26.755   0.057  51.909  1.00  0.00     0.012 A 
HETATM   15  C11 UNL     1      27.539  -0.551  52.838  1.00  0.00     0.043 A 
HETATM   16  C12 UNL     1      28.308   0.217  53.684  1.00  0.00     0.116 A 
HETATM   17  F1  UNL     1      29.131  -0.251  54.653  1.00  0.00    -0.206 F 
HETATM   18  C13 UNL     1      28.226   1.579  53.525  1.00  0.00     0.043 A 
HETATM   19  C14 UNL     1      27.436   2.199  52.588  1.00  0.00     0.012 A 
ENDBRANCH  12  13
ENDBRANCH   1  12
BRANCH   1  20
HETATM   20  C15 UNL     1      23.583   2.275  52.300  1.00  0.00     0.181 C 
HETATM   21  S1  UNL     1      23.951   3.433  53.444  1.00  0.00    -0.040 SA
BRANCH  20  22
HETATM   22  N2  UNL     1      22.486   1.430  52.674  1.00  0.00    -0.326 N 
HETATM   23  C16 UNL     1      21.199   1.442  52.078  1.00  0.00     0.094 A 
HETATM   24  C17 UNL     1      20.157   0.716  52.352  1.00  0.00     0.017 A 
HETATM   25  C18 UNL     1      20.278  -0.261  53.412  1.00  0.00    -0.001 A 
HETATM   26  C19 UNL     1      21.474  -0.274  53.968  1.00  0.00    -0.002 A 
HETATM   27  C20 UNL     1      22.708   0.498  53.735  1.00  0.00     0.110 A 
HETATM   28  C21 UNL     1      23.798  -0.516  53.379  1.00  0.00     0.037 C 
ENDBRANCH  20  22
ENDBRANCH   1  20
TORSDOF 6
ENDMDL
MODEL 8
REMARK VINA RESULT:      -7.9      6.053     10.195
REMARK  6 active torsions:
REMARK  status: ('A' for Active; 'I' for Inactive)
REMARK    1  A    between atoms: C6_6  and  O1_7 
REMARK    2  A    between atoms: C7_8  and  N1_9 
REMARK    3  A    between atoms: N1_9  and  C8_10 
REMARK    4  A    between atoms: N1_9  and  C15_18 
REMARK    5  A    between atoms: C8_10  and  C9_11 
REMARK    6  A    between atoms: C15_18  and  N2_20 
ROOT
HETATM    1  N1  UNL     1      30.786   7.185  47.760  1.00  0.00    -0.317 N 
ENDROOT
BRANCH   1   2
HETATM    2  C7  UNL     1      31.154   8.595  47.768  1.00  0.00     0.071 A 
HETATM    3  C6  UNL     1      30.712   9.605  48.599  1.00  0.00     0.098 A 
HETATM    4  C4  UNL     1      31.237  10.864  48.398  1.00  0.00    -0.026 A 
HETATM    5  C3  UNL     1      32.159  11.127  47.419  1.00  0.00     0.016 A 
HETATM    6  C5  UNL     1      30.731  11.918  49.318  1.00  0.00     0.051 C 
HETATM    7  C2  UNL     1      32.593  10.118  46.596  1.00  0.00    -0.059 A 
HETATM    8  C1  UNL     1      33.600  10.454  45.540  1.00  0.00     0.048 C 
HETATM    9  C22 UNL     1      32.093   8.847  46.764  1.00  0.00     0.039 A 
BRANCH   3  10
HETATM   10  O1  UNL     1      29.779   9.211  49.547  1.00  0.00    -0.358 OA
HETATM   11  H8  UNL     1      30.032   8.961  50.501  1.00  0.00     0.217 HD
ENDBRANCH   3  10
ENDBRANCH   1   2
BRANCH   1  12
HETATM   12  C8  UNL     1      29.489   7.266  47.119  1.00  0.00     0.170 C 
BRANCH  12  13
HETATM   13  C9  UNL     1      28.456   6.427  47.825  1.00  0.00    -0.040 A 
HETATM   14  C10 UNL     1      27.242   7.102  48.022  1.00  0.00     0.012 A 
HETATM   15  C11 UNL     1      26.158   6.563  48.640  1.00  0.00     0.043 A 
HETATM   16  C12 UNL     1      26.221   5.273  49.118  1.00  0.00     0.116 A 
HETATM   17  F1  UNL     1      25.224   4.612  49.752  1.00  0.00    -0.206 F 
HETATM   18  C13 UNL     1      27.406   4.604  48.931  1.00  0.00     0.043 A 
HETATM   19  C14 UNL     1      28.505   5.143  48.306  1.00  0.00     0.012 A 
ENDBRANCH  12  13
ENDBRANCH   1  12
BRANCH   1  20
HETATM   20  C15 UNL     1      31.711   6.218  48.321  1.00  0.00     0.181 C 
HETATM   21  S1  UNL     1      31.786   6.381  49.979  1.00  0.00    -0.040 SA
BRANCH  20  22
HETATM   22  N2  UNL     1      32.558   5.179  47.809  1.00  0.00    -0.326 N 
HETATM   23  C16 UNL     1      32.142   4.124  46.958  1.00  0.00     0.094 A 
HETATM   24  C17 UNL     1      32.838   3.150  46.451  1.00  0.00     0.017 A 
HETATM   25  C18 UNL     1      34.247   3.092  46.774  1.00  0.00    -0.001 A 
HETATM   26  C19 UNL     1      34.636   4.073  47.566  1.00  0.00    -0.002 A 
HETATM   27  C20 UNL     1      33.937   5.211  48.188  1.00  0.00     0.110 A 
HETATM   28  C21 UNL     1      34.632   6.479  47.688  1.00  0.00     0.037 C 
ENDBRANCH  20  22
ENDBRANCH   1  20
TORSDOF 6
ENDMDL
MODEL 9
REMARK VINA RESULT:      -7.8      2.905      5.706
REMARK  6 active torsions:
REMARK  status: ('A' for Active; 'I' for Inactive)
REMARK    1  A    between atoms: C6_6  and  O1_7 
REMARK    2  A    between atoms: C7_8  and  N1_9 
REMARK    3  A    between atoms: N1_9  and  C8_10 
REMARK    4  A    between atoms: N1_9  and  C15_18 
REMARK    5  A    between atoms: C8_10  and  C9_11 
REMARK    6  A    between atoms: C15_18  and  N2_20 
ROOT
HETATM    1  N1  UNL     1      23.509   4.019  51.171  1.00  0.00    -0.317 N 
ENDROOT
BRANCH   1   2
HETATM    2  C7  UNL     1      23.615   2.805  51.971  1.00  0.00     0.071 A 
HETATM    3  C6  UNL     1      24.726   2.259  52.582  1.00  0.00     0.098 A 
HETATM    4  C4  UNL     1      24.545   1.095  53.298  1.00  0.00    -0.026 A 
HETATM    5  C3  UNL     1      23.322   0.485  53.412  1.00  0.00     0.016 A 
HETATM    6  C5  UNL     1      25.770   0.545  53.939  1.00  0.00     0.051 C 
HETATM    7  C2  UNL     1      22.223   1.034  52.801  1.00  0.00    -0.059 A 
HETATM    8  C1  UNL     1      20.908   0.332  52.953  1.00  0.00     0.048 C 
HETATM    9  C22 UNL     1      22.361   2.195  52.077  1.00  0.00     0.039 A 
BRANCH   3  10
HETATM   10  O1  UNL     1      25.903   2.969  52.391  1.00  0.00    -0.358 OA
HETATM   11  H8  UNL     1      26.821   2.529  52.402  1.00  0.00     0.217 HD
ENDBRANCH   3  10
ENDBRANCH   1   2
BRANCH   1  12
HETATM   12  C8  UNL     1      22.633   4.804  52.019  1.00  0.00     0.170 C 
BRANCH  12  13
HETATM   13  C9  UNL     1      21.807   5.782  51.226  1.00  0.00    -0.040 A 
HETATM   14  C10 UNL     1      20.707   5.184  50.592  1.00  0.00     0.012 A 
HETATM   15  C11 UNL     1      19.815   5.851  49.813  1.00  0.00     0.043 A 
HETATM   16  C12 UNL     1      19.971   7.205  49.612  1.00  0.00     0.116 A 
HETATM   17  F1  UNL     1      19.163   7.994  48.864  1.00  0.00    -0.206 F 
HETATM   18  C13 UNL     1      21.045   7.800  50.228  1.00  0.00     0.043 A 
HETATM   19  C14 UNL     1      21.949   7.130  51.016  1.00  0.00     0.012 A 
ENDBRANCH  12  13
ENDBRANCH   1  12
BRANCH   1  20
HETATM   20  C15 UNL     1      24.226   4.091  49.912  1.00  0.00     0.181 C 
HETATM   21  S1  UNL     1      23.527   3.076  48.788  1.00  0.00    -0.040 SA
BRANCH  20  22
HETATM   22  N2  UNL     1      25.363   4.806  49.409  1.00  0.00    -0.326 N 
HETATM   23  C16 UNL     1      26.632   4.240  49.125  1.00  0.00     0.094 A 
HETATM   24  C17 UNL     1      27.707   4.811  48.670  1.00  0.00     0.017 A 
HETATM   25  C18 UNL     1      27.650   6.231  48.398  1.00  0.00    -0.001 A 
HETATM   26  C19 UNL     1      26.471   6.760  48.662  1.00  0.00    -0.002 A 
HETATM   27  C20 UNL     1      25.204   6.208  49.174  1.00  0.00     0.110 A 
HETATM   28  C21 UNL     1      24.142   6.486  48.108  1.00  0.00     0.037 C 
ENDBRANCH  20  22
ENDBRANCH   1  20
TORSDOF 6
ENDMDL
