MODEL 1
REMARK VINA RESULT:      -8.5      0.000      0.000
REMARK  3 active torsions:
REMARK  status: ('A' for Active; 'I' for Inactive)
REMARK    1  A    between atoms: C7_7  and  N1_8 
REMARK    2  A    between atoms: N1_8  and  C8_9 
REMARK    3  A    between atoms: C10_13  and  C11_14 
ROOT
HETATM    1  C1  UNL     1      21.978  -2.117  54.964  1.00  0.00     0.018 C 
HETATM    2  C2  UNL     1      21.451  -1.272  54.282  1.00  0.00    -0.078 C 
HETATM    3  C3  UNL     1      20.802  -0.273  53.458  1.00  0.00     0.019 A 
HETATM    4  C4  UNL     1      19.511  -0.533  52.988  1.00  0.00     0.021 A 
HETATM    5  C5  UNL     1      18.876   0.427  52.189  1.00  0.00     0.004 A 
HETATM    6  C6  UNL     1      19.529   1.596  51.887  1.00  0.00     0.029 A 
HETATM    7  C7  UNL     1      20.804   1.828  52.363  1.00  0.00     0.034 A 
HETATM    8  C21 UNL     1      21.457   0.901  53.153  1.00  0.00     0.050 A 
ENDROOT
BRANCH   7   9
HETATM    9  N1  UNL     1      21.379   3.086  51.979  1.00  0.00    -0.344 N 
HETATM   10  H5  UNL     1      20.917   3.894  52.434  1.00  0.00     0.167 HD
BRANCH   9  11
HETATM   11  C8  UNL     1      22.474   3.114  51.059  1.00  0.00     0.111 A 
HETATM   12  N2  UNL     1      22.295   3.065  49.789  1.00  0.00    -0.228 NA
HETATM   13  C9  UNL     1      23.414   3.095  48.904  1.00  0.00     0.235 A 
HETATM   14  N3  UNL     1      24.604   3.172  49.374  1.00  0.00    -0.246 NA
HETATM   15  C10 UNL     1      24.889   3.230  50.757  1.00  0.00     0.045 A 
HETATM   16  C20 UNL     1      23.774   3.201  51.766  1.00  0.00     0.137 A 
BRANCH  15  17
HETATM   17  C11 UNL     1      26.091   3.314  51.275  1.00  0.00     0.062 C 
HETATM   18  C12 UNL     1      26.872   2.251  51.821  1.00  0.00     0.080 C 
HETATM   19  C13 UNL     1      26.717   0.953  52.000  1.00  0.00     0.214 C 
HETATM   20  O3  UNL     1      28.167   2.293  52.379  1.00  0.00    -0.350 OA
HETATM   21  O1  UNL     1      26.299  -0.363  52.068  1.00  0.00    -0.361 OA
HETATM   22  C14 UNL     1      27.239  -1.302  52.573  1.00  0.00     0.105 A 
HETATM   23  C15 UNL     1      28.464  -1.549  53.074  1.00  0.00     0.031 A 
HETATM   24  C19 UNL     1      27.506  -2.672  52.894  1.00  0.00     0.058 A 
HETATM   25  C16 UNL     1      29.151  -0.199  53.116  1.00  0.00     0.181 C 
HETATM   26  O2  UNL     1      28.936   0.396  54.318  1.00  0.00    -0.388 OA
HETATM   27  C17 UNL     1      29.281   1.707  54.424  1.00  0.00     0.194 C 
HETATM   28  C18 UNL     1      28.289   2.577  53.732  1.00  0.00     0.201 C 
ENDBRANCH  15  17
ENDBRANCH   9  11
ENDBRANCH   7   9
TORSDOF 3
ENDMDL
MODEL 2
REMARK VINA RESULT:      -8.3      3.716      5.697
REMARK  3 active torsions:
REMARK  status: ('A' for Active; 'I' for Inactive)
REMARK    1  A    between atoms: C7_7  and  N1_8 
REMARK    2  A    between atoms: N1_8  and  C8_9 
REMARK    3  A    between atoms: C10_13  and  C11_14 
ROOT
HETATM    1  C1  UNL     1      26.948  -0.871  53.104  1.00  0.00     0.018 C 
HETATM    2  C2  UNL     1      25.802  -0.503  53.193  1.00  0.00    -0.078 C 
HETATM    3  C3  UNL     1      24.420  -0.082  53.307  1.00  0.00     0.019 A 
HETATM    4  C4  UNL     1      23.533  -0.893  54.020  1.00  0.00     0.021 A 
HETATM    5  C5  UNL     1      22.195  -0.495  54.134  1.00  0.00     0.004 A 
HETATM    6  C6  UNL     1      21.786   0.678  53.550  1.00  0.00     0.029 A 
HETATM    7  C7  UNL     1      22.682   1.461  52.851  1.00  0.00     0.034 A 
HETATM    8  C21 UNL     1      24.008   1.095  52.720  1.00  0.00     0.050 A 
ENDROOT
BRANCH   7   9
HETATM    9  N1  UNL     1      22.133   2.662  52.287  1.00  0.00    -0.344 N 
HETATM   10  H5  UNL     1      21.496   3.156  52.939  1.00  0.00     0.167 HD
BRANCH   9  11
HETATM   11  C8  UNL     1      22.490   3.049  50.957  1.00  0.00     0.111 A 
HETATM   12  N2  UNL     1      22.400   2.237  49.967  1.00  0.00    -0.228 NA
HETATM   13  C9  UNL     1      22.767   2.662  48.655  1.00  0.00     0.235 A 
HETATM   14  N3  UNL     1      23.187   3.858  48.459  1.00  0.00    -0.246 NA
HETATM   15  C10 UNL     1      23.315   4.813  49.492  1.00  0.00     0.045 A 
HETATM   16  C20 UNL     1      22.955   4.455  50.909  1.00  0.00     0.137 A 
BRANCH  15  17
HETATM   17  C11 UNL     1      23.736   6.044  49.331  1.00  0.00     0.062 C 
HETATM   18  C12 UNL     1      25.066   6.471  49.031  1.00  0.00     0.080 C 
HETATM   19  C13 UNL     1      26.229   5.882  48.831  1.00  0.00     0.214 C 
HETATM   20  O3  UNL     1      25.560   7.778  48.841  1.00  0.00    -0.350 OA
HETATM   21  O1  UNL     1      27.301   5.026  48.668  1.00  0.00    -0.361 OA
HETATM   22  C14 UNL     1      28.538   5.620  48.296  1.00  0.00     0.105 A 
HETATM   23  C15 UNL     1      29.238   6.731  48.002  1.00  0.00     0.031 A 
HETATM   24  C19 UNL     1      29.917   5.409  47.974  1.00  0.00     0.058 A 
HETATM   25  C16 UNL     1      28.244   7.868  48.128  1.00  0.00     0.181 C 
HETATM   26  O2  UNL     1      28.262   8.364  49.392  1.00  0.00    -0.388 OA
HETATM   27  C17 UNL     1      27.261   9.221  49.729  1.00  0.00     0.194 C 
HETATM   28  C18 UNL     1      25.985   8.486  49.956  1.00  0.00     0.201 C 
ENDBRANCH  15  17
ENDBRANCH   9  11
ENDBRANCH   7   9
TORSDOF 3
ENDMDL
MODEL 3
REMARK VINA RESULT:      -8.3      2.723      6.631
REMARK  3 active torsions:
REMARK  status: ('A' for Active; 'I' for Inactive)
REMARK    1  A    between atoms: C7_7  and  N1_8 
REMARK    2  A    between atoms: N1_8  and  C8_9 
REMARK    3  A    between atoms: C10_13  and  C11_14 
ROOT
HETATM    1  C1  UNL     1      22.073   2.105  47.419  1.00  0.00     0.018 C 
HETATM    2  C2  UNL     1      22.725   2.711  48.235  1.00  0.00    -0.078 C 
HETATM    3  C3  UNL     1      23.492   3.455  49.212  1.00  0.00     0.019 A 
HETATM    4  C4  UNL     1      22.903   4.571  49.813  1.00  0.00     0.021 A 
HETATM    5  C5  UNL     1      23.638   5.297  50.759  1.00  0.00     0.004 A 
HETATM    6  C6  UNL     1      24.914   4.900  51.075  1.00  0.00     0.029 A 
HETATM    7  C7  UNL     1      25.473   3.795  50.467  1.00  0.00     0.034 A 
HETATM    8  C21 UNL     1      24.774   3.058  49.530  1.00  0.00     0.050 A 
ENDROOT
BRANCH   7   9
HETATM    9  N1  UNL     1      26.812   3.481  50.882  1.00  0.00    -0.344 N 
HETATM   10  H5  UNL     1      27.526   4.057  50.401  1.00  0.00     0.167 HD
BRANCH   9  11
HETATM   11  C8  UNL     1      27.029   2.465  51.864  1.00  0.00     0.111 A 
HETATM   12  N2  UNL     1      28.106   2.414  52.562  1.00  0.00    -0.228 NA
HETATM   13  C9  UNL     1      28.285   1.382  53.532  1.00  0.00     0.235 A 
HETATM   14  N3  UNL     1      27.371   0.502  53.712  1.00  0.00    -0.246 NA
HETATM   15  C10 UNL     1      26.158   0.486  52.987  1.00  0.00     0.045 A 
HETATM   16  C20 UNL     1      25.881   1.531  51.941  1.00  0.00     0.137 A 
BRANCH  15  17
HETATM   17  C11 UNL     1      25.198  -0.394  53.146  1.00  0.00     0.062 C 
HETATM   18  C12 UNL     1      23.793  -0.172  53.015  1.00  0.00     0.080 C 
HETATM   19  C13 UNL     1      23.016   0.855  52.729  1.00  0.00     0.214 C 
HETATM   20  O3  UNL     1      22.729  -1.086  53.167  1.00  0.00    -0.350 OA
HETATM   21  O1  UNL     1      22.448   2.073  52.411  1.00  0.00    -0.361 OA
HETATM   22  C14 UNL     1      21.036   2.093  52.247  1.00  0.00     0.105 A 
HETATM   23  C15 UNL     1      19.867   1.426  52.259  1.00  0.00     0.031 A 
HETATM   24  C19 UNL     1      19.878   2.878  51.943  1.00  0.00     0.058 A 
HETATM   25  C16 UNL     1      20.233  -0.002  52.613  1.00  0.00     0.181 C 
HETATM   26  O2  UNL     1      20.182  -0.175  53.959  1.00  0.00    -0.388 OA
HETATM   27  C17 UNL     1      20.714  -1.327  54.449  1.00  0.00     0.194 C 
HETATM   28  C18 UNL     1      22.203  -1.274  54.437  1.00  0.00     0.201 C 
ENDBRANCH  15  17
ENDBRANCH   9  11
ENDBRANCH   7   9
TORSDOF 3
ENDMDL
MODEL 4
REMARK VINA RESULT:      -8.0      6.129      8.570
REMARK  3 active torsions:
REMARK  status: ('A' for Active; 'I' for Inactive)
REMARK    1  A    between atoms: C7_7  and  N1_8 
REMARK    2  A    between atoms: N1_8  and  C8_9 
REMARK    3  A    between atoms: C10_13  and  C11_14 
ROOT
HETATM    1  C1  UNL     1      29.085   1.117  53.867  1.00  0.00     0.018 C 
HETATM    2  C2  UNL     1      28.050   1.409  53.318  1.00  0.00    -0.078 C 
HETATM    3  C3  UNL     1      26.797   1.745  52.673  1.00  0.00     0.019 A 
HETATM    4  C4  UNL     1      25.604   1.402  53.315  1.00  0.00     0.021 A 
HETATM    5  C5  UNL     1      24.388   1.722  52.699  1.00  0.00     0.004 A 
HETATM    6  C6  UNL     1      24.392   2.366  51.486  1.00  0.00     0.029 A 
HETATM    7  C7  UNL     1      25.585   2.694  50.873  1.00  0.00     0.034 A 
HETATM    8  C21 UNL     1      26.801   2.391  51.455  1.00  0.00     0.050 A 
ENDROOT
BRANCH   7   9
HETATM    9  N1  UNL     1      25.457   3.365  49.610  1.00  0.00    -0.344 N 
HETATM   10  H5  UNL     1      25.012   2.774  48.885  1.00  0.00     0.167 HD
BRANCH   9  11
HETATM   11  C8  UNL     1      25.927   4.709  49.470  1.00  0.00     0.111 A 
HETATM   12  N2  UNL     1      25.277   5.709  49.947  1.00  0.00    -0.228 NA
HETATM   13  C9  UNL     1      25.780   7.034  49.786  1.00  0.00     0.235 A 
HETATM   14  N3  UNL     1      26.883   7.234  49.163  1.00  0.00    -0.246 NA
HETATM   15  C10 UNL     1      27.658   6.191  48.608  1.00  0.00     0.045 A 
HETATM   16  C20 UNL     1      27.207   4.761  48.726  1.00  0.00     0.137 A 
BRANCH  15  17
HETATM   17  C11 UNL     1      28.792   6.354  47.970  1.00  0.00     0.062 C 
HETATM   18  C12 UNL     1      29.576   7.546  47.893  1.00  0.00     0.080 C 
HETATM   19  C13 UNL     1      29.482   8.776  48.360  1.00  0.00     0.214 C 
HETATM   20  O3  UNL     1      30.801   7.765  47.228  1.00  0.00    -0.350 OA
HETATM   21  O1  UNL     1      29.141   9.971  48.964  1.00  0.00    -0.361 OA
HETATM   22  C14 UNL     1      30.079  11.033  48.846  1.00  0.00     0.105 A 
HETATM   23  C15 UNL     1      31.257  11.480  48.375  1.00  0.00     0.031 A 
HETATM   24  C19 UNL     1      30.394  12.392  49.171  1.00  0.00     0.058 A 
HETATM   25  C16 UNL     1      31.852  10.305  47.626  1.00  0.00     0.181 C 
HETATM   26  O2  UNL     1      31.478  10.346  46.321  1.00  0.00    -0.388 OA
HETATM   27  C17 UNL     1      31.730   9.237  45.575  1.00  0.00     0.194 C 
HETATM   28  C18 UNL     1      30.764   8.149  45.896  1.00  0.00     0.201 C 
ENDBRANCH  15  17
ENDBRANCH   9  11
ENDBRANCH   7   9
TORSDOF 3
ENDMDL
MODEL 5
REMARK VINA RESULT:      -7.9      2.286      5.895
REMARK  3 active torsions:
REMARK  status: ('A' for Active; 'I' for Inactive)
REMARK    1  A    between atoms: C7_7  and  N1_8 
REMARK    2  A    between atoms: N1_8  and  C8_9 
REMARK    3  A    between atoms: C10_13  and  C11_14 
ROOT
HETATM    1  C1  UNL     1      26.935   8.451  48.103  1.00  0.00     0.018 C 
HETATM    2  C2  UNL     1      26.582   7.333  48.390  1.00  0.00    -0.078 C 
HETATM    3  C3  UNL     1      26.179   5.984  48.731  1.00  0.00     0.019 A 
HETATM    4  C4  UNL     1      27.174   5.036  48.988  1.00  0.00     0.021 A 
HETATM    5  C5  UNL     1      26.794   3.729  49.317  1.00  0.00     0.004 A 
HETATM    6  C6  UNL     1      25.460   3.407  49.382  1.00  0.00     0.029 A 
HETATM    7  C7  UNL     1      24.498   4.362  49.124  1.00  0.00     0.034 A 
HETATM    8  C21 UNL     1      24.841   5.660  48.796  1.00  0.00     0.050 A 
ENDROOT
BRANCH   7   9
HETATM    9  N1  UNL     1      23.141   3.903  49.225  1.00  0.00    -0.344 N 
HETATM   10  H5  UNL     1      22.604   4.042  48.349  1.00  0.00     0.167 HD
BRANCH   9  11
HETATM   11  C8  UNL     1      22.675   3.330  50.450  1.00  0.00     0.111 A 
HETATM   12  N2  UNL     1      21.701   3.842  51.112  1.00  0.00    -0.228 NA
HETATM   13  C9  UNL     1      21.267   3.239  52.331  1.00  0.00     0.235 A 
HETATM   14  N3  UNL     1      21.848   2.184  52.770  1.00  0.00    -0.246 NA
HETATM   15  C10 UNL     1      22.925   1.558  52.104  1.00  0.00     0.045 A 
HETATM   16  C20 UNL     1      23.454   2.123  50.814  1.00  0.00     0.137 A 
BRANCH  15  17
HETATM   17  C11 UNL     1      23.541   0.477  52.519  1.00  0.00     0.062 C 
HETATM   18  C12 UNL     1      24.899   0.366  52.946  1.00  0.00     0.080 C 
HETATM   19  C13 UNL     1      25.925   1.186  53.070  1.00  0.00     0.214 C 
HETATM   20  O3  UNL     1      25.598  -0.769  53.406  1.00  0.00    -0.350 OA
HETATM   21  O1  UNL     1      26.818   2.240  53.102  1.00  0.00    -0.361 OA
HETATM   22  C14 UNL     1      28.109   1.963  53.629  1.00  0.00     0.105 A 
HETATM   23  C15 UNL     1      28.968   1.075  54.161  1.00  0.00     0.031 A 
HETATM   24  C19 UNL     1      29.404   2.481  53.954  1.00  0.00     0.058 A 
HETATM   25  C16 UNL     1      28.198  -0.229  54.222  1.00  0.00     0.181 C 
HETATM   26  O2  UNL     1      28.393  -0.939  53.081  1.00  0.00    -0.388 OA
HETATM   27  C17 UNL     1      27.583  -2.013  52.880  1.00  0.00     0.194 C 
HETATM   28  C18 UNL     1      26.219  -1.581  52.467  1.00  0.00     0.201 C 
ENDBRANCH  15  17
ENDBRANCH   9  11
ENDBRANCH   7   9
TORSDOF 3
ENDMDL
MODEL 6
REMARK VINA RESULT:      -7.8      6.758     10.789
REMARK  3 active torsions:
REMARK  status: ('A' for Active; 'I' for Inactive)
REMARK    1  A    between atoms: C7_7  and  N1_8 
REMARK    2  A    between atoms: N1_8  and  C8_9 
REMARK    3  A    between atoms: C10_13  and  C11_14 
ROOT
HETATM    1  C1  UNL     1      32.009   0.211  46.710  1.00  0.00     0.018 C 
HETATM    2  C2  UNL     1      32.428   1.340  46.800  1.00  0.00    -0.078 C 
HETATM    3  C3  UNL     1      32.949   2.686  46.920  1.00  0.00     0.019 A 
HETATM    4  C4  UNL     1      34.251   2.857  47.400  1.00  0.00     0.021 A 
HETATM    5  C5  UNL     1      34.762   4.155  47.521  1.00  0.00     0.004 A 
HETATM    6  C6  UNL     1      33.981   5.227  47.165  1.00  0.00     0.029 A 
HETATM    7  C7  UNL     1      32.698   5.031  46.694  1.00  0.00     0.034 A 
HETATM    8  C21 UNL     1      32.165   3.763  46.564  1.00  0.00     0.050 A 
ENDROOT
BRANCH   7   9
HETATM    9  N1  UNL     1      31.983   6.229  46.355  1.00  0.00    -0.344 N 
HETATM   10  H5  UNL     1      31.921   6.384  45.333  1.00  0.00     0.167 HD
BRANCH   9  11
HETATM   11  C8  UNL     1      31.449   7.054  47.395  1.00  0.00     0.111 A 
HETATM   12  N2  UNL     1      32.164   7.442  48.389  1.00  0.00    -0.228 NA
HETATM   13  C9  UNL     1      31.594   8.264  49.406  1.00  0.00     0.235 A 
HETATM   14  N3  UNL     1      30.365   8.621  49.332  1.00  0.00    -0.246 NA
HETATM   15  C10 UNL     1      29.510   8.239  48.273  1.00  0.00     0.045 A 
HETATM   16  C20 UNL     1      30.021   7.370  47.157  1.00  0.00     0.137 A 
BRANCH  15  17
HETATM   17  C11 UNL     1      28.250   8.588  48.160  1.00  0.00     0.062 C 
HETATM   18  C12 UNL     1      27.104   7.764  48.375  1.00  0.00     0.080 C 
HETATM   19  C13 UNL     1      26.887   6.509  48.719  1.00  0.00     0.214 C 
HETATM   20  O3  UNL     1      25.736   8.096  48.274  1.00  0.00    -0.350 OA
HETATM   21  O1  UNL     1      26.944   5.178  49.086  1.00  0.00    -0.361 OA
HETATM   22  C14 UNL     1      25.701   4.533  49.332  1.00  0.00     0.105 A 
HETATM   23  C15 UNL     1      24.358   4.603  49.380  1.00  0.00     0.031 A 
HETATM   24  C19 UNL     1      25.037   3.323  49.713  1.00  0.00     0.058 A 
HETATM   25  C16 UNL     1      24.025   6.028  48.986  1.00  0.00     0.181 C 
HETATM   26  O2  UNL     1      23.839   6.109  47.644  1.00  0.00    -0.388 OA
HETATM   27  C17 UNL     1      23.772   7.358  47.109  1.00  0.00     0.194 C 
HETATM   28  C18 UNL     1      25.124   7.979  47.035  1.00  0.00     0.201 C 
ENDBRANCH  15  17
ENDBRANCH   9  11
ENDBRANCH   7   9
TORSDOF 3
ENDMDL
MODEL 7
REMARK VINA RESULT:      -7.8      3.267      7.224
REMARK  3 active torsions:
REMARK  status: ('A' for Active; 'I' for Inactive)
REMARK    1  A    between atoms: C7_7  and  N1_8 
REMARK    2  A    between atoms: N1_8  and  C8_9 
REMARK    3  A    between atoms: C10_13  and  C11_14 
ROOT
HETATM    1  C1  UNL     1      27.882   9.153  47.782  1.00  0.00     0.018 C 
HETATM    2  C2  UNL     1      27.431   8.144  48.268  1.00  0.00    -0.078 C 
HETATM    3  C3  UNL     1      26.900   6.921  48.834  1.00  0.00     0.019 A 
HETATM    4  C4  UNL     1      27.481   5.706  48.461  1.00  0.00     0.021 A 
HETATM    5  C5  UNL     1      26.974   4.518  49.003  1.00  0.00     0.004 A 
HETATM    6  C6  UNL     1      25.925   4.571  49.886  1.00  0.00     0.029 A 
HETATM    7  C7  UNL     1      25.369   5.784  50.239  1.00  0.00     0.034 A 
HETATM    8  C21 UNL     1      25.846   6.972  49.721  1.00  0.00     0.050 A 
ENDROOT
BRANCH   7   9
HETATM    9  N1  UNL     1      24.278   5.707  51.170  1.00  0.00    -0.344 N 
HETATM   10  H5  UNL     1      24.527   6.067  52.110  1.00  0.00     0.167 HD
BRANCH   9  11
HETATM   11  C8  UNL     1      23.020   5.175  50.747  1.00  0.00     0.111 A 
HETATM   12  N2  UNL     1      22.493   5.491  49.619  1.00  0.00    -0.228 NA
HETATM   13  C9  UNL     1      21.236   4.937  49.234  1.00  0.00     0.235 A 
HETATM   14  N3  UNL     1      20.626   4.121  50.012  1.00  0.00    -0.246 NA
HETATM   15  C10 UNL     1      21.135   3.721  51.268  1.00  0.00     0.045 A 
HETATM   16  C20 UNL     1      22.452   4.255  51.761  1.00  0.00     0.137 A 
BRANCH  15  17
HETATM   17  C11 UNL     1      20.543   2.886  52.088  1.00  0.00     0.062 C 
HETATM   18  C12 UNL     1      21.147   1.810  52.808  1.00  0.00     0.080 C 
HETATM   19  C13 UNL     1      22.359   1.300  52.914  1.00  0.00     0.214 C 
HETATM   20  O3  UNL     1      20.554   0.895  53.704  1.00  0.00    -0.350 OA
HETATM   21  O1  UNL     1      23.698   0.970  52.840  1.00  0.00    -0.361 OA
HETATM   22  C14 UNL     1      24.141  -0.084  53.685  1.00  0.00     0.105 A 
HETATM   23  C15 UNL     1      23.849  -1.014  54.613  1.00  0.00     0.031 A 
HETATM   24  C19 UNL     1      25.246  -0.884  54.120  1.00  0.00     0.058 A 
HETATM   25  C16 UNL     1      22.364  -0.861  54.870  1.00  0.00     0.181 C 
HETATM   26  O2  UNL     1      21.661  -1.676  54.040  1.00  0.00    -0.388 OA
HETATM   27  C17 UNL     1      20.317  -1.478  53.980  1.00  0.00     0.194 C 
HETATM   28  C18 UNL     1      19.993  -0.262  53.183  1.00  0.00     0.201 C 
ENDBRANCH  15  17
ENDBRANCH   9  11
ENDBRANCH   7   9
TORSDOF 3
ENDMDL
MODEL 8
REMARK VINA RESULT:      -7.7      3.934      7.645
REMARK  3 active torsions:
REMARK  status: ('A' for Active; 'I' for Inactive)
REMARK    1  A    between atoms: C7_7  and  N1_8 
REMARK    2  A    between atoms: N1_8  and  C8_9 
REMARK    3  A    between atoms: C10_13  and  C11_14 
ROOT
HETATM    1  C1  UNL     1      29.910  10.348  48.251  1.00  0.00     0.018 C 
HETATM    2  C2  UNL     1      29.584   9.186  48.284  1.00  0.00    -0.078 C 
HETATM    3  C3  UNL     1      29.215   7.785  48.316  1.00  0.00     0.019 A 
HETATM    4  C4  UNL     1      30.231   6.826  48.281  1.00  0.00     0.021 A 
HETATM    5  C5  UNL     1      29.883   5.471  48.312  1.00  0.00     0.004 A 
HETATM    6  C6  UNL     1      28.559   5.112  48.377  1.00  0.00     0.029 A 
HETATM    7  C7  UNL     1      27.575   6.079  48.411  1.00  0.00     0.034 A 
HETATM    8  C21 UNL     1      27.886   7.425  48.381  1.00  0.00     0.050 A 
ENDROOT
BRANCH   7   9
HETATM    9  N1  UNL     1      26.230   5.578  48.480  1.00  0.00    -0.344 N 
HETATM   10  H5  UNL     1      25.951   5.059  47.628  1.00  0.00     0.167 HD
BRANCH   9  11
HETATM   11  C8  UNL     1      25.441   5.824  49.647  1.00  0.00     0.111 A 
HETATM   12  N2  UNL     1      25.209   7.014  50.072  1.00  0.00    -0.228 NA
HETATM   13  C9  UNL     1      24.416   7.217  51.241  1.00  0.00     0.235 A 
HETATM   14  N3  UNL     1      23.932   6.212  51.873  1.00  0.00    -0.246 NA
HETATM   15  C10 UNL     1      24.139   4.872  51.473  1.00  0.00     0.045 A 
HETATM   16  C20 UNL     1      24.963   4.560  50.254  1.00  0.00     0.137 A 
BRANCH  15  17
HETATM   17  C11 UNL     1      23.656   3.820  52.089  1.00  0.00     0.062 C 
HETATM   18  C12 UNL     1      24.396   2.772  52.717  1.00  0.00     0.080 C 
HETATM   19  C13 UNL     1      25.671   2.486  52.897  1.00  0.00     0.214 C 
HETATM   20  O3  UNL     1      23.922   1.630  53.396  1.00  0.00    -0.350 OA
HETATM   21  O1  UNL     1      27.051   2.427  52.940  1.00  0.00    -0.361 OA
HETATM   22  C14 UNL     1      27.618   1.350  53.675  1.00  0.00     0.105 A 
HETATM   23  C15 UNL     1      27.437   0.244  54.420  1.00  0.00     0.031 A 
HETATM   24  C19 UNL     1      28.818   0.710  54.124  1.00  0.00     0.058 A 
HETATM   25  C16 UNL     1      25.935   0.075  54.513  1.00  0.00     0.181 C 
HETATM   26  O2  UNL     1      25.490  -0.710  53.498  1.00  0.00    -0.388 OA
HETATM   27  C17 UNL     1      24.145  -0.758  53.304  1.00  0.00     0.194 C 
HETATM   28  C18 UNL     1      23.656   0.489  52.653  1.00  0.00     0.201 C 
ENDBRANCH  15  17
ENDBRANCH   9  11
ENDBRANCH   7   9
TORSDOF 3
ENDMDL
MODEL 9
REMARK VINA RESULT:      -7.4      3.892      7.137
REMARK  3 active torsions:
REMARK  status: ('A' for Active; 'I' for Inactive)
REMARK    1  A    between atoms: C7_7  and  N1_8 
REMARK    2  A    between atoms: N1_8  and  C8_9 
REMARK    3  A    between atoms: C10_13  and  C11_14 
ROOT
HETATM    1  C1  UNL     1      29.993   8.159  45.925  1.00  0.00     0.018 C 
HETATM    2  C2  UNL     1      29.089   8.166  46.726  1.00  0.00    -0.078 C 
HETATM    3  C3  UNL     1      28.020   8.181  47.703  1.00  0.00     0.019 A 
HETATM    4  C4  UNL     1      28.254   8.790  48.939  1.00  0.00     0.021 A 
HETATM    5  C5  UNL     1      27.227   8.809  49.890  1.00  0.00     0.004 A 
HETATM    6  C6  UNL     1      26.017   8.233  49.591  1.00  0.00     0.029 A 
HETATM    7  C7  UNL     1      25.811   7.637  48.363  1.00  0.00     0.034 A 
HETATM    8  C21 UNL     1      26.805   7.602  47.404  1.00  0.00     0.050 A 
ENDROOT
BRANCH   7   9
HETATM    9  N1  UNL     1      24.505   7.071  48.170  1.00  0.00    -0.344 N 
HETATM   10  H5  UNL     1      23.851   7.722  47.699  1.00  0.00     0.167 HD
BRANCH   9  11
HETATM   11  C8  UNL     1      24.236   5.740  48.618  1.00  0.00     0.111 A 
HETATM   12  N2  UNL     1      23.080   5.198  48.482  1.00  0.00    -0.228 NA
HETATM   13  C9  UNL     1      22.852   3.866  48.942  1.00  0.00     0.235 A 
HETATM   14  N3  UNL     1      23.801   3.204  49.493  1.00  0.00    -0.246 NA
HETATM   15  C10 UNL     1      25.102   3.725  49.681  1.00  0.00     0.045 A 
HETATM   16  C20 UNL     1      25.435   5.121  49.231  1.00  0.00     0.137 A 
BRANCH  15  17
HETATM   17  C11 UNL     1      26.099   3.078  50.236  1.00  0.00     0.062 C 
HETATM   18  C12 UNL     1      26.022   2.089  51.263  1.00  0.00     0.080 C 
HETATM   19  C13 UNL     1      25.059   1.520  51.962  1.00  0.00     0.214 C 
HETATM   20  O3  UNL     1      27.062   1.364  51.881  1.00  0.00    -0.350 OA
HETATM   21  O1  UNL     1      23.881   1.093  52.544  1.00  0.00    -0.361 OA
HETATM   22  C14 UNL     1      23.986   0.043  53.497  1.00  0.00     0.105 A 
HETATM   23  C15 UNL     1      24.764  -0.817  54.180  1.00  0.00     0.031 A 
HETATM   24  C19 UNL     1      23.293  -0.826  54.400  1.00  0.00     0.058 A 
HETATM   25  C16 UNL     1      26.175  -0.528  53.711  1.00  0.00     0.181 C 
HETATM   26  O2  UNL     1      26.751   0.405  54.513  1.00  0.00    -0.388 OA
HETATM   27  C17 UNL     1      27.922   0.945  54.082  1.00  0.00     0.194 C 
HETATM   28  C18 UNL     1      27.686   1.925  52.986  1.00  0.00     0.201 C 
ENDBRANCH  15  17
ENDBRANCH   9  11
ENDBRANCH   7   9
TORSDOF 3
ENDMDL
