MODEL 1
REMARK VINA RESULT:      -8.2      0.000      0.000
REMARK  5 active torsions:
REMARK  status: ('A' for Active; 'I' for Inactive)
REMARK    1  A    between atoms: C2_2  and  C3_3 
REMARK    2  A    between atoms: C2_2  and  C5_7 
REMARK    3  A    between atoms: C2_2  and  N2_15 
REMARK    4  A    between atoms: C10_12  and  O1_13 
REMARK    5  A    between atoms: O1_13  and  O2_14 
ROOT
HETATM    1  C3  UNL     1      25.697   1.061  51.975  1.00  0.00     0.017 C 
HETATM    2  C4  UNL     1      26.401   2.175  51.844  1.00  0.00     0.199 C 
HETATM    3  S1  UNL     1      26.405   2.976  50.483  1.00  0.00    -0.084 SA
HETATM    4  N1  UNL     1      26.395   3.606  49.381  1.00  0.00    -0.126 N 
ENDROOT
BRANCH   1   5
HETATM    5  C2  UNL     1      25.984   0.641  53.414  1.00  0.00     0.077 C 
HETATM    6  C1  UNL     1      26.081   1.927  54.219  1.00  0.00     0.049 C 
BRANCH   5   7
HETATM    7  C5  UNL     1      27.219  -0.132  53.460  1.00  0.00     0.010 A 
HETATM    8  C6  UNL     1      27.217  -1.390  52.846  1.00  0.00     0.013 A 
HETATM    9  C7  UNL     1      28.336  -2.203  52.805  1.00  0.00     0.001 A 
HETATM   10  C8  UNL     1      29.520  -1.789  53.383  1.00  0.00     0.003 A 
HETATM   11  C9  UNL     1      29.558  -0.543  54.002  1.00  0.00     0.040 A 
HETATM   12  C10 UNL     1      28.413   0.226  54.014  1.00  0.00     0.115 A 
BRANCH  12  13
HETATM   13  O1  UNL     1      28.509   1.432  54.637  1.00  0.00    -0.200 OA
BRANCH  13  14
HETATM   14  O2  UNL     1      29.466   2.330  54.548  1.00  0.00    -0.245 OA
HETATM   15  H10 UNL     1      29.165   3.231  54.306  1.00  0.00     0.254 HD
ENDBRANCH  13  14
ENDBRANCH  12  13
ENDBRANCH   5   7
BRANCH   5  16
HETATM   16  N2  UNL     1      24.796  -0.043  53.882  1.00  0.00    -0.370 N 
HETATM   17  C11 UNL     1      23.695   0.214  53.011  1.00  0.00     0.087 A 
HETATM   18  C12 UNL     1      22.463  -0.231  53.173  1.00  0.00     0.017 A 
HETATM   19  C13 UNL     1      22.132  -1.065  54.321  1.00  0.00    -0.001 A 
HETATM   20  C14 UNL     1      23.161  -1.296  55.117  1.00  0.00    -0.007 A 
HETATM   21  C15 UNL     1      24.563  -0.866  55.045  1.00  0.00     0.151 A 
ENDBRANCH   5  16
ENDBRANCH   1   5
TORSDOF 5
ENDMDL
MODEL 2
REMARK VINA RESULT:      -7.9      1.619      2.091
REMARK  5 active torsions:
REMARK  status: ('A' for Active; 'I' for Inactive)
REMARK    1  A    between atoms: C2_2  and  C3_3 
REMARK    2  A    between atoms: C2_2  and  C5_7 
REMARK    3  A    between atoms: C2_2  and  N2_15 
REMARK    4  A    between atoms: C10_12  and  O1_13 
REMARK    5  A    between atoms: O1_13  and  O2_14 
ROOT
HETATM    1  C3  UNL     1      25.732   1.122  51.984  1.00  0.00     0.017 C 
HETATM    2  C4  UNL     1      26.341   2.287  51.822  1.00  0.00     0.199 C 
HETATM    3  S1  UNL     1      26.273   3.052  50.443  1.00  0.00    -0.084 SA
HETATM    4  N1  UNL     1      26.207   3.652  49.325  1.00  0.00    -0.126 N 
ENDROOT
BRANCH   1   5
HETATM    5  C2  UNL     1      26.058   0.762  53.431  1.00  0.00     0.077 C 
HETATM    6  C1  UNL     1      26.039   2.070  54.207  1.00  0.00     0.049 C 
BRANCH   5   7
HETATM    7  C5  UNL     1      27.359   0.106  53.490  1.00  0.00     0.010 A 
HETATM    8  C6  UNL     1      28.383   0.764  54.182  1.00  0.00     0.013 A 
HETATM    9  C7  UNL     1      29.650   0.229  54.324  1.00  0.00     0.001 A 
HETATM   10  C8  UNL     1      29.954  -1.002  53.776  1.00  0.00     0.003 A 
HETATM   11  C9  UNL     1      28.959  -1.684  53.082  1.00  0.00     0.040 A 
HETATM   12  C10 UNL     1      27.713  -1.104  52.970  1.00  0.00     0.115 A 
BRANCH  12  13
HETATM   13  O1  UNL     1      26.783  -1.815  52.276  1.00  0.00    -0.200 OA
BRANCH  13  14
HETATM   14  O2  UNL     1      26.792  -3.091  51.958  1.00  0.00    -0.245 OA
HETATM   15  H10 UNL     1      27.272  -3.307  51.131  1.00  0.00     0.254 HD
ENDBRANCH  13  14
ENDBRANCH  12  13
ENDBRANCH   5   7
BRANCH   5  16
HETATM   16  N2  UNL     1      24.938  -0.015  53.919  1.00  0.00    -0.370 N 
HETATM   17  C11 UNL     1      23.791   0.186  53.092  1.00  0.00     0.087 A 
HETATM   18  C12 UNL     1      22.600  -0.349  53.282  1.00  0.00     0.017 A 
HETATM   19  C13 UNL     1      22.368  -1.234  54.417  1.00  0.00    -0.001 A 
HETATM   20  C14 UNL     1      23.437  -1.412  55.170  1.00  0.00    -0.007 A 
HETATM   21  C15 UNL     1      24.804  -0.883  55.064  1.00  0.00     0.151 A 
ENDBRANCH   5  16
ENDBRANCH   1   5
TORSDOF 5
ENDMDL
MODEL 3
REMARK VINA RESULT:      -7.2      2.380      5.084
REMARK  5 active torsions:
REMARK  status: ('A' for Active; 'I' for Inactive)
REMARK    1  A    between atoms: C2_2  and  C3_3 
REMARK    2  A    between atoms: C2_2  and  C5_7 
REMARK    3  A    between atoms: C2_2  and  N2_15 
REMARK    4  A    between atoms: C10_12  and  O1_13 
REMARK    5  A    between atoms: O1_13  and  O2_14 
ROOT
HETATM    1  C3  UNL     1      24.176   0.086  52.723  1.00  0.00     0.017 C 
HETATM    2  C4  UNL     1      23.734  -0.034  53.966  1.00  0.00     0.199 C 
HETATM    3  S1  UNL     1      22.484  -0.939  54.298  1.00  0.00    -0.084 SA
HETATM    4  N1  UNL     1      21.478  -1.674  54.544  1.00  0.00    -0.126 N 
ENDROOT
BRANCH   1   5
HETATM    5  C2  UNL     1      25.365   1.032  52.872  1.00  0.00     0.077 C 
HETATM    6  C1  UNL     1      25.145   1.788  54.173  1.00  0.00     0.049 C 
BRANCH   5   7
HETATM    7  C5  UNL     1      25.426   1.924  51.720  1.00  0.00     0.010 A 
HETATM    8  C6  UNL     1      24.227   2.196  51.050  1.00  0.00     0.013 A 
HETATM    9  C7  UNL     1      24.157   3.045  49.961  1.00  0.00     0.001 A 
HETATM   10  C8  UNL     1      25.295   3.667  49.486  1.00  0.00     0.003 A 
HETATM   11  C9  UNL     1      26.504   3.418  50.128  1.00  0.00     0.040 A 
HETATM   12  C10 UNL     1      26.517   2.564  51.210  1.00  0.00     0.115 A 
BRANCH  12  13
HETATM   13  O1  UNL     1      27.729   2.356  51.794  1.00  0.00    -0.200 OA
BRANCH  13  14
HETATM   14  O2  UNL     1      28.409   3.158  52.584  1.00  0.00    -0.245 OA
HETATM   15  H10 UNL     1      27.916   3.485  53.364  1.00  0.00     0.254 HD
ENDBRANCH  13  14
ENDBRANCH  12  13
ENDBRANCH   5   7
BRANCH   5  16
HETATM   16  N2  UNL     1      26.528   0.194  53.080  1.00  0.00    -0.370 N 
HETATM   17  C11 UNL     1      27.248   0.617  54.238  1.00  0.00     0.087 A 
HETATM   18  C12 UNL     1      28.371   0.087  54.684  1.00  0.00     0.017 A 
HETATM   19  C13 UNL     1      28.982  -1.033  53.980  1.00  0.00    -0.001 A 
HETATM   20  C14 UNL     1      28.303  -1.415  52.913  1.00  0.00    -0.007 A 
HETATM   21  C15 UNL     1      27.055  -0.915  52.322  1.00  0.00     0.151 A 
ENDBRANCH   5  16
ENDBRANCH   1   5
TORSDOF 5
ENDMDL
MODEL 4
REMARK VINA RESULT:      -7.1      2.262      4.822
REMARK  5 active torsions:
REMARK  status: ('A' for Active; 'I' for Inactive)
REMARK    1  A    between atoms: C2_2  and  C3_3 
REMARK    2  A    between atoms: C2_2  and  C5_7 
REMARK    3  A    between atoms: C2_2  and  N2_15 
REMARK    4  A    between atoms: C10_12  and  O1_13 
REMARK    5  A    between atoms: O1_13  and  O2_14 
ROOT
HETATM    1  C3  UNL     1      25.271   1.977  53.659  1.00  0.00     0.017 C 
HETATM    2  C4  UNL     1      24.352   2.602  52.937  1.00  0.00     0.199 C 
HETATM    3  S1  UNL     1      24.015   4.122  53.196  1.00  0.00    -0.084 SA
HETATM    4  N1  UNL     1      23.759   5.346  53.419  1.00  0.00    -0.126 N 
ENDROOT
BRANCH   1   5
HETATM    5  C2  UNL     1      25.262   0.565  53.078  1.00  0.00     0.077 C 
HETATM    6  C1  UNL     1      25.112   0.727  51.573  1.00  0.00     0.049 C 
BRANCH   5   7
HETATM    7  C5  UNL     1      24.163  -0.196  53.662  1.00  0.00     0.010 A 
HETATM    8  C6  UNL     1      22.969  -0.268  52.933  1.00  0.00     0.013 A 
HETATM    9  C7  UNL     1      21.868  -0.979  53.374  1.00  0.00     0.001 A 
HETATM   10  C8  UNL     1      21.911  -1.658  54.576  1.00  0.00     0.003 A 
HETATM   11  C9  UNL     1      23.082  -1.607  55.326  1.00  0.00     0.040 A 
HETATM   12  C10 UNL     1      24.150  -0.883  54.840  1.00  0.00     0.115 A 
BRANCH  12  13
HETATM   13  O1  UNL     1      25.266  -0.866  55.619  1.00  0.00    -0.200 OA
BRANCH  13  14
HETATM   14  O2  UNL     1      25.401  -1.247  56.870  1.00  0.00    -0.245 OA
HETATM   15  H10 UNL     1      24.559  -1.417  57.343  1.00  0.00     0.254 HD
ENDBRANCH  13  14
ENDBRANCH  12  13
ENDBRANCH   5   7
BRANCH   5  16
HETATM   16  N2  UNL     1      26.587   0.026  53.299  1.00  0.00    -0.370 N 
HETATM   17  C11 UNL     1      27.373   0.932  54.073  1.00  0.00     0.087 A 
HETATM   18  C12 UNL     1      28.634   0.757  54.419  1.00  0.00     0.017 A 
HETATM   19  C13 UNL     1      29.346  -0.447  54.008  1.00  0.00    -0.001 A 
HETATM   20  C14 UNL     1      28.605  -1.276  53.295  1.00  0.00    -0.007 A 
HETATM   21  C15 UNL     1      27.207  -1.198  52.852  1.00  0.00     0.151 A 
ENDBRANCH   5  16
ENDBRANCH   1   5
TORSDOF 5
ENDMDL
MODEL 5
REMARK VINA RESULT:      -7.1      3.299      5.575
REMARK  5 active torsions:
REMARK  status: ('A' for Active; 'I' for Inactive)
REMARK    1  A    between atoms: C2_2  and  C3_3 
REMARK    2  A    between atoms: C2_2  and  C5_7 
REMARK    3  A    between atoms: C2_2  and  N2_15 
REMARK    4  A    between atoms: C10_12  and  O1_13 
REMARK    5  A    between atoms: O1_13  and  O2_14 
ROOT
HETATM    1  C3  UNL     1      23.926   1.436  51.689  1.00  0.00     0.017 C 
HETATM    2  C4  UNL     1      23.090   1.490  52.715  1.00  0.00     0.199 C 
HETATM    3  S1  UNL     1      21.696   0.751  52.664  1.00  0.00    -0.084 SA
HETATM    4  N1  UNL     1      20.580   0.148  52.604  1.00  0.00    -0.126 N 
ENDROOT
BRANCH   1   5
HETATM    5  C2  UNL     1      25.111   2.271  52.167  1.00  0.00     0.077 C 
HETATM    6  C1  UNL     1      24.667   2.934  53.463  1.00  0.00     0.049 C 
BRANCH   5   7
HETATM    7  C5  UNL     1      25.465   3.248  51.144  1.00  0.00     0.010 A 
HETATM    8  C6  UNL     1      26.491   2.907  50.255  1.00  0.00     0.013 A 
HETATM    9  C7  UNL     1      26.898   3.743  49.229  1.00  0.00     0.001 A 
HETATM   10  C8  UNL     1      26.289   4.969  49.045  1.00  0.00     0.003 A 
HETATM   11  C9  UNL     1      25.265   5.339  49.912  1.00  0.00     0.040 A 
HETATM   12  C10 UNL     1      24.900   4.468  50.917  1.00  0.00     0.115 A 
BRANCH  12  13
HETATM   13  O1  UNL     1      23.896   4.886  51.735  1.00  0.00    -0.200 OA
BRANCH  13  14
HETATM   14  O2  UNL     1      23.798   6.013  52.406  1.00  0.00    -0.245 OA
HETATM   15  H10 UNL     1      23.634   5.909  53.367  1.00  0.00     0.254 HD
ENDBRANCH  13  14
ENDBRANCH  12  13
ENDBRANCH   5   7
BRANCH   5  16
HETATM   16  N2  UNL     1      26.151   1.331  52.528  1.00  0.00    -0.370 N 
HETATM   17  C11 UNL     1      27.113   1.952  53.380  1.00  0.00     0.087 A 
HETATM   18  C12 UNL     1      28.202   1.381  53.859  1.00  0.00     0.017 A 
HETATM   19  C13 UNL     1      28.509  -0.004  53.527  1.00  0.00    -0.001 A 
HETATM   20  C14 UNL     1      27.609  -0.566  52.739  1.00  0.00    -0.007 A 
HETATM   21  C15 UNL     1      26.369  -0.045  52.150  1.00  0.00     0.151 A 
ENDBRANCH   5  16
ENDBRANCH   1   5
TORSDOF 5
ENDMDL
MODEL 6
REMARK VINA RESULT:      -7.0      4.022      5.976
REMARK  5 active torsions:
REMARK  status: ('A' for Active; 'I' for Inactive)
REMARK    1  A    between atoms: C2_2  and  C3_3 
REMARK    2  A    between atoms: C2_2  and  C5_7 
REMARK    3  A    between atoms: C2_2  and  N2_15 
REMARK    4  A    between atoms: C10_12  and  O1_13 
REMARK    5  A    between atoms: O1_13  and  O2_14 
ROOT
HETATM    1  C3  UNL     1      24.749   1.160  51.950  1.00  0.00     0.017 C 
HETATM    2  C4  UNL     1      25.404   2.052  52.679  1.00  0.00     0.199 C 
HETATM    3  S1  UNL     1      26.962   1.929  52.902  1.00  0.00    -0.084 SA
HETATM    4  N1  UNL     1      28.215   1.813  53.070  1.00  0.00    -0.126 N 
ENDROOT
BRANCH   1   5
HETATM    5  C2  UNL     1      23.309   1.662  52.006  1.00  0.00     0.077 C 
HETATM    6  C1  UNL     1      23.379   3.099  52.499  1.00  0.00     0.049 C 
BRANCH   5   7
HETATM    7  C5  UNL     1      22.529   0.812  52.898  1.00  0.00     0.010 A 
HETATM    8  C6  UNL     1      23.142  -0.350  53.380  1.00  0.00     0.013 A 
HETATM    9  C7  UNL     1      22.510  -1.220  54.251  1.00  0.00     0.001 A 
HETATM   10  C8  UNL     1      21.224  -0.964  54.682  1.00  0.00     0.003 A 
HETATM   11  C9  UNL     1      20.585   0.183  54.222  1.00  0.00     0.040 A 
HETATM   12  C10 UNL     1      21.260   1.016  53.356  1.00  0.00     0.115 A 
BRANCH  12  13
HETATM   13  O1  UNL     1      20.583   2.120  52.936  1.00  0.00    -0.200 OA
BRANCH  13  14
HETATM   14  O2  UNL     1      19.507   2.187  52.183  1.00  0.00    -0.245 OA
HETATM   15  H10 UNL     1      19.036   1.336  52.060  1.00  0.00     0.254 HD
ENDBRANCH  13  14
ENDBRANCH  12  13
ENDBRANCH   5   7
BRANCH   5  16
HETATM   16  N2  UNL     1      22.847   1.726  50.635  1.00  0.00    -0.370 N 
HETATM   17  C11 UNL     1      23.477   2.805  49.945  1.00  0.00     0.087 A 
HETATM   18  C12 UNL     1      23.251   3.157  48.693  1.00  0.00     0.017 A 
HETATM   19  C13 UNL     1      22.286   2.419  47.888  1.00  0.00    -0.001 A 
HETATM   20  C14 UNL     1      21.714   1.422  48.539  1.00  0.00    -0.007 A 
HETATM   21  C15 UNL     1      21.880   0.933  49.914  1.00  0.00     0.151 A 
ENDBRANCH   5  16
ENDBRANCH   1   5
TORSDOF 5
ENDMDL
MODEL 7
REMARK VINA RESULT:      -7.0      2.662      5.186
REMARK  5 active torsions:
REMARK  status: ('A' for Active; 'I' for Inactive)
REMARK    1  A    between atoms: C2_2  and  C3_3 
REMARK    2  A    between atoms: C2_2  and  C5_7 
REMARK    3  A    between atoms: C2_2  and  N2_15 
REMARK    4  A    between atoms: C10_12  and  O1_13 
REMARK    5  A    between atoms: O1_13  and  O2_14 
ROOT
HETATM    1  C3  UNL     1      26.773   0.169  52.654  1.00  0.00     0.017 C 
HETATM    2  C4  UNL     1      27.688   0.504  53.551  1.00  0.00     0.199 C 
HETATM    3  S1  UNL     1      29.050  -0.287  53.653  1.00  0.00    -0.084 SA
HETATM    4  N1  UNL     1      30.140  -0.936  53.719  1.00  0.00    -0.126 N 
ENDROOT
BRANCH   1   5
HETATM    5  C2  UNL     1      25.655   1.175  52.912  1.00  0.00     0.077 C 
HETATM    6  C1  UNL     1      26.070   1.963  54.145  1.00  0.00     0.049 C 
BRANCH   5   7
HETATM    7  C5  UNL     1      24.396   0.466  53.111  1.00  0.00     0.010 A 
HETATM    8  C6  UNL     1      23.336   0.779  52.252  1.00  0.00     0.013 A 
HETATM    9  C7  UNL     1      22.104   0.155  52.330  1.00  0.00     0.001 A 
HETATM   10  C8  UNL     1      21.874  -0.820  53.280  1.00  0.00     0.003 A 
HETATM   11  C9  UNL     1      22.907  -1.156  54.151  1.00  0.00     0.040 A 
HETATM   12  C10 UNL     1      24.115  -0.503  54.029  1.00  0.00     0.115 A 
BRANCH  12  13
HETATM   13  O1  UNL     1      25.085  -0.870  54.910  1.00  0.00    -0.200 OA
BRANCH  13  14
HETATM   14  O2  UNL     1      24.953  -1.450  56.083  1.00  0.00    -0.245 OA
HETATM   15  H10 UNL     1      25.379  -0.976  56.828  1.00  0.00     0.254 HD
ENDBRANCH  13  14
ENDBRANCH  12  13
ENDBRANCH   5   7
BRANCH   5  16
HETATM   16  N2  UNL     1      25.683   2.108  51.805  1.00  0.00    -0.370 N 
HETATM   17  C11 UNL     1      24.769   3.181  52.031  1.00  0.00     0.087 A 
HETATM   18  C12 UNL     1      24.529   4.178  51.201  1.00  0.00     0.017 A 
HETATM   19  C13 UNL     1      25.227   4.251  49.924  1.00  0.00    -0.001 A 
HETATM   20  C14 UNL     1      26.072   3.254  49.730  1.00  0.00    -0.007 A 
HETATM   21  C15 UNL     1      26.426   2.100  50.567  1.00  0.00     0.151 A 
ENDBRANCH   5  16
ENDBRANCH   1   5
TORSDOF 5
ENDMDL
MODEL 8
REMARK VINA RESULT:      -6.9      3.346      5.598
REMARK  5 active torsions:
REMARK  status: ('A' for Active; 'I' for Inactive)
REMARK    1  A    between atoms: C2_2  and  C3_3 
REMARK    2  A    between atoms: C2_2  and  C5_7 
REMARK    3  A    between atoms: C2_2  and  N2_15 
REMARK    4  A    between atoms: C10_12  and  O1_13 
REMARK    5  A    between atoms: O1_13  and  O2_14 
ROOT
HETATM    1  C3  UNL     1      23.580   3.317  52.725  1.00  0.00     0.017 C 
HETATM    2  C4  UNL     1      23.861   3.905  51.571  1.00  0.00     0.199 C 
HETATM    3  S1  UNL     1      23.741   5.470  51.409  1.00  0.00    -0.084 SA
HETATM    4  N1  UNL     1      23.638   6.731  51.298  1.00  0.00    -0.126 N 
ENDROOT
BRANCH   1   5
HETATM    5  C2  UNL     1      23.828   1.841  52.428  1.00  0.00     0.077 C 
HETATM    6  C1  UNL     1      23.775   1.698  50.914  1.00  0.00     0.049 C 
BRANCH   5   7
HETATM    7  C5  UNL     1      22.811   1.032  53.091  1.00  0.00     0.010 A 
HETATM    8  C6  UNL     1      23.248  -0.066  53.841  1.00  0.00     0.013 A 
HETATM    9  C7  UNL     1      22.379  -0.891  54.533  1.00  0.00     0.001 A 
HETATM   10  C8  UNL     1      21.019  -0.651  54.506  1.00  0.00     0.003 A 
HETATM   11  C9  UNL     1      20.551   0.433  53.770  1.00  0.00     0.040 A 
HETATM   12  C10 UNL     1      21.461   1.222  53.099  1.00  0.00     0.115 A 
BRANCH  12  13
HETATM   13  O1  UNL     1      20.943   2.264  52.393  1.00  0.00    -0.200 OA
BRANCH  13  14
HETATM   14  O2  UNL     1      20.080   3.176  52.786  1.00  0.00    -0.245 OA
HETATM   15  H10 UNL     1      19.815   3.115  53.727  1.00  0.00     0.254 HD
ENDBRANCH  13  14
ENDBRANCH  12  13
ENDBRANCH   5   7
BRANCH   5  16
HETATM   16  N2  UNL     1      25.197   1.572  52.814  1.00  0.00    -0.370 N 
HETATM   17  C11 UNL     1      25.750   0.534  52.005  1.00  0.00     0.087 A 
HETATM   18  C12 UNL     1      26.963   0.028  52.122  1.00  0.00     0.017 A 
HETATM   19  C13 UNL     1      27.870   0.531  53.146  1.00  0.00    -0.001 A 
HETATM   20  C14 UNL     1      27.345   1.493  53.885  1.00  0.00    -0.007 A 
HETATM   21  C15 UNL     1      26.025   2.136  53.852  1.00  0.00     0.151 A 
ENDBRANCH   5  16
ENDBRANCH   1   5
TORSDOF 5
ENDMDL
MODEL 9
REMARK VINA RESULT:      -6.9      3.568      6.385
REMARK  5 active torsions:
REMARK  status: ('A' for Active; 'I' for Inactive)
REMARK    1  A    between atoms: C2_2  and  C3_3 
REMARK    2  A    between atoms: C2_2  and  C5_7 
REMARK    3  A    between atoms: C2_2  and  N2_15 
REMARK    4  A    between atoms: C10_12  and  O1_13 
REMARK    5  A    between atoms: O1_13  and  O2_14 
ROOT
HETATM    1  C3  UNL     1      25.544   1.280  52.170  1.00  0.00     0.017 C 
HETATM    2  C4  UNL     1      25.945   1.662  53.373  1.00  0.00     0.199 C 
HETATM    3  S1  UNL     1      26.985   0.802  54.191  1.00  0.00    -0.084 SA
HETATM    4  N1  UNL     1      27.823   0.096  54.833  1.00  0.00    -0.126 N 
ENDROOT
BRANCH   1   5
HETATM    5  C2  UNL     1      24.567   2.382  51.767  1.00  0.00     0.077 C 
HETATM    6  C1  UNL     1      24.304   3.195  53.026  1.00  0.00     0.049 C 
BRANCH   5   7
HETATM    7  C5  UNL     1      23.349   1.784  51.234  1.00  0.00     0.010 A 
HETATM    8  C6  UNL     1      23.042   2.033  49.891  1.00  0.00     0.013 A 
HETATM    9  C7  UNL     1      21.926   1.500  49.270  1.00  0.00     0.001 A 
HETATM   10  C8  UNL     1      21.059   0.686  49.971  1.00  0.00     0.003 A 
HETATM   11  C9  UNL     1      21.334   0.418  51.308  1.00  0.00     0.040 A 
HETATM   12  C10 UNL     1      22.460   0.975  51.878  1.00  0.00     0.115 A 
BRANCH  12  13
HETATM   13  O1  UNL     1      22.674   0.681  53.190  1.00  0.00    -0.200 OA
BRANCH  13  14
HETATM   14  O2  UNL     1      21.912  -0.004  54.014  1.00  0.00    -0.245 OA
HETATM   15  H10 UNL     1      22.002  -0.978  53.947  1.00  0.00     0.254 HD
ENDBRANCH  13  14
ENDBRANCH  12  13
ENDBRANCH   5   7
BRANCH   5  16
HETATM   16  N2  UNL     1      25.288   3.255  50.864  1.00  0.00    -0.370 N 
HETATM   17  C11 UNL     1      24.699   4.555  50.849  1.00  0.00     0.087 A 
HETATM   18  C12 UNL     1      25.095   5.572  50.106  1.00  0.00     0.017 A 
HETATM   19  C13 UNL     1      26.227   5.420  49.202  1.00  0.00    -0.001 A 
HETATM   20  C14 UNL     1      26.762   4.213  49.229  1.00  0.00    -0.007 A 
HETATM   21  C15 UNL     1      26.421   3.013  50.003  1.00  0.00     0.151 A 
ENDBRANCH   5  16
ENDBRANCH   1   5
TORSDOF 5
ENDMDL
