MODEL 1
REMARK VINA RESULT:      -9.9      0.000      0.000
REMARK  3 active torsions:
REMARK  status: ('A' for Active; 'I' for Inactive)
REMARK    1  A    between atoms: C4_5  and  N1_6 
REMARK    2  A    between atoms: N1_6  and  C5_7 
REMARK    3  A    between atoms: C14_22  and  C15_23 
ROOT
HETATM    1  C5  UNL     1      24.695   0.869  52.689  1.00  0.00     0.144 A 
HETATM    2  N2  UNL     1      24.700   0.002  53.669  1.00  0.00    -0.223 NA
HETATM    3  C6  UNL     1      23.747  -0.650  54.224  1.00  0.00     0.236 A 
HETATM    4  N3  UNL     1      22.506  -0.353  53.642  1.00  0.00    -0.241 NA
HETATM    5  C7  UNL     1      22.612   0.544  52.648  1.00  0.00     0.071 A 
HETATM    6  C8  UNL     1      23.447   1.293  51.982  1.00  0.00     0.071 A 
HETATM    7  C9  UNL     1      23.793   2.148  51.104  1.00  0.00     0.095 C 
HETATM    8  O1  UNL     1      25.079   2.584  50.852  1.00  0.00    -0.349 OA
HETATM    9  C10 UNL     1      25.375   3.815  50.217  1.00  0.00     0.201 C 
HETATM   10  C11 UNL     1      24.157   4.319  49.462  1.00  0.00     0.196 C 
HETATM   11  O2  UNL     1      23.089   4.155  50.269  1.00  0.00    -0.374 OA
HETATM   12  C12 UNL     1      22.652   2.710  50.314  1.00  0.00     0.186 A 
HETATM   13  S1  UNL     1      21.239   2.910  51.150  1.00  0.00    -0.188 SA
HETATM   14  C13 UNL     1      20.150   3.086  51.826  1.00  0.00     0.128 A 
HETATM   15  O3  UNL     1      19.285   3.238  52.339  1.00  0.00    -0.365 OA
HETATM   16  C14 UNL     1      19.409   3.931  50.647  1.00  0.00     0.209 A 
HETATM   17  C15 UNL     1      21.241   2.909  51.149  1.00  0.00     0.103 A 
HETATM   18  O4  UNL     1      19.818   1.599  50.754  1.00  0.00     0.000 OA
HETATM   19  C16 UNL     1      20.810   0.727  50.484  1.00  0.00     0.033 C 
HETATM   20  C17 UNL     1      21.681   0.544  51.649  1.00  0.00     0.006 C 
HETATM   21  H10 UNL     1      23.476   2.502  49.706  1.00  0.00     0.139 HD
ENDROOT
BRANCH   1  22
HETATM   22  N1  UNL     1      26.080   1.288  52.440  1.00  0.00    -0.340 N 
HETATM   23  H3  UNL     1      26.156   2.212  51.924  1.00  0.00     0.167 HD
BRANCH  22  24
HETATM   24  C4  UNL     1      27.206   0.561  52.853  1.00  0.00     0.035 A 
HETATM   25  C3  UNL     1      28.243   1.306  53.401  1.00  0.00     0.032 A 
HETATM   26  C2  UNL     1      29.415   0.744  53.838  1.00  0.00     0.046 A 
HETATM   27  C1  UNL     1      29.623  -0.632  53.754  1.00  0.00     0.138 A 
HETATM   28  F1  UNL     1      30.752  -1.237  54.175  1.00  0.00    -0.204 F 
HETATM   29  C19 UNL     1      28.589  -1.358  53.213  1.00  0.00     0.074 A 
HETATM   30  C18 UNL     1      27.408  -0.785  52.771  1.00  0.00     0.056 A 
HETATM   31 CL1  UNL     1      28.688  -3.108  53.025  1.00  0.00    -0.081 Cl
ENDBRANCH  22  24
ENDBRANCH   1  22
TORSDOF 3
ENDMDL
MODEL 2
REMARK VINA RESULT:      -9.8      2.057      3.663
REMARK  3 active torsions:
REMARK  status: ('A' for Active; 'I' for Inactive)
REMARK    1  A    between atoms: C4_5  and  N1_6 
REMARK    2  A    between atoms: N1_6  and  C5_7 
REMARK    3  A    between atoms: C14_22  and  C15_23 
ROOT
HETATM    1  C5  UNL     1      24.469   1.062  52.561  1.00  0.00     0.144 A 
HETATM    2  N2  UNL     1      25.345   1.716  51.842  1.00  0.00    -0.223 NA
HETATM    3  C6  UNL     1      25.196   2.613  50.940  1.00  0.00     0.236 A 
HETATM    4  N3  UNL     1      23.843   2.915  50.726  1.00  0.00    -0.241 NA
HETATM    5  C7  UNL     1      23.030   2.192  51.513  1.00  0.00     0.071 A 
HETATM    6  C8  UNL     1      22.993   1.269  52.434  1.00  0.00     0.071 A 
HETATM    7  C9  UNL     1      22.437   0.472  53.258  1.00  0.00     0.095 C 
HETATM    8  O1  UNL     1      23.083  -0.401  54.111  1.00  0.00    -0.349 OA
HETATM    9  C10 UNL     1      22.467  -1.551  54.662  1.00  0.00     0.201 C 
HETATM   10  C11 UNL     1      20.955  -1.422  54.583  1.00  0.00     0.196 C 
HETATM   11  O2  UNL     1      20.657  -0.956  53.353  1.00  0.00    -0.374 OA
HETATM   12  C12 UNL     1      20.940   0.522  53.242  1.00  0.00     0.186 A 
HETATM   13  S1  UNL     1      20.254   0.792  51.761  1.00  0.00    -0.188 SA
HETATM   14  C13 UNL     1      19.733   0.975  50.591  1.00  0.00     0.128 A 
HETATM   15  O3  UNL     1      19.301   1.111  49.681  1.00  0.00    -0.365 OA
HETATM   16  C14 UNL     1      18.212   0.660  51.084  1.00  0.00     0.209 A 
HETATM   17  C15 UNL     1      20.255   0.791  51.764  1.00  0.00     0.103 A 
HETATM   18  O4  UNL     1      19.517   2.600  51.476  1.00  0.00     0.000 OA
HETATM   19  C16 UNL     1      20.464   3.032  52.333  1.00  0.00     0.033 C 
HETATM   20  C17 UNL     1      21.806   2.696  51.847  1.00  0.00     0.006 C 
HETATM   21  H10 UNL     1      21.314   0.465  54.217  1.00  0.00     0.139 HD
ENDROOT
BRANCH   1  22
HETATM   22  N1  UNL     1      25.196   0.164  53.467  1.00  0.00    -0.340 N 
HETATM   23  H3  UNL     1      24.561  -0.446  54.058  1.00  0.00     0.167 HD
BRANCH  22  24
HETATM   24  C4  UNL     1      26.595   0.091  53.543  1.00  0.00     0.035 A 
HETATM   25  C3  UNL     1      27.170  -1.079  53.064  1.00  0.00     0.032 A 
HETATM   26  C2  UNL     1      28.521  -1.309  53.083  1.00  0.00     0.046 A 
HETATM   27  C1  UNL     1      29.402  -0.355  53.591  1.00  0.00     0.138 A 
HETATM   28  F1  UNL     1      30.738  -0.525  53.627  1.00  0.00    -0.204 F 
HETATM   29  C19 UNL     1      28.821   0.800  54.059  1.00  0.00     0.074 A 
HETATM   30  C18 UNL     1      27.455   1.026  54.040  1.00  0.00     0.056 A 
HETATM   31 CL1  UNL     1      29.786   2.107  54.744  1.00  0.00    -0.081 Cl
ENDBRANCH  22  24
ENDBRANCH   1  22
TORSDOF 3
ENDMDL
MODEL 3
REMARK VINA RESULT:      -9.7      4.275      7.353
REMARK  3 active torsions:
REMARK  status: ('A' for Active; 'I' for Inactive)
REMARK    1  A    between atoms: C4_5  and  N1_6 
REMARK    2  A    between atoms: N1_6  and  C5_7 
REMARK    3  A    between atoms: C14_22  and  C15_23 
ROOT
HETATM    1  C5  UNL     1      22.720   0.619  52.512  1.00  0.00     0.144 A 
HETATM    2  N2  UNL     1      21.753  -0.149  52.947  1.00  0.00    -0.223 NA
HETATM    3  C6  UNL     1      21.759  -1.122  53.780  1.00  0.00     0.236 A 
HETATM    4  N3  UNL     1      23.043  -1.364  54.288  1.00  0.00    -0.241 NA
HETATM    5  C7  UNL     1      23.958  -0.523  53.780  1.00  0.00     0.071 A 
HETATM    6  C8  UNL     1      24.140   0.471  52.955  1.00  0.00     0.071 A 
HETATM    7  C9  UNL     1      24.814   1.356  52.334  1.00  0.00     0.095 C 
HETATM    8  O1  UNL     1      24.316   2.280  51.436  1.00  0.00    -0.349 OA
HETATM    9  C10 UNL     1      25.111   2.922  50.456  1.00  0.00     0.201 C 
HETATM   10  C11 UNL     1      26.580   2.827  50.832  1.00  0.00     0.196 C 
HETATM   11  O2  UNL     1      26.809   1.562  51.240  1.00  0.00    -0.374 OA
HETATM   12  C12 UNL     1      26.281   1.332  52.635  1.00  0.00     0.186 A 
HETATM   13  S1  UNL     1      26.928  -0.168  52.895  1.00  0.00    -0.188 SA
HETATM   14  C13 UNL     1      27.423  -1.351  53.068  1.00  0.00     0.128 A 
HETATM   15  O3  UNL     1      27.835  -2.271  53.201  1.00  0.00    -0.365 OA
HETATM   16  C14 UNL     1      28.969  -0.839  53.057  1.00  0.00     0.209 A 
HETATM   17  C15 UNL     1      26.926  -0.166  52.895  1.00  0.00     0.103 A 
HETATM   18  O4  UNL     1      27.351  -0.603  54.773  1.00  0.00     0.000 OA
HETATM   19  C16 UNL     1      26.335   0.217  55.107  1.00  0.00     0.033 C 
HETATM   20  C17 UNL     1      25.075  -0.235  54.510  1.00  0.00     0.006 C 
HETATM   21  H10 UNL     1      25.911   2.309  52.595  1.00  0.00     0.139 HD
ENDROOT
BRANCH   1  22
HETATM   22  N1  UNL     1      22.144   1.598  51.581  1.00  0.00    -0.340 N 
HETATM   23  H3  UNL     1      22.874   2.143  51.036  1.00  0.00     0.167 HD
BRANCH  22  24
HETATM   24  C4  UNL     1      20.767   1.793  51.400  1.00  0.00     0.035 A 
HETATM   25  C3  UNL     1      20.257   2.997  51.869  1.00  0.00     0.032 A 
HETATM   26  C2  UNL     1      18.930   3.331  51.779  1.00  0.00     0.046 A 
HETATM   27  C1  UNL     1      18.011   2.458  51.197  1.00  0.00     0.138 A 
HETATM   28  F1  UNL     1      16.698   2.738  51.076  1.00  0.00    -0.204 F 
HETATM   29  C19 UNL     1      18.529   1.272  50.734  1.00  0.00     0.074 A 
HETATM   30  C18 UNL     1      19.870   0.939  50.829  1.00  0.00     0.056 A 
HETATM   31 CL1  UNL     1      17.507   0.051  49.977  1.00  0.00    -0.081 Cl
ENDBRANCH  22  24
ENDBRANCH   1  22
TORSDOF 3
ENDMDL
MODEL 4
REMARK VINA RESULT:      -9.3      2.764      4.693
REMARK  3 active torsions:
REMARK  status: ('A' for Active; 'I' for Inactive)
REMARK    1  A    between atoms: C4_5  and  N1_6 
REMARK    2  A    between atoms: N1_6  and  C5_7 
REMARK    3  A    between atoms: C14_22  and  C15_23 
ROOT
HETATM    1  C5  UNL     1      25.617   3.409  50.402  1.00  0.00     0.144 A 
HETATM    2  N2  UNL     1      26.733   3.416  49.718  1.00  0.00    -0.223 NA
HETATM    3  C6  UNL     1      27.293   4.336  49.025  1.00  0.00     0.236 A 
HETATM    4  N3  UNL     1      26.545   5.522  49.035  1.00  0.00    -0.241 NA
HETATM    5  C7  UNL     1      25.422   5.410  49.764  1.00  0.00     0.071 A 
HETATM    6  C8  UNL     1      24.711   4.595  50.494  1.00  0.00     0.071 A 
HETATM    7  C9  UNL     1      23.720   4.247  51.214  1.00  0.00     0.095 C 
HETATM    8  O1  UNL     1      23.535   3.012  51.805  1.00  0.00    -0.349 OA
HETATM    9  C10 UNL     1      22.268   2.520  52.200  1.00  0.00     0.201 C 
HETATM   10  C11 UNL     1      21.279   3.666  52.328  1.00  0.00     0.196 C 
HETATM   11  O2  UNL     1      21.446   4.461  51.252  1.00  0.00    -0.374 OA
HETATM   12  C12 UNL     1      22.684   5.314  51.388  1.00  0.00     0.186 A 
HETATM   13  S1  UNL     1      22.449   6.295  50.077  1.00  0.00    -0.188 SA
HETATM   14  C13 UNL     1      22.257   7.035  49.033  1.00  0.00     0.128 A 
HETATM   15  O3  UNL     1      22.085   7.625  48.224  1.00  0.00    -0.365 OA
HETATM   16  C14 UNL     1      20.927   7.756  49.637  1.00  0.00     0.209 A 
HETATM   17  C15 UNL     1      22.449   6.294  50.079  1.00  0.00     0.103 A 
HETATM   18  O4  UNL     1      23.194   8.116  50.227  1.00  0.00     0.000 OA
HETATM   19  C16 UNL     1      24.134   7.578  51.029  1.00  0.00     0.033 C 
HETATM   20  C17 UNL     1      24.883   6.528  50.332  1.00  0.00     0.006 C 
HETATM   21  H10 UNL     1      22.867   4.805  52.282  1.00  0.00     0.139 HD
ENDROOT
BRANCH   1  22
HETATM   22  N1  UNL     1      25.471   2.090  51.029  1.00  0.00    -0.340 N 
HETATM   23  H3  UNL     1      24.558   1.606  50.789  1.00  0.00     0.167 HD
BRANCH  22  24
HETATM   24  C4  UNL     1      26.443   1.500  51.851  1.00  0.00     0.035 A 
HETATM   25  C3  UNL     1      26.412   0.113  51.930  1.00  0.00     0.032 A 
HETATM   26  C2  UNL     1      27.285  -0.610  52.702  1.00  0.00     0.046 A 
HETATM   27  C1  UNL     1      28.268   0.028  53.457  1.00  0.00     0.138 A 
HETATM   28  F1  UNL     1      29.155  -0.634  54.227  1.00  0.00    -0.204 F 
HETATM   29  C19 UNL     1      28.290   1.399  53.369  1.00  0.00     0.074 A 
HETATM   30  C18 UNL     1      27.404   2.125  52.589  1.00  0.00     0.056 A 
HETATM   31 CL1  UNL     1      29.462   2.364  54.265  1.00  0.00    -0.081 Cl
ENDBRANCH  22  24
ENDBRANCH   1  22
TORSDOF 3
ENDMDL
MODEL 5
REMARK VINA RESULT:      -9.0      4.635      7.551
REMARK  3 active torsions:
REMARK  status: ('A' for Active; 'I' for Inactive)
REMARK    1  A    between atoms: C4_5  and  N1_6 
REMARK    2  A    between atoms: N1_6  and  C5_7 
REMARK    3  A    between atoms: C14_22  and  C15_23 
ROOT
HETATM    1  C5  UNL     1      24.498   3.412  50.317  1.00  0.00     0.144 A 
HETATM    2  N2  UNL     1      25.342   4.214  49.719  1.00  0.00    -0.223 NA
HETATM    3  C6  UNL     1      26.622   4.253  49.732  1.00  0.00     0.236 A 
HETATM    4  N3  UNL     1      27.165   3.240  50.535  1.00  0.00    -0.241 NA
HETATM    5  C7  UNL     1      26.216   2.475  51.099  1.00  0.00     0.071 A 
HETATM    6  C8  UNL     1      24.929   2.295  51.212  1.00  0.00     0.071 A 
HETATM    7  C9  UNL     1      23.868   1.731  51.635  1.00  0.00     0.095 C 
HETATM    8  O1  UNL     1      22.572   2.082  51.311  1.00  0.00    -0.349 OA
HETATM    9  C10 UNL     1      21.452   1.754  52.112  1.00  0.00     0.201 C 
HETATM   10  C11 UNL     1      21.800   0.614  53.054  1.00  0.00     0.196 C 
HETATM   11  O2  UNL     1      23.014   0.881  53.576  1.00  0.00    -0.374 OA
HETATM   12  C12 UNL     1      24.114   0.597  52.582  1.00  0.00     0.186 A 
HETATM   13  S1  UNL     1      25.410   0.784  53.592  1.00  0.00    -0.188 SA
HETATM   14  C13 UNL     1      26.410   0.958  54.395  1.00  0.00     0.128 A 
HETATM   15  O3  UNL     1      27.187   1.076  55.039  1.00  0.00    -0.365 OA
HETATM   16  C14 UNL     1      26.049  -0.332  55.322  1.00  0.00     0.209 A 
HETATM   17  C15 UNL     1      25.408   0.783  53.591  1.00  0.00     0.103 A 
HETATM   18  O4  UNL     1      27.001  -0.296  53.151  1.00  0.00     0.000 OA
HETATM   19  C16 UNL     1      26.601  -0.213  51.866  1.00  0.00     0.033 C 
HETATM   20  C17 UNL     1      26.513   1.184  51.432  1.00  0.00     0.006 C 
HETATM   21  H10 UNL     1      23.358   0.370  51.897  1.00  0.00     0.139 HD
ENDROOT
BRANCH   1  22
HETATM   22  N1  UNL     1      23.137   3.805  49.927  1.00  0.00    -0.340 N 
HETATM   23  H3  UNL     1      22.479   3.922  50.752  1.00  0.00     0.167 HD
BRANCH  22  24
HETATM   24  C4  UNL     1      22.734   4.030  48.603  1.00  0.00     0.035 A 
HETATM   25  C3  UNL     1      22.418   2.897  47.864  1.00  0.00     0.032 A 
HETATM   26  C2  UNL     1      22.021   2.948  46.552  1.00  0.00     0.046 A 
HETATM   27  C1  UNL     1      21.911   4.169  45.886  1.00  0.00     0.138 A 
HETATM   28  F1  UNL     1      21.519   4.278  44.601  1.00  0.00    -0.204 F 
HETATM   29  C19 UNL     1      22.223   5.282  46.629  1.00  0.00     0.074 A 
HETATM   30  C18 UNL     1      22.625   5.224  47.954  1.00  0.00     0.056 A 
HETATM   31 CL1  UNL     1      22.144   6.903  45.941  1.00  0.00    -0.081 Cl
ENDBRANCH  22  24
ENDBRANCH   1  22
TORSDOF 3
ENDMDL
MODEL 6
REMARK VINA RESULT:      -8.8      3.851      5.436
REMARK  3 active torsions:
REMARK  status: ('A' for Active; 'I' for Inactive)
REMARK    1  A    between atoms: C4_5  and  N1_6 
REMARK    2  A    between atoms: N1_6  and  C5_7 
REMARK    3  A    between atoms: C14_22  and  C15_23 
ROOT
HETATM    1  C5  UNL     1      24.928   2.306  51.276  1.00  0.00     0.144 A 
HETATM    2  N2  UNL     1      25.971   2.586  52.016  1.00  0.00    -0.223 NA
HETATM    3  C6  UNL     1      26.300   2.199  53.192  1.00  0.00     0.236 A 
HETATM    4  N3  UNL     1      25.349   1.324  53.736  1.00  0.00    -0.241 NA
HETATM    5  C7  UNL     1      24.323   1.103  52.898  1.00  0.00     0.071 A 
HETATM    6  C8  UNL     1      23.829   1.399  51.728  1.00  0.00     0.071 A 
HETATM    7  C9  UNL     1      22.974   1.359  50.784  1.00  0.00     0.095 C 
HETATM    8  O1  UNL     1      23.062   2.018  49.574  1.00  0.00    -0.349 OA
HETATM    9  C10 UNL     1      21.939   2.313  48.763  1.00  0.00     0.201 C 
HETATM   10  C11 UNL     1      20.768   1.426  49.150  1.00  0.00     0.196 C 
HETATM   11  O2  UNL     1      20.708   1.406  50.497  1.00  0.00    -0.374 OA
HETATM   12  C12 UNL     1      21.774   0.512  51.081  1.00  0.00     0.186 A 
HETATM   13  S1  UNL     1      21.268   0.526  52.656  1.00  0.00    -0.188 SA
HETATM   14  C13 UNL     1      20.868   0.570  53.886  1.00  0.00     0.128 A 
HETATM   15  O3  UNL     1      20.531   0.595  54.845  1.00  0.00    -0.365 OA
HETATM   16  C14 UNL     1      19.475  -0.221  53.589  1.00  0.00     0.209 A 
HETATM   17  C15 UNL     1      21.269   0.526  52.654  1.00  0.00     0.103 A 
HETATM   18  O4  UNL     1      21.674  -1.099  53.699  1.00  0.00     0.000 OA
HETATM   19  C16 UNL     1      22.753  -1.242  52.904  1.00  0.00     0.033 C 
HETATM   20  C17 UNL     1      23.629  -0.070  52.990  1.00  0.00     0.006 C 
HETATM   21  H10 UNL     1      22.112   0.372  50.102  1.00  0.00     0.139 HD
ENDROOT
BRANCH   1  22
HETATM   22  N1  UNL     1      25.074   3.007  49.994  1.00  0.00    -0.340 N 
HETATM   23  H3  UNL     1      24.958   2.374  49.150  1.00  0.00     0.167 HD
BRANCH  22  24
HETATM   24  C4  UNL     1      25.321   4.383  49.875  1.00  0.00     0.035 A 
HETATM   25  C3  UNL     1      26.436   4.737  49.126  1.00  0.00     0.032 A 
HETATM   26  C2  UNL     1      26.819   6.039  48.929  1.00  0.00     0.046 A 
HETATM   27  C1  UNL     1      26.089   7.091  49.481  1.00  0.00     0.138 A 
HETATM   28  F1  UNL     1      26.416   8.387  49.313  1.00  0.00    -0.204 F 
HETATM   29  C19 UNL     1      24.987   6.727  50.218  1.00  0.00     0.074 A 
HETATM   30  C18 UNL     1      24.605   5.410  50.415  1.00  0.00     0.056 A 
HETATM   31 CL1  UNL     1      23.956   7.929  50.993  1.00  0.00    -0.081 Cl
ENDBRANCH  22  24
ENDBRANCH   1  22
TORSDOF 3
ENDMDL
MODEL 7
REMARK VINA RESULT:      -8.8      1.868      2.298
REMARK  3 active torsions:
REMARK  status: ('A' for Active; 'I' for Inactive)
REMARK    1  A    between atoms: C4_5  and  N1_6 
REMARK    2  A    between atoms: N1_6  and  C5_7 
REMARK    3  A    between atoms: C14_22  and  C15_23 
ROOT
HETATM    1  C5  UNL     1      23.526   1.866  52.381  1.00  0.00     0.144 A 
HETATM    2  N2  UNL     1      23.035   1.065  53.292  1.00  0.00    -0.223 NA
HETATM    3  C6  UNL     1      21.959   0.369  53.313  1.00  0.00     0.236 A 
HETATM    4  N3  UNL     1      21.219   0.521  52.132  1.00  0.00    -0.241 NA
HETATM    5  C7  UNL     1      21.810   1.360  51.265  1.00  0.00     0.071 A 
HETATM    6  C8  UNL     1      22.843   2.134  51.078  1.00  0.00     0.071 A 
HETATM    7  C9  UNL     1      23.574   2.960  50.442  1.00  0.00     0.095 C 
HETATM    8  O1  UNL     1      24.775   3.488  50.874  1.00  0.00    -0.349 OA
HETATM    9  C10 UNL     1      25.318   4.698  50.377  1.00  0.00     0.201 C 
HETATM   10  C11 UNL     1      24.683   5.046  49.042  1.00  0.00     0.196 C 
HETATM   11  O2  UNL     1      23.356   4.842  49.165  1.00  0.00    -0.374 OA
HETATM   12  C12 UNL     1      23.020   3.371  49.112  1.00  0.00     0.186 A 
HETATM   13  S1  UNL     1      21.372   3.499  49.039  1.00  0.00    -0.188 SA
HETATM   14  C13 UNL     1      20.085   3.623  49.007  1.00  0.00     0.128 A 
HETATM   15  O3  UNL     1      19.075   3.732  48.960  1.00  0.00    -0.365 OA
HETATM   16  C14 UNL     1      20.066   4.326  47.537  1.00  0.00     0.209 A 
HETATM   17  C15 UNL     1      21.375   3.499  49.039  1.00  0.00     0.103 A 
HETATM   18  O4  UNL     1      20.443   2.049  48.077  1.00  0.00     0.000 OA
HETATM   19  C16 UNL     1      21.457   1.250  48.468  1.00  0.00     0.033 C 
HETATM   20  C17 UNL     1      21.566   1.216  49.929  1.00  0.00     0.006 C 
HETATM   21  H10 UNL     1      24.049   3.196  49.064  1.00  0.00     0.139 HD
ENDROOT
BRANCH   1  22
HETATM   22  N1  UNL     1      24.809   2.386  52.870  1.00  0.00    -0.340 N 
HETATM   23  H3  UNL     1      24.776   3.413  53.134  1.00  0.00     0.167 HD
BRANCH  22  24
HETATM   24  C4  UNL     1      25.970   1.611  53.004  1.00  0.00     0.035 A 
HETATM   25  C3  UNL     1      25.947   0.369  52.381  1.00  0.00     0.032 A 
HETATM   26  C2  UNL     1      26.998  -0.511  52.431  1.00  0.00     0.046 A 
HETATM   27  C1  UNL     1      28.166  -0.190  53.122  1.00  0.00     0.138 A 
HETATM   28  F1  UNL     1      29.231  -1.013  53.198  1.00  0.00    -0.204 F 
HETATM   29  C19 UNL     1      28.178   1.042  53.731  1.00  0.00     0.074 A 
HETATM   30  C18 UNL     1      27.112   1.926  53.679  1.00  0.00     0.056 A 
HETATM   31 CL1  UNL     1      29.571   1.604  54.653  1.00  0.00    -0.081 Cl
ENDBRANCH  22  24
ENDBRANCH   1  22
TORSDOF 3
ENDMDL
MODEL 8
REMARK VINA RESULT:      -8.8      2.289      3.141
REMARK  3 active torsions:
REMARK  status: ('A' for Active; 'I' for Inactive)
REMARK    1  A    between atoms: C4_5  and  N1_6 
REMARK    2  A    between atoms: N1_6  and  C5_7 
REMARK    3  A    between atoms: C14_22  and  C15_23 
ROOT
HETATM    1  C5  UNL     1      24.527   2.374  51.009  1.00  0.00     0.144 A 
HETATM    2  N2  UNL     1      23.919   1.529  51.802  1.00  0.00    -0.223 NA
HETATM    3  C6  UNL     1      22.709   1.484  52.218  1.00  0.00     0.236 A 
HETATM    4  N3  UNL     1      21.942   2.539  51.704  1.00  0.00    -0.241 NA
HETATM    5  C7  UNL     1      22.658   3.345  50.903  1.00  0.00     0.071 A 
HETATM    6  C8  UNL     1      23.842   3.553  50.395  1.00  0.00     0.071 A 
HETATM    7  C9  UNL     1      24.716   4.167  49.701  1.00  0.00     0.095 C 
HETATM    8  O1  UNL     1      26.037   3.797  49.539  1.00  0.00    -0.349 OA
HETATM    9  C10 UNL     1      27.058   4.700  49.156  1.00  0.00     0.201 C 
HETATM   10  C11 UNL     1      26.449   5.933  48.511  1.00  0.00     0.196 C 
HETATM   11  O2  UNL     1      25.397   6.304  49.269  1.00  0.00    -0.374 OA
HETATM   12  C12 UNL     1      24.207   5.407  49.033  1.00  0.00     0.186 A 
HETATM   13  S1  UNL     1      23.081   6.264  49.891  1.00  0.00    -0.188 SA
HETATM   14  C13 UNL     1      22.224   6.938  50.587  1.00  0.00     0.128 A 
HETATM   15  O3  UNL     1      21.553   7.487  51.118  1.00  0.00    -0.365 OA
HETATM   16  C14 UNL     1      22.246   8.229  49.593  1.00  0.00     0.209 A 
HETATM   17  C15 UNL     1      23.083   6.263  49.889  1.00  0.00     0.103 A 
HETATM   18  O4  UNL     1      21.222   6.120  49.246  1.00  0.00     0.000 OA
HETATM   19  C16 UNL     1      21.554   4.887  48.813  1.00  0.00     0.033 C 
HETATM   20  C17 UNL     1      22.019   4.048  49.922  1.00  0.00     0.006 C 
HETATM   21  H10 UNL     1      24.823   4.852  48.397  1.00  0.00     0.139 HD
ENDROOT
BRANCH   1  22
HETATM   22  N1  UNL     1      25.918   1.932  50.847  1.00  0.00    -0.340 N 
HETATM   23  H3  UNL     1      26.343   2.207  49.914  1.00  0.00     0.167 HD
BRANCH  22  24
HETATM   24  C4  UNL     1      26.638   1.232  51.826  1.00  0.00     0.035 A 
HETATM   25  C3  UNL     1      27.248   2.009  52.803  1.00  0.00     0.032 A 
HETATM   26  C2  UNL     1      27.999   1.475  53.819  1.00  0.00     0.046 A 
HETATM   27  C1  UNL     1      28.186   0.097  53.922  1.00  0.00     0.138 A 
HETATM   28  F1  UNL     1      28.907  -0.480  54.903  1.00  0.00    -0.204 F 
HETATM   29  C19 UNL     1      27.575  -0.660  52.951  1.00  0.00     0.074 A 
HETATM   30  C18 UNL     1      26.819  -0.116  51.926  1.00  0.00     0.056 A 
HETATM   31 CL1  UNL     1      27.715  -2.417  52.926  1.00  0.00    -0.081 Cl
ENDBRANCH  22  24
ENDBRANCH   1  22
TORSDOF 3
ENDMDL
MODEL 9
REMARK VINA RESULT:      -8.6      4.156      7.057
REMARK  3 active torsions:
REMARK  status: ('A' for Active; 'I' for Inactive)
REMARK    1  A    between atoms: C4_5  and  N1_6 
REMARK    2  A    between atoms: N1_6  and  C5_7 
REMARK    3  A    between atoms: C14_22  and  C15_23 
ROOT
HETATM    1  C5  UNL     1      22.475   1.473  52.201  1.00  0.00     0.144 A 
HETATM    2  N2  UNL     1      21.343   0.869  52.458  1.00  0.00    -0.223 NA
HETATM    3  C6  UNL     1      21.090  -0.218  53.088  1.00  0.00     0.236 A 
HETATM    4  N3  UNL     1      22.260  -0.824  53.569  1.00  0.00    -0.241 NA
HETATM    5  C7  UNL     1      23.362  -0.125  53.253  1.00  0.00     0.071 A 
HETATM    6  C8  UNL     1      23.802   0.939  52.640  1.00  0.00     0.071 A 
HETATM    7  C9  UNL     1      24.685   1.753  52.216  1.00  0.00     0.095 C 
HETATM    8  O1  UNL     1      24.451   2.912  51.502  1.00  0.00    -0.349 OA
HETATM    9  C10 UNL     1      25.424   3.533  50.683  1.00  0.00     0.201 C 
HETATM   10  C11 UNL     1      26.813   3.052  51.066  1.00  0.00     0.196 C 
HETATM   11  O2  UNL     1      26.744   1.715  51.228  1.00  0.00    -0.374 OA
HETATM   12  C12 UNL     1      26.091   1.354  52.540  1.00  0.00     0.186 A 
HETATM   13  S1  UNL     1      26.390  -0.273  52.521  1.00  0.00    -0.188 SA
HETATM   14  C13 UNL     1      26.613  -1.547  52.473  1.00  0.00     0.128 A 
HETATM   15  O3  UNL     1      26.813  -2.543  52.436  1.00  0.00    -0.365 OA
HETATM   16  C14 UNL     1      28.230  -1.392  52.596  1.00  0.00     0.209 A 
HETATM   17  C15 UNL     1      26.389  -0.271  52.521  1.00  0.00     0.103 A 
HETATM   18  O4  UNL     1      26.592  -1.127  54.288  1.00  0.00     0.000 OA
HETATM   19  C16 UNL     1      25.752  -0.179  54.751  1.00  0.00     0.033 C 
HETATM   20  C17 UNL     1      24.466  -0.228  54.050  1.00  0.00     0.006 C 
HETATM   21  H10 UNL     1      25.939   2.378  52.681  1.00  0.00     0.139 HD
ENDROOT
BRANCH   1  22
HETATM   22  N1  UNL     1      22.180   2.707  51.464  1.00  0.00    -0.340 N 
HETATM   23  H3  UNL     1      22.542   3.583  51.943  1.00  0.00     0.167 HD
BRANCH  22  24
HETATM   24  C4  UNL     1      21.505   2.745  50.235  1.00  0.00     0.035 A 
HETATM   25  C3  UNL     1      20.123   2.614  50.296  1.00  0.00     0.032 A 
HETATM   26  C2  UNL     1      19.323   2.616  49.182  1.00  0.00     0.046 A 
HETATM   27  C1  UNL     1      19.872   2.757  47.908  1.00  0.00     0.138 A 
HETATM   28  F1  UNL     1      19.133   2.773  46.781  1.00  0.00    -0.204 F 
HETATM   29  C19 UNL     1      21.239   2.888  47.861  1.00  0.00     0.074 A 
HETATM   30  C18 UNL     1      22.043   2.884  48.990  1.00  0.00     0.056 A 
HETATM   31 CL1  UNL     1      22.098   3.068  46.332  1.00  0.00    -0.081 Cl
ENDBRANCH  22  24
ENDBRANCH   1  22
TORSDOF 3
ENDMDL
