MODEL 1
REMARK VINA RESULT:      -8.0      0.000      0.000
REMARK  6 active torsions:
REMARK  status: ('A' for Active; 'I' for Inactive)
REMARK    1  A    between atoms: O1_2  and  C2_3 
REMARK    2  A    between atoms: C4_5  and  N1_6 
REMARK    3  A    between atoms: N1_6  and  C5_7 
REMARK    4  A    between atoms: C14_20  and  O2_21 
REMARK    5  A    between atoms: O2_21  and  C15_22 
REMARK    6  A    between atoms: C15_22  and  C16_23 
ROOT
HETATM    1  C2  UNL     1      22.788   2.732  50.752  1.00  0.00     0.102 C 
HETATM    2  C3  UNL     1      22.250   3.352  49.685  1.00  0.00     0.074 C 
HETATM    3  C4  UNL     1      22.444   4.813  49.855  1.00  0.00     0.194 A 
HETATM    4  N2  UNL     1      21.489   5.715  49.349  1.00  0.00    -0.240 NA
HETATM    5  C11 UNL     1      21.172   6.551  50.273  1.00  0.00     0.230 A 
HETATM    6  N3  UNL     1      21.895   6.256  51.490  1.00  0.00    -0.242 NA
HETATM    7  C12 UNL     1      22.655   5.195  51.235  1.00  0.00     0.093 A 
HETATM    8  C13 UNL     1      23.351   4.483  52.300  1.00  0.00     0.071 C 
HETATM    9  C14 UNL     1      23.378   3.143  52.031  1.00  0.00     0.103 C 
ENDROOT
BRANCH   3  10
HETATM   10  N1  UNL     1      23.680   5.158  49.055  1.00  0.00    -0.351 N 
HETATM   11  H5  UNL     1      23.245   5.296  48.092  1.00  0.00     0.163 HD
BRANCH  10  12
HETATM   12  C5  UNL     1      25.063   5.408  48.849  1.00  0.00     0.069 A 
HETATM   13  C6  UNL     1      25.579   6.616  48.361  1.00  0.00     0.034 A 
HETATM   14  C7  UNL     1      26.934   6.668  48.219  1.00  0.00     0.021 A 
HETATM   15  C8  UNL     1      27.734   5.616  48.529  1.00  0.00     0.014 A 
HETATM   16 BR1  UNL     1      29.576   5.985  48.226  1.00  0.00    -0.051 Br
HETATM   17  C9  UNL     1      27.261   4.417  49.009  1.00  0.00     0.063 A 
HETATM   18  C10 UNL     1      25.900   4.361  49.154  1.00  0.00     0.144 A 
HETATM   19  F1  UNL     1      25.637   3.120  49.620  1.00  0.00    -0.204 F 
ENDBRANCH  10  12
ENDBRANCH   3  10
BRANCH   1  20
HETATM   20  O1  UNL     1      22.749   1.316  50.729  1.00  0.00    -0.353 OA
HETATM   21  C1  UNL     1      21.542   0.603  50.918  1.00  0.00     0.210 C 
ENDBRANCH   1  20
BRANCH   9  22
HETATM   22  O2  UNL     1      23.943   2.282  52.954  1.00  0.00    -0.348 OA
BRANCH  22  23
HETATM   23  C15 UNL     1      25.196   2.381  53.551  1.00  0.00     0.180 C 
BRANCH  23  24
HETATM   24  C16 UNL     1      26.211   1.440  52.935  1.00  0.00     0.013 C 
HETATM   25  C17 UNL     1      27.562   2.139  53.022  1.00  0.00     0.037 C 
HETATM   26  C18 UNL     1      28.578   1.198  53.671  1.00  0.00     0.272 C 
HETATM   27  N4  UNL     1      28.522  -0.116  53.093  1.00  0.00     0.084 N 
HETATM   28  C19 UNL     1      29.559  -0.916  53.681  1.00  0.00     0.309 C 
HETATM   29  C20 UNL     1      27.245  -0.755  53.157  1.00  0.00     0.272 C 
HETATM   30  C21 UNL     1      26.256   0.197  53.799  1.00  0.00     0.037 C 
ENDBRANCH  23  24
ENDBRANCH  22  23
ENDBRANCH   9  22
TORSDOF 6
ENDMDL
MODEL 2
REMARK VINA RESULT:      -7.8      3.180      6.638
REMARK  6 active torsions:
REMARK  status: ('A' for Active; 'I' for Inactive)
REMARK    1  A    between atoms: O1_2  and  C2_3 
REMARK    2  A    between atoms: C4_5  and  N1_6 
REMARK    3  A    between atoms: N1_6  and  C5_7 
REMARK    4  A    between atoms: C14_20  and  O2_21 
REMARK    5  A    between atoms: O2_21  and  C15_22 
REMARK    6  A    between atoms: C15_22  and  C16_23 
ROOT
HETATM    1  C2  UNL     1      24.168   4.889  51.284  1.00  0.00     0.102 C 
HETATM    2  C3  UNL     1      23.571   4.329  52.353  1.00  0.00     0.074 C 
HETATM    3  C4  UNL     1      23.558   2.859  52.156  1.00  0.00     0.194 A 
HETATM    4  N2  UNL     1      22.498   2.088  52.669  1.00  0.00    -0.240 NA
HETATM    5  C11 UNL     1      22.049   1.322  51.740  1.00  0.00     0.230 A 
HETATM    6  N3  UNL     1      22.781   1.537  50.510  1.00  0.00    -0.242 NA
HETATM    7  C12 UNL     1      23.685   2.478  50.765  1.00  0.00     0.093 A 
HETATM    8  C13 UNL     1      24.451   3.107  49.696  1.00  0.00     0.071 C 
HETATM    9  C14 UNL     1      24.669   4.425  49.985  1.00  0.00     0.103 C 
ENDROOT
BRANCH   3  10
HETATM   10  N1  UNL     1      24.751   2.331  52.921  1.00  0.00    -0.351 N 
HETATM   11  H5  UNL     1      24.554   2.748  53.881  1.00  0.00     0.163 HD
BRANCH  10  12
HETATM   12  C5  UNL     1      25.960   1.608  53.099  1.00  0.00     0.069 A 
HETATM   13  C6  UNL     1      27.207   2.205  53.326  1.00  0.00     0.034 A 
HETATM   14  C7  UNL     1      28.259   1.350  53.463  1.00  0.00     0.021 A 
HETATM   15  C8  UNL     1      28.110   0.002  53.384  1.00  0.00     0.014 A 
HETATM   16 BR1  UNL     1      29.753  -0.930  53.614  1.00  0.00    -0.051 Br
HETATM   17  C9  UNL     1      26.902  -0.617  53.162  1.00  0.00     0.063 A 
HETATM   18  C10 UNL     1      25.842   0.240  53.024  1.00  0.00     0.144 A 
HETATM   19  F1  UNL     1      24.765  -0.547  52.807  1.00  0.00    -0.204 F 
ENDBRANCH  10  12
ENDBRANCH   3  10
BRANCH   1  20
HETATM   20  O1  UNL     1      24.326   6.297  51.331  1.00  0.00    -0.353 OA
HETATM   21  C1  UNL     1      23.317   7.174  50.868  1.00  0.00     0.210 C 
ENDBRANCH   1  20
BRANCH   9  22
HETATM   22  O2  UNL     1      25.328   5.217  49.063  1.00  0.00    -0.348 OA
BRANCH  22  23
HETATM   23  C15 UNL     1      26.701   5.325  48.865  1.00  0.00     0.180 C 
BRANCH  23  24
HETATM   24  C16 UNL     1      27.088   6.606  48.156  1.00  0.00     0.013 C 
HETATM   25  C17 UNL     1      26.797   7.746  49.126  1.00  0.00     0.037 C 
HETATM   26  C18 UNL     1      28.040   8.627  49.259  1.00  0.00     0.272 C 
HETATM   27  N4  UNL     1      28.599   8.946  47.974  1.00  0.00     0.084 N 
HETATM   28  C19 UNL     1      29.701   9.846  48.168  1.00  0.00     0.309 C 
HETATM   29  C20 UNL     1      28.957   7.820  47.169  1.00  0.00     0.272 C 
HETATM   30  C21 UNL     1      28.582   6.553  47.911  1.00  0.00     0.037 C 
ENDBRANCH  23  24
ENDBRANCH  22  23
ENDBRANCH   9  22
TORSDOF 6
ENDMDL
MODEL 3
REMARK VINA RESULT:      -7.7      1.655      1.992
REMARK  6 active torsions:
REMARK  status: ('A' for Active; 'I' for Inactive)
REMARK    1  A    between atoms: O1_2  and  C2_3 
REMARK    2  A    between atoms: C4_5  and  N1_6 
REMARK    3  A    between atoms: N1_6  and  C5_7 
REMARK    4  A    between atoms: C14_20  and  O2_21 
REMARK    5  A    between atoms: O2_21  and  C15_22 
REMARK    6  A    between atoms: C15_22  and  C16_23 
ROOT
HETATM    1  C2  UNL     1      23.357   3.988  49.115  1.00  0.00     0.102 C 
HETATM    2  C3  UNL     1      23.159   5.171  48.502  1.00  0.00     0.074 C 
HETATM    3  C4  UNL     1      23.933   6.203  49.233  1.00  0.00     0.194 A 
HETATM    4  N2  UNL     1      23.454   7.525  49.305  1.00  0.00    -0.240 NA
HETATM    5  C11 UNL     1      23.478   7.913  50.531  1.00  0.00     0.230 A 
HETATM    6  N3  UNL     1      23.974   6.856  51.385  1.00  0.00    -0.242 NA
HETATM    7  C12 UNL     1      24.236   5.819  50.595  1.00  0.00     0.093 A 
HETATM    8  C13 UNL     1      24.539   4.503  51.143  1.00  0.00     0.071 C 
HETATM    9  C14 UNL     1      24.021   3.527  50.339  1.00  0.00     0.103 C 
ENDROOT
BRANCH   3  10
HETATM   10  N1  UNL     1      25.229   6.364  48.469  1.00  0.00    -0.351 N 
HETATM   11  H5  UNL     1      24.845   6.539  47.490  1.00  0.00     0.163 HD
BRANCH  10  12
HETATM   12  C5  UNL     1      26.638   6.421  48.304  1.00  0.00     0.069 A 
HETATM   13  C6  UNL     1      27.338   7.572  47.920  1.00  0.00     0.034 A 
HETATM   14  C7  UNL     1      28.689   7.435  47.803  1.00  0.00     0.021 A 
HETATM   15  C8  UNL     1      29.318   6.256  48.041  1.00  0.00     0.014 A 
HETATM   16 BR1  UNL     1      31.202   6.370  47.796  1.00  0.00    -0.051 Br
HETATM   17  C9  UNL     1      28.662   5.107  48.418  1.00  0.00     0.063 A 
HETATM   18  C10 UNL     1      27.304   5.242  48.538  1.00  0.00     0.144 A 
HETATM   19  F1  UNL     1      26.850   4.022  48.902  1.00  0.00    -0.204 F 
ENDBRANCH  10  12
ENDBRANCH   3  10
BRANCH   1  20
HETATM   20  O1  UNL     1      22.738   2.867  48.509  1.00  0.00    -0.353 OA
HETATM   21  C1  UNL     1      22.173   2.940  47.213  1.00  0.00     0.210 C 
ENDBRANCH   1  20
BRANCH   9  22
HETATM   22  O2  UNL     1      24.148   2.203  50.719  1.00  0.00    -0.348 OA
BRANCH  22  23
HETATM   23  C15 UNL     1      24.490   1.709  51.974  1.00  0.00     0.180 C 
BRANCH  23  24
HETATM   24  C16 UNL     1      25.734   0.845  51.941  1.00  0.00     0.013 C 
HETATM   25  C17 UNL     1      26.924   1.792  52.045  1.00  0.00     0.037 C 
HETATM   26  C18 UNL     1      27.847   1.323  53.170  1.00  0.00     0.272 C 
HETATM   27  N4  UNL     1      28.099  -0.089  53.090  1.00  0.00     0.084 N 
HETATM   28  C19 UNL     1      29.041  -0.443  54.114  1.00  0.00     0.309 C 
HETATM   29  C20 UNL     1      26.935  -0.919  53.117  1.00  0.00     0.272 C 
HETATM   30  C21 UNL     1      25.708  -0.032  53.175  1.00  0.00     0.037 C 
ENDBRANCH  23  24
ENDBRANCH  22  23
ENDBRANCH   9  22
TORSDOF 6
ENDMDL
MODEL 4
REMARK VINA RESULT:      -7.5      2.973      6.307
REMARK  6 active torsions:
REMARK  status: ('A' for Active; 'I' for Inactive)
REMARK    1  A    between atoms: O1_2  and  C2_3 
REMARK    2  A    between atoms: C4_5  and  N1_6 
REMARK    3  A    between atoms: N1_6  and  C5_7 
REMARK    4  A    between atoms: C14_20  and  O2_21 
REMARK    5  A    between atoms: O2_21  and  C15_22 
REMARK    6  A    between atoms: C15_22  and  C16_23 
ROOT
HETATM    1  C2  UNL     1      22.526   3.761  51.460  1.00  0.00     0.102 C 
HETATM    2  C3  UNL     1      21.886   3.210  52.509  1.00  0.00     0.074 C 
HETATM    3  C4  UNL     1      21.814   1.745  52.287  1.00  0.00     0.194 A 
HETATM    4  N2  UNL     1      20.713   1.012  52.768  1.00  0.00    -0.240 NA
HETATM    5  C11 UNL     1      20.248   0.281  51.819  1.00  0.00     0.230 A 
HETATM    6  N3  UNL     1      21.011   0.484  50.606  1.00  0.00    -0.242 NA
HETATM    7  C12 UNL     1      21.950   1.381  50.892  1.00  0.00     0.093 A 
HETATM    8  C13 UNL     1      22.761   1.994  49.847  1.00  0.00     0.071 C 
HETATM    9  C14 UNL     1      23.029   3.296  50.163  1.00  0.00     0.103 C 
ENDROOT
BRANCH   3  10
HETATM   10  N1  UNL     1      22.969   1.154  53.063  1.00  0.00    -0.351 N 
HETATM   11  H5  UNL     1      22.459   0.840  53.944  1.00  0.00     0.163 HD
BRANCH  10  12
HETATM   12  C5  UNL     1      24.319   0.775  53.292  1.00  0.00     0.069 A 
HETATM   13  C6  UNL     1      24.779  -0.548  53.262  1.00  0.00     0.034 A 
HETATM   14  C7  UNL     1      26.107  -0.720  53.515  1.00  0.00     0.021 A 
HETATM   15  C8  UNL     1      26.933   0.323  53.782  1.00  0.00     0.014 A 
HETATM   16 BR1  UNL     1      28.728  -0.226  54.096  1.00  0.00    -0.051 Br
HETATM   17  C9  UNL     1      26.515   1.633  53.820  1.00  0.00     0.063 A 
HETATM   18  C10 UNL     1      25.180   1.811  53.565  1.00  0.00     0.144 A 
HETATM   19  F1  UNL     1      24.968   3.142  53.656  1.00  0.00    -0.204 F 
ENDBRANCH  10  12
ENDBRANCH   3  10
BRANCH   1  20
HETATM   20  O1  UNL     1      22.743   5.159  51.533  1.00  0.00    -0.353 OA
HETATM   21  C1  UNL     1      21.727   6.087  51.203  1.00  0.00     0.210 C 
ENDBRANCH   1  20
BRANCH   9  22
HETATM   22  O2  UNL     1      23.738   4.074  49.265  1.00  0.00    -0.348 OA
BRANCH  22  23
HETATM   23  C15 UNL     1      25.097   4.007  48.973  1.00  0.00     0.180 C 
BRANCH  23  24
HETATM   24  C16 UNL     1      25.877   5.167  49.556  1.00  0.00     0.013 C 
HETATM   25  C17 UNL     1      27.159   5.284  48.740  1.00  0.00     0.037 C 
HETATM   26  C18 UNL     1      27.322   6.725  48.256  1.00  0.00     0.272 C 
HETATM   27  N4  UNL     1      27.097   7.666  49.318  1.00  0.00     0.084 N 
HETATM   28  C19 UNL     1      27.356   8.987  48.819  1.00  0.00     0.309 C 
HETATM   29  C20 UNL     1      25.821   7.570  49.957  1.00  0.00     0.272 C 
HETATM   30  C21 UNL     1      25.053   6.420  49.339  1.00  0.00     0.037 C 
ENDBRANCH  23  24
ENDBRANCH  22  23
ENDBRANCH   9  22
TORSDOF 6
ENDMDL
MODEL 5
REMARK VINA RESULT:      -7.5      3.154      5.190
REMARK  6 active torsions:
REMARK  status: ('A' for Active; 'I' for Inactive)
REMARK    1  A    between atoms: O1_2  and  C2_3 
REMARK    2  A    between atoms: C4_5  and  N1_6 
REMARK    3  A    between atoms: N1_6  and  C5_7 
REMARK    4  A    between atoms: C14_20  and  O2_21 
REMARK    5  A    between atoms: O2_21  and  C15_22 
REMARK    6  A    between atoms: C15_22  and  C16_23 
ROOT
HETATM    1  C2  UNL     1      22.616   4.175  49.052  1.00  0.00     0.102 C 
HETATM    2  C3  UNL     1      23.878   4.601  48.858  1.00  0.00     0.074 C 
HETATM    3  C4  UNL     1      24.299   5.359  50.062  1.00  0.00     0.194 A 
HETATM    4  N2  UNL     1      25.193   6.439  49.938  1.00  0.00    -0.240 NA
HETATM    5  C11 UNL     1      24.711   7.456  50.560  1.00  0.00     0.230 A 
HETATM    6  N3  UNL     1      23.429   7.128  51.145  1.00  0.00    -0.242 NA
HETATM    7  C12 UNL     1      23.179   5.861  50.829  1.00  0.00     0.093 A 
HETATM    8  C13 UNL     1      21.871   5.263  51.062  1.00  0.00     0.071 C 
HETATM    9  C14 UNL     1      21.573   4.378  50.064  1.00  0.00     0.103 C 
ENDROOT
BRANCH   3  10
HETATM   10  N1  UNL     1      25.078   4.381  50.912  1.00  0.00    -0.351 N 
HETATM   11  H5  UNL     1      25.705   5.058  51.445  1.00  0.00     0.163 HD
BRANCH  10  12
HETATM   12  C5  UNL     1      25.448   3.103  51.408  1.00  0.00     0.069 A 
HETATM   13  C6  UNL     1      26.526   2.353  50.921  1.00  0.00     0.034 A 
HETATM   14  C7  UNL     1      26.723   1.142  51.515  1.00  0.00     0.021 A 
HETATM   15  C8  UNL     1      25.925   0.688  52.515  1.00  0.00     0.014 A 
HETATM   16 BR1  UNL     1      26.444  -1.031  53.143  1.00  0.00    -0.051 Br
HETATM   17  C9  UNL     1      24.858   1.398  53.017  1.00  0.00     0.063 A 
HETATM   18  C10 UNL     1      24.658   2.617  52.423  1.00  0.00     0.144 A 
HETATM   19  F1  UNL     1      23.578   3.146  53.038  1.00  0.00    -0.204 F 
ENDBRANCH  10  12
ENDBRANCH   3  10
BRANCH   1  20
HETATM   20  O1  UNL     1      22.069   3.373  48.021  1.00  0.00    -0.353 OA
HETATM   21  C1  UNL     1      22.477   2.032  47.827  1.00  0.00     0.210 C 
ENDBRANCH   1  20
BRANCH   9  22
HETATM   22  O2  UNL     1      20.342   3.746  50.068  1.00  0.00    -0.348 OA
BRANCH  22  23
HETATM   23  C15 UNL     1      19.490   3.557  51.151  1.00  0.00     0.180 C 
BRANCH  23  24
HETATM   24  C16 UNL     1      19.577   2.157  51.723  1.00  0.00     0.013 C 
HETATM   25  C17 UNL     1      20.206   1.284  50.643  1.00  0.00     0.037 C 
HETATM   26  C18 UNL     1      21.388   0.517  51.237  1.00  0.00     0.272 C 
HETATM   27  N4  UNL     1      21.046  -0.087  52.495  1.00  0.00     0.084 N 
HETATM   28  C19 UNL     1      22.166  -0.863  52.947  1.00  0.00     0.309 C 
HETATM   29  C20 UNL     1      20.575   0.817  53.497  1.00  0.00     0.272 C 
HETATM   30  C21 UNL     1      20.520   2.211  52.907  1.00  0.00     0.037 C 
ENDBRANCH  23  24
ENDBRANCH  22  23
ENDBRANCH   9  22
TORSDOF 6
ENDMDL
MODEL 6
REMARK VINA RESULT:      -7.3      3.817      5.857
REMARK  6 active torsions:
REMARK  status: ('A' for Active; 'I' for Inactive)
REMARK    1  A    between atoms: O1_2  and  C2_3 
REMARK    2  A    between atoms: C4_5  and  N1_6 
REMARK    3  A    between atoms: N1_6  and  C5_7 
REMARK    4  A    between atoms: C14_20  and  O2_21 
REMARK    5  A    between atoms: O2_21  and  C15_22 
REMARK    6  A    between atoms: C15_22  and  C16_23 
ROOT
HETATM    1  C2  UNL     1      22.740   4.297  51.088  1.00  0.00     0.102 C 
HETATM    2  C3  UNL     1      21.690   4.583  50.296  1.00  0.00     0.074 C 
HETATM    3  C4  UNL     1      21.385   3.382  49.482  1.00  0.00     0.194 A 
HETATM    4  N2  UNL     1      20.870   3.524  48.180  1.00  0.00    -0.240 NA
HETATM    5  C11 UNL     1      21.562   2.799  47.374  1.00  0.00     0.230 A 
HETATM    6  N3  UNL     1      22.618   2.116  48.090  1.00  0.00    -0.242 NA
HETATM    7  C12 UNL     1      22.513   2.482  49.364  1.00  0.00     0.093 A 
HETATM    8  C13 UNL     1      23.552   2.164  50.335  1.00  0.00     0.071 C 
HETATM    9  C14 UNL     1      23.680   3.180  51.239  1.00  0.00     0.103 C 
ENDROOT
BRANCH   3  10
HETATM   10  N1  UNL     1      20.263   2.670  50.204  1.00  0.00    -0.351 N 
HETATM   11  H5  UNL     1      19.509   3.421  50.159  1.00  0.00     0.163 HD
BRANCH  10  12
HETATM   12  C5  UNL     1      19.641   1.594  50.892  1.00  0.00     0.069 A 
HETATM   13  C6  UNL     1      18.538   0.882  50.403  1.00  0.00     0.034 A 
HETATM   14  C7  UNL     1      18.069  -0.112  51.208  1.00  0.00     0.021 A 
HETATM   15  C8  UNL     1      18.633  -0.396  52.409  1.00  0.00     0.014 A 
HETATM   16 BR1  UNL     1      17.763  -1.832  53.305  1.00  0.00    -0.051 Br
HETATM   17  C9  UNL     1      19.715   0.282  52.920  1.00  0.00     0.063 A 
HETATM   18  C10 UNL     1      20.190   1.283  52.113  1.00  0.00     0.144 A 
HETATM   19  F1  UNL     1      21.230   1.826  52.784  1.00  0.00    -0.204 F 
ENDBRANCH  10  12
ENDBRANCH   3  10
BRANCH   1  20
HETATM   20  O1  UNL     1      23.133   5.318  51.988  1.00  0.00    -0.353 OA
HETATM   21  C1  UNL     1      23.928   6.412  51.568  1.00  0.00     0.210 C 
ENDBRANCH   1  20
BRANCH   9  22
HETATM   22  O2  UNL     1      24.660   3.098  52.212  1.00  0.00    -0.348 OA
BRANCH  22  23
HETATM   23  C15 UNL     1      24.739   2.188  53.262  1.00  0.00     0.180 C 
BRANCH  23  24
HETATM   24  C16 UNL     1      26.131   2.100  53.853  1.00  0.00     0.013 C 
HETATM   25  C17 UNL     1      26.233   0.736  54.525  1.00  0.00     0.037 C 
HETATM   26  C18 UNL     1      27.489   0.019  54.027  1.00  0.00     0.272 C 
HETATM   27  N4  UNL     1      28.635   0.885  54.056  1.00  0.00     0.084 N 
HETATM   28  C19 UNL     1      29.789   0.125  53.666  1.00  0.00     0.309 C 
HETATM   29  C20 UNL     1      28.504   2.094  53.302  1.00  0.00     0.272 C 
HETATM   30  C21 UNL     1      27.114   2.144  52.702  1.00  0.00     0.037 C 
ENDBRANCH  23  24
ENDBRANCH  22  23
ENDBRANCH   9  22
TORSDOF 6
ENDMDL
MODEL 7
REMARK VINA RESULT:      -6.9      3.495      6.284
REMARK  6 active torsions:
REMARK  status: ('A' for Active; 'I' for Inactive)
REMARK    1  A    between atoms: O1_2  and  C2_3 
REMARK    2  A    between atoms: C4_5  and  N1_6 
REMARK    3  A    between atoms: N1_6  and  C5_7 
REMARK    4  A    between atoms: C14_20  and  O2_21 
REMARK    5  A    between atoms: O2_21  and  C15_22 
REMARK    6  A    between atoms: C15_22  and  C16_23 
ROOT
HETATM    1  C2  UNL     1      24.925   7.995  49.886  1.00  0.00     0.102 C 
HETATM    2  C3  UNL     1      24.103   7.668  50.901  1.00  0.00     0.074 C 
HETATM    3  C4  UNL     1      23.461   6.371  50.575  1.00  0.00     0.194 A 
HETATM    4  N2  UNL     1      22.153   6.100  51.018  1.00  0.00    -0.240 NA
HETATM    5  C11 UNL     1      21.452   5.682  50.024  1.00  0.00     0.230 A 
HETATM    6  N3  UNL     1      22.252   5.654  48.819  1.00  0.00    -0.242 NA
HETATM    7  C12 UNL     1      23.465   6.084  49.156  1.00  0.00     0.093 A 
HETATM    8  C13 UNL     1      24.468   6.399  48.148  1.00  0.00     0.071 C 
HETATM    9  C14 UNL     1      25.224   7.463  48.552  1.00  0.00     0.103 C 
ENDROOT
BRANCH   3  10
HETATM   10  N1  UNL     1      24.276   5.317  51.291  1.00  0.00    -0.351 N 
HETATM   11  H5  UNL     1      24.718   5.914  52.056  1.00  0.00     0.163 HD
BRANCH  10  12
HETATM   12  C5  UNL     1      24.781   4.013  51.535  1.00  0.00     0.069 A 
HETATM   13  C6  UNL     1      24.327   3.173  52.560  1.00  0.00     0.034 A 
HETATM   14  C7  UNL     1      24.938   1.958  52.647  1.00  0.00     0.021 A 
HETATM   15  C8  UNL     1      25.926   1.583  51.795  1.00  0.00     0.014 A 
HETATM   16 BR1  UNL     1      26.585  -0.164  52.163  1.00  0.00    -0.051 Br
HETATM   17  C9  UNL     1      26.397   2.382  50.779  1.00  0.00     0.063 A 
HETATM   18  C10 UNL     1      25.785   3.605  50.688  1.00  0.00     0.144 A 
HETATM   19  F1  UNL     1      26.383   4.233  49.653  1.00  0.00    -0.204 F 
ENDBRANCH  10  12
ENDBRANCH   3  10
BRANCH   1  20
HETATM   20  O1  UNL     1      25.675   9.184  50.057  1.00  0.00    -0.353 OA
HETATM   21  C1  UNL     1      26.985   9.165  50.593  1.00  0.00     0.210 C 
ENDBRANCH   1  20
BRANCH   9  22
HETATM   22  O2  UNL     1      26.197   7.960  47.704  1.00  0.00    -0.348 OA
BRANCH  22  23
HETATM   23  C15 UNL     1      27.305   7.287  47.196  1.00  0.00     0.180 C 
BRANCH  23  24
HETATM   24  C16 UNL     1      28.389   7.085  48.234  1.00  0.00     0.013 C 
HETATM   25  C17 UNL     1      28.800   5.619  48.154  1.00  0.00     0.037 C 
HETATM   26  C18 UNL     1      30.320   5.526  48.009  1.00  0.00     0.272 C 
HETATM   27  N4  UNL     1      30.991   6.376  48.952  1.00  0.00     0.084 N 
HETATM   28  C19 UNL     1      32.406   6.171  48.823  1.00  0.00     0.309 C 
HETATM   29  C20 UNL     1      30.638   7.761  48.885  1.00  0.00     0.272 C 
HETATM   30  C21 UNL     1      29.571   7.938  47.824  1.00  0.00     0.037 C 
ENDBRANCH  23  24
ENDBRANCH  22  23
ENDBRANCH   9  22
TORSDOF 6
ENDMDL
MODEL 8
REMARK VINA RESULT:      -6.8      5.046      7.929
REMARK  6 active torsions:
REMARK  status: ('A' for Active; 'I' for Inactive)
REMARK    1  A    between atoms: O1_2  and  C2_3 
REMARK    2  A    between atoms: C4_5  and  N1_6 
REMARK    3  A    between atoms: N1_6  and  C5_7 
REMARK    4  A    between atoms: C14_20  and  O2_21 
REMARK    5  A    between atoms: O2_21  and  C15_22 
REMARK    6  A    between atoms: C15_22  and  C16_23 
ROOT
HETATM    1  C2  UNL     1      29.422   8.880  48.951  1.00  0.00     0.102 C 
HETATM    2  C3  UNL     1      28.152   9.213  49.249  1.00  0.00     0.074 C 
HETATM    3  C4  UNL     1      27.250   8.369  48.427  1.00  0.00     0.194 A 
HETATM    4  N2  UNL     1      26.012   8.876  47.992  1.00  0.00    -0.240 NA
HETATM    5  C11 UNL     1      25.895   8.673  46.728  1.00  0.00     0.230 A 
HETATM    6  N3  UNL     1      27.075   8.013  46.213  1.00  0.00    -0.242 NA
HETATM    7  C12 UNL     1      27.897   7.843  47.244  1.00  0.00     0.093 A 
HETATM    8  C13 UNL     1      29.277   7.412  47.054  1.00  0.00     0.071 C 
HETATM    9  C14 UNL     1      30.090   8.017  47.970  1.00  0.00     0.103 C 
ENDROOT
BRANCH   3  10
HETATM   10  N1  UNL     1      26.841   7.217  49.317  1.00  0.00    -0.351 N 
HETATM   11  H5  UNL     1      27.548   7.333  50.106  1.00  0.00     0.163 HD
BRANCH  10  12
HETATM   12  C5  UNL     1      26.069   6.091  49.707  1.00  0.00     0.069 A 
HETATM   13  C6  UNL     1      24.935   6.161  50.526  1.00  0.00     0.034 A 
HETATM   14  C7  UNL     1      24.327   4.973  50.803  1.00  0.00     0.021 A 
HETATM   15  C8  UNL     1      24.792   3.793  50.317  1.00  0.00     0.014 A 
HETATM   16 BR1  UNL     1      23.739   2.309  50.872  1.00  0.00    -0.051 Br
HETATM   17  C9  UNL     1      25.902   3.688  49.511  1.00  0.00     0.063 A 
HETATM   18  C10 UNL     1      26.515   4.881  49.230  1.00  0.00     0.144 A 
HETATM   19  F1  UNL     1      27.571   4.569  48.447  1.00  0.00    -0.204 F 
ENDBRANCH  10  12
ENDBRANCH   3  10
BRANCH   1  20
HETATM   20  O1  UNL     1      30.427   9.548  49.695  1.00  0.00    -0.353 OA
HETATM   21  C1  UNL     1      30.779  10.893  49.427  1.00  0.00     0.210 C 
ENDBRANCH   1  20
BRANCH   9  22
HETATM   22  O2  UNL     1      31.453   7.786  47.919  1.00  0.00    -0.348 OA
BRANCH  22  23
HETATM   23  C15 UNL     1      32.249   7.655  46.785  1.00  0.00     0.180 C 
BRANCH  23  24
HETATM   24  C16 UNL     1      33.076   6.386  46.797  1.00  0.00     0.013 C 
HETATM   25  C17 UNL     1      32.870   5.746  48.165  1.00  0.00     0.037 C 
HETATM   26  C18 UNL     1      32.462   4.283  47.983  1.00  0.00     0.272 C 
HETATM   27  N4  UNL     1      33.308   3.615  47.033  1.00  0.00     0.084 N 
HETATM   28  C19 UNL     1      32.929   2.231  46.981  1.00  0.00     0.309 C 
HETATM   29  C20 UNL     1      33.355   4.211  45.734  1.00  0.00     0.272 C 
HETATM   30  C21 UNL     1      32.501   5.463  45.743  1.00  0.00     0.037 C 
ENDBRANCH  23  24
ENDBRANCH  22  23
ENDBRANCH   9  22
TORSDOF 6
ENDMDL
MODEL 9
REMARK VINA RESULT:      -6.7      3.529      5.493
REMARK  6 active torsions:
REMARK  status: ('A' for Active; 'I' for Inactive)
REMARK    1  A    between atoms: O1_2  and  C2_3 
REMARK    2  A    between atoms: C4_5  and  N1_6 
REMARK    3  A    between atoms: N1_6  and  C5_7 
REMARK    4  A    between atoms: C14_20  and  O2_21 
REMARK    5  A    between atoms: O2_21  and  C15_22 
REMARK    6  A    between atoms: C15_22  and  C16_23 
ROOT
HETATM    1  C2  UNL     1      24.349   4.700  51.285  1.00  0.00     0.102 C 
HETATM    2  C3  UNL     1      24.334   5.853  50.589  1.00  0.00     0.074 C 
HETATM    3  C4  UNL     1      25.073   5.636  49.322  1.00  0.00     0.194 A 
HETATM    4  N2  UNL     1      25.796   6.692  48.738  1.00  0.00    -0.240 NA
HETATM    5  C11 UNL     1      26.984   6.285  48.462  1.00  0.00     0.230 A 
HETATM    6  N3  UNL     1      27.149   4.904  48.860  1.00  0.00    -0.242 NA
HETATM    7  C12 UNL     1      25.992   4.520  49.392  1.00  0.00     0.093 A 
HETATM    8  C13 UNL     1      25.865   3.255  50.105  1.00  0.00     0.071 C 
HETATM    9  C14 UNL     1      24.994   3.389  51.150  1.00  0.00     0.103 C 
ENDROOT
BRANCH   3  10
HETATM   10  N1  UNL     1      24.020   5.340  48.277  1.00  0.00    -0.351 N 
HETATM   11  H5  UNL     1      24.559   5.595  47.394  1.00  0.00     0.163 HD
BRANCH  10  12
HETATM   12  C5  UNL     1      22.751   4.920  47.799  1.00  0.00     0.069 A 
HETATM   13  C6  UNL     1      21.805   5.777  47.222  1.00  0.00     0.034 A 
HETATM   14  C7  UNL     1      20.637   5.196  46.829  1.00  0.00     0.021 A 
HETATM   15  C8  UNL     1      20.401   3.868  46.989  1.00  0.00     0.014 A 
HETATM   16 BR1  UNL     1      18.687   3.347  46.348  1.00  0.00    -0.051 Br
HETATM   17  C9  UNL     1      21.307   2.998  47.551  1.00  0.00     0.063 A 
HETATM   18  C10 UNL     1      22.483   3.579  47.946  1.00  0.00     0.144 A 
HETATM   19  F1  UNL     1      23.222   2.579  48.472  1.00  0.00    -0.204 F 
ENDBRANCH  10  12
ENDBRANCH   3  10
BRANCH   1  20
HETATM   20  O1  UNL     1      23.629   4.705  52.505  1.00  0.00    -0.353 OA
HETATM   21  C1  UNL     1      22.220   4.828  52.536  1.00  0.00     0.210 C 
ENDBRANCH   1  20
BRANCH   9  22
HETATM   22  O2  UNL     1      24.781   2.313  51.992  1.00  0.00    -0.348 OA
BRANCH  22  23
HETATM   23  C15 UNL     1      23.987   1.195  51.757  1.00  0.00     0.180 C 
BRANCH  23  24
HETATM   24  C16 UNL     1      22.616   1.310  52.391  1.00  0.00     0.013 C 
HETATM   25  C17 UNL     1      21.612   1.379  51.247  1.00  0.00     0.037 C 
HETATM   26  C18 UNL     1      20.520   0.331  51.469  1.00  0.00     0.272 C 
HETATM   27  N4  UNL     1      20.027   0.362  52.818  1.00  0.00     0.084 N 
HETATM   28  C19 UNL     1      18.947  -0.577  52.929  1.00  0.00     0.309 C 
HETATM   29  C20 UNL     1      21.016   0.171  53.833  1.00  0.00     0.272 C 
HETATM   30  C21 UNL     1      22.371   0.035  53.171  1.00  0.00     0.037 C 
ENDBRANCH  23  24
ENDBRANCH  22  23
ENDBRANCH   9  22
TORSDOF 6
ENDMDL
