MODEL 1
REMARK VINA RESULT:      -6.8      0.000      0.000
REMARK  1 active torsions:
REMARK  status: ('A' for Active; 'I' for Inactive)
REMARK    1  A    between atoms: O1_2  and  C2_3 
ROOT
HETATM    1  C2  UNL     1      21.880   0.051  52.572  1.00  0.00     0.191 C 
HETATM    2  C3  UNL     1      20.758   0.740  53.343  1.00  0.00     0.155 C 
HETATM    3  N1  UNL     1      19.993   1.505  52.392  1.00  0.00    -0.402 N 
HETATM    4  C4  UNL     1      19.250   0.698  51.550  1.00  0.00     0.144 C 
HETATM    5  C5  UNL     1      19.221   1.245  50.095  1.00  0.00     0.193 C 
HETATM    6  O2  UNL     1      20.547   1.367  49.737  1.00  0.00    -0.361 OA
HETATM    7  C6  UNL     1      21.177   1.459  48.595  1.00  0.00     0.135 C 
HETATM    8  C7  UNL     1      22.281   1.616  49.247  1.00  0.00     0.041 C 
HETATM    9  C8  UNL     1      22.654   1.674  50.626  1.00  0.00     0.039 A 
HETATM   10  C9  UNL     1      23.447   2.833  50.660  1.00  0.00     0.141 A 
HETATM   11  N2  UNL     1      24.117   3.439  51.640  1.00  0.00    -0.224 NA
HETATM   12  C10 UNL     1      24.052   2.861  52.897  1.00  0.00     0.235 A 
HETATM   13  N3  UNL     1      23.307   1.754  52.942  1.00  0.00    -0.243 NA
HETATM   14  C11 UNL     1      22.662   1.196  51.942  1.00  0.00     0.080 A 
HETATM   15  N4  UNL     1      23.677   3.818  49.611  1.00  0.00    -0.350 N 
HETATM   16  C12 UNL     1      22.395   4.412  49.525  1.00  0.00     0.090 C 
HETATM   17  C13 UNL     1      21.165   4.832  49.596  1.00  0.00     0.020 C 
HETATM   18  C14 UNL     1      20.091   4.396  50.484  1.00  0.00     0.041 C 
HETATM   19  C15 UNL     1      19.411   3.731  51.460  1.00  0.00     0.111 C 
HETATM   20  F1  UNL     1      18.158   3.698  51.975  1.00  0.00    -0.209 F 
HETATM   21  C16 UNL     1      20.183   2.848  52.398  1.00  0.00     0.187 C 
HETATM   22  H14 UNL     1      24.593   3.900  49.176  1.00  0.00     0.166 HD
ENDROOT
BRANCH   1  23
HETATM   23  O1  UNL     1      22.675  -0.729  53.352  1.00  0.00    -0.383 OA
HETATM   24  C1  UNL     1      22.128  -1.272  54.478  1.00  0.00     0.202 C 
ENDBRANCH   1  23
TORSDOF 1
ENDMDL
MODEL 2
REMARK VINA RESULT:      -6.7     10.621     12.771
REMARK  1 active torsions:
REMARK  status: ('A' for Active; 'I' for Inactive)
REMARK    1  A    between atoms: O1_2  and  C2_3 
ROOT
HETATM    1  C2  UNL     1      33.957   6.974  47.366  1.00  0.00     0.191 C 
HETATM    2  C3  UNL     1      33.816   7.222  45.868  1.00  0.00     0.155 C 
HETATM    3  N1  UNL     1      32.713   8.130  45.687  1.00  0.00    -0.402 N 
HETATM    4  C4  UNL     1      33.012   9.409  46.119  1.00  0.00     0.144 C 
HETATM    5  C5  UNL     1      31.802  10.087  46.821  1.00  0.00     0.193 C 
HETATM    6  O2  UNL     1      31.448   9.217  47.831  1.00  0.00    -0.361 OA
HETATM    7  C6  UNL     1      30.754   9.336  48.933  1.00  0.00     0.135 C 
HETATM    8  C7  UNL     1      30.896   8.066  49.128  1.00  0.00     0.041 C 
HETATM    9  C8  UNL     1      31.532   6.991  48.433  1.00  0.00     0.039 A 
HETATM   10  C9  UNL     1      30.514   6.022  48.411  1.00  0.00     0.141 A 
HETATM   11  N2  UNL     1      30.461   4.781  47.930  1.00  0.00    -0.224 NA
HETATM   12  C10 UNL     1      31.602   4.297  47.312  1.00  0.00     0.235 A 
HETATM   13  N3  UNL     1      32.612   5.169  47.289  1.00  0.00    -0.243 NA
HETATM   14  C11 UNL     1      32.613   6.388  47.780  1.00  0.00     0.080 A 
HETATM   15  N4  UNL     1      29.122   6.146  48.823  1.00  0.00    -0.350 N 
HETATM   16  C12 UNL     1      28.633   7.024  47.826  1.00  0.00     0.090 C 
HETATM   17  C13 UNL     1      28.370   7.824  46.833  1.00  0.00     0.020 C 
HETATM   18  C14 UNL     1      29.251   8.291  45.767  1.00  0.00     0.041 C 
HETATM   19  C15 UNL     1      30.355   8.468  44.986  1.00  0.00     0.111 C 
HETATM   20  F1  UNL     1      30.708   9.167  43.881  1.00  0.00    -0.209 F 
HETATM   21  C16 UNL     1      31.553   7.595  45.230  1.00  0.00     0.187 C 
HETATM   22  H14 UNL     1      28.783   5.651  49.644  1.00  0.00     0.166 HD
ENDROOT
BRANCH   1  23
HETATM   23  O1  UNL     1      34.985   6.142  47.684  1.00  0.00    -0.383 OA
HETATM   24  C1  UNL     1      35.664   6.383  48.843  1.00  0.00     0.202 C 
ENDBRANCH   1  23
TORSDOF 1
ENDMDL
MODEL 3
REMARK VINA RESULT:      -6.7      2.044      3.236
REMARK  1 active torsions:
REMARK  status: ('A' for Active; 'I' for Inactive)
REMARK    1  A    between atoms: O1_2  and  C2_3 
ROOT
HETATM    1  C2  UNL     1      25.203   2.429  51.080  1.00  0.00     0.191 C 
HETATM    2  C3  UNL     1      24.469   2.654  52.398  1.00  0.00     0.155 C 
HETATM    3  N1  UNL     1      23.065   2.452  52.146  1.00  0.00    -0.402 N 
HETATM    4  C4  UNL     1      22.761   1.122  51.921  1.00  0.00     0.144 C 
HETATM    5  C5  UNL     1      21.686   0.948  50.812  1.00  0.00     0.193 C 
HETATM    6  O2  UNL     1      22.203   1.603  49.714  1.00  0.00    -0.361 OA
HETATM    7  C6  UNL     1      21.959   1.559  48.430  1.00  0.00     0.135 C 
HETATM    8  C7  UNL     1      22.809   2.518  48.263  1.00  0.00     0.041 C 
HETATM    9  C8  UNL     1      23.650   3.298  49.117  1.00  0.00     0.039 A 
HETATM   10  C9  UNL     1      23.363   4.604  48.685  1.00  0.00     0.141 A 
HETATM   11  N2  UNL     1      23.823   5.798  49.056  1.00  0.00    -0.224 NA
HETATM   12  C10 UNL     1      24.769   5.820  50.068  1.00  0.00     0.235 A 
HETATM   13  N3  UNL     1      25.087   4.611  50.534  1.00  0.00    -0.243 NA
HETATM   14  C11 UNL     1      24.600   3.458  50.132  1.00  0.00     0.080 A 
HETATM   15  N4  UNL     1      22.345   5.056  47.746  1.00  0.00    -0.350 N 
HETATM   16  C12 UNL     1      21.169   4.790  48.488  1.00  0.00     0.090 C 
HETATM   17  C13 UNL     1      20.213   4.482  49.316  1.00  0.00     0.020 C 
HETATM   18  C14 UNL     1      20.303   3.932  50.666  1.00  0.00     0.041 C 
HETATM   19  C15 UNL     1      20.815   3.453  51.835  1.00  0.00     0.111 C 
HETATM   20  F1  UNL     1      20.357   2.966  53.013  1.00  0.00    -0.209 F 
HETATM   21  C16 UNL     1      22.294   3.566  52.070  1.00  0.00     0.187 C 
HETATM   22  H14 UNL     1      22.613   5.433  46.840  1.00  0.00     0.166 HD
ENDROOT
BRANCH   1  23
HETATM   23  O1  UNL     1      26.551   2.569  51.179  1.00  0.00    -0.383 OA
HETATM   24  C1  UNL     1      27.161   2.092  52.303  1.00  0.00     0.202 C 
ENDBRANCH   1  23
TORSDOF 1
ENDMDL
MODEL 4
REMARK VINA RESULT:      -6.5     10.214     12.060
REMARK  1 active torsions:
REMARK  status: ('A' for Active; 'I' for Inactive)
REMARK    1  A    between atoms: O1_2  and  C2_3 
ROOT
HETATM    1  C2  UNL     1      29.323   6.057  47.819  1.00  0.00     0.191 C 
HETATM    2  C3  UNL     1      28.944   7.383  48.471  1.00  0.00     0.155 C 
HETATM    3  N1  UNL     1      29.607   8.427  47.732  1.00  0.00    -0.402 N 
HETATM    4  C4  UNL     1      29.057   8.607  46.476  1.00  0.00     0.144 C 
HETATM    5  C5  UNL     1      30.142   8.907  45.403  1.00  0.00     0.193 C 
HETATM    6  O2  UNL     1      31.024   7.851  45.488  1.00  0.00    -0.361 OA
HETATM    7  C6  UNL     1      31.930   7.355  44.686  1.00  0.00     0.135 C 
HETATM    8  C7  UNL     1      32.255   6.518  45.615  1.00  0.00     0.041 C 
HETATM    9  C8  UNL     1      31.818   6.252  46.950  1.00  0.00     0.039 A 
HETATM   10  C9  UNL     1      33.037   6.209  47.648  1.00  0.00     0.141 A 
HETATM   11  N2  UNL     1      33.338   5.983  48.926  1.00  0.00    -0.224 NA
HETATM   12  C10 UNL     1      32.280   5.744  49.787  1.00  0.00     0.235 A 
HETATM   13  N3  UNL     1      31.085   5.776  49.194  1.00  0.00    -0.243 NA
HETATM   14  C11 UNL     1      30.842   6.005  47.922  1.00  0.00     0.080 A 
HETATM   15  N4  UNL     1      34.377   6.532  47.173  1.00  0.00    -0.350 N 
HETATM   16  C12 UNL     1      34.259   7.931  46.991  1.00  0.00     0.090 C 
HETATM   17  C13 UNL     1      33.962   9.194  46.892  1.00  0.00     0.020 C 
HETATM   18  C14 UNL     1      32.713   9.876  47.217  1.00  0.00     0.041 C 
HETATM   19  C15 UNL     1      31.435  10.104  47.634  1.00  0.00     0.111 C 
HETATM   20  F1  UNL     1      30.579  11.148  47.742  1.00  0.00    -0.209 F 
HETATM   21  C16 UNL     1      30.694   8.990  48.317  1.00  0.00     0.187 C 
HETATM   22  H14 UNL     1      35.074   5.799  47.065  1.00  0.00     0.166 HD
ENDROOT
BRANCH   1  23
HETATM   23  O1  UNL     1      28.745   4.977  48.409  1.00  0.00    -0.383 OA
HETATM   24  C1  UNL     1      27.406   5.034  48.670  1.00  0.00     0.202 C 
ENDBRANCH   1  23
TORSDOF 1
ENDMDL
MODEL 5
REMARK VINA RESULT:      -6.5      2.501      4.864
REMARK  1 active torsions:
REMARK  status: ('A' for Active; 'I' for Inactive)
REMARK    1  A    between atoms: O1_2  and  C2_3 
ROOT
HETATM    1  C2  UNL     1      23.998   5.404  50.444  1.00  0.00     0.191 C 
HETATM    2  C3  UNL     1      24.102   4.906  49.006  1.00  0.00     0.155 C 
HETATM    3  N1  UNL     1      22.919   4.129  48.736  1.00  0.00    -0.402 N 
HETATM    4  C4  UNL     1      21.787   4.916  48.640  1.00  0.00     0.144 C 
HETATM    5  C5  UNL     1      20.546   4.234  49.282  1.00  0.00     0.193 C 
HETATM    6  O2  UNL     1      20.930   3.950  50.576  1.00  0.00    -0.361 OA
HETATM    7  C6  UNL     1      20.281   3.685  51.680  1.00  0.00     0.135 C 
HETATM    8  C7  UNL     1      21.415   3.487  52.267  1.00  0.00     0.041 C 
HETATM    9  C8  UNL     1      22.789   3.530  51.876  1.00  0.00     0.039 A 
HETATM   10  C9  UNL     1      23.269   2.309  52.377  1.00  0.00     0.141 A 
HETATM   11  N2  UNL     1      24.475   1.741  52.369  1.00  0.00    -0.224 NA
HETATM   12  C10 UNL     1      25.495   2.444  51.751  1.00  0.00     0.235 A 
HETATM   13  N3  UNL     1      25.111   3.616  51.243  1.00  0.00    -0.243 NA
HETATM   14  C11 UNL     1      23.902   4.133  51.277  1.00  0.00     0.080 A 
HETATM   15  N4  UNL     1      22.525   1.208  52.976  1.00  0.00    -0.350 N 
HETATM   16  C12 UNL     1      21.810   0.735  51.849  1.00  0.00     0.090 C 
HETATM   17  C13 UNL     1      21.249   0.444  50.710  1.00  0.00     0.020 C 
HETATM   18  C14 UNL     1      21.439   1.067  49.404  1.00  0.00     0.041 C 
HETATM   19  C15 UNL     1      21.899   1.888  48.417  1.00  0.00     0.111 C 
HETATM   20  F1  UNL     1      21.691   2.092  47.095  1.00  0.00    -0.209 F 
HETATM   21  C16 UNL     1      23.070   2.780  48.715  1.00  0.00     0.187 C 
HETATM   22  H14 UNL     1      22.629   0.995  53.965  1.00  0.00     0.166 HD
ENDROOT
BRANCH   1  23
HETATM   23  O1  UNL     1      25.048   6.177  50.828  1.00  0.00    -0.383 OA
HETATM   24  C1  UNL     1      25.547   7.069  49.924  1.00  0.00     0.202 C 
ENDBRANCH   1  23
TORSDOF 1
ENDMDL
MODEL 6
REMARK VINA RESULT:      -6.4     11.987     13.754
REMARK  1 active torsions:
REMARK  status: ('A' for Active; 'I' for Inactive)
REMARK    1  A    between atoms: O1_2  and  C2_3 
ROOT
HETATM    1  C2  UNL     1      33.909   5.790  44.668  1.00  0.00     0.191 C 
HETATM    2  C3  UNL     1      32.711   6.544  44.099  1.00  0.00     0.155 C 
HETATM    3  N1  UNL     1      32.446   7.653  44.980  1.00  0.00    -0.402 N 
HETATM    4  C4  UNL     1      33.416   8.634  44.891  1.00  0.00     0.144 C 
HETATM    5  C5  UNL     1      33.745   9.257  46.278  1.00  0.00     0.193 C 
HETATM    6  O2  UNL     1      34.095   8.185  47.071  1.00  0.00    -0.361 OA
HETATM    7  C6  UNL     1      34.756   8.061  48.193  1.00  0.00     0.135 C 
HETATM    8  C7  UNL     1      34.491   6.796  48.178  1.00  0.00     0.041 C 
HETATM    9  C8  UNL     1      33.775   5.912  47.312  1.00  0.00     0.039 A 
HETATM   10  C9  UNL     1      32.959   5.218  48.221  1.00  0.00     0.141 A 
HETATM   11  N2  UNL     1      32.066   4.241  48.068  1.00  0.00    -0.224 NA
HETATM   12  C10 UNL     1      31.852   3.783  46.779  1.00  0.00     0.235 A 
HETATM   13  N3  UNL     1      32.590   4.403  45.857  1.00  0.00    -0.243 NA
HETATM   14  C11 UNL     1      33.461   5.367  46.061  1.00  0.00     0.080 A 
HETATM   15  N4  UNL     1      32.761   5.460  49.644  1.00  0.00    -0.350 N 
HETATM   16  C12 UNL     1      32.070   6.695  49.604  1.00  0.00     0.090 C 
HETATM   17  C13 UNL     1      31.448   7.814  49.367  1.00  0.00     0.020 C 
HETATM   18  C14 UNL     1      31.119   8.432  48.085  1.00  0.00     0.041 C 
HETATM   19  C15 UNL     1      31.008   8.645  46.744  1.00  0.00     0.111 C 
HETATM   20  F1  UNL     1      30.514   9.591  45.909  1.00  0.00    -0.209 F 
HETATM   21  C16 UNL     1      31.378   7.530  45.807  1.00  0.00     0.187 C 
HETATM   22  H14 UNL     1      33.105   4.794  50.331  1.00  0.00     0.166 HD
ENDROOT
BRANCH   1  23
HETATM   23  O1  UNL     1      34.284   4.721  43.917  1.00  0.00    -0.383 OA
HETATM   24  C1  UNL     1      34.261   4.857  42.559  1.00  0.00     0.202 C 
ENDBRANCH   1  23
TORSDOF 1
ENDMDL
MODEL 7
REMARK VINA RESULT:      -6.4     11.292     12.990
REMARK  1 active torsions:
REMARK  status: ('A' for Active; 'I' for Inactive)
REMARK    1  A    between atoms: O1_2  and  C2_3 
ROOT
HETATM    1  C2  UNL     1      32.608   5.515  47.939  1.00  0.00     0.191 C 
HETATM    2  C3  UNL     1      31.933   5.995  49.219  1.00  0.00     0.155 C 
HETATM    3  N1  UNL     1      31.147   7.154  48.879  1.00  0.00    -0.402 N 
HETATM    4  C4  UNL     1      30.036   6.829  48.124  1.00  0.00     0.144 C 
HETATM    5  C5  UNL     1      29.751   7.886  47.020  1.00  0.00     0.193 C 
HETATM    6  O2  UNL     1      30.923   7.966  46.298  1.00  0.00    -0.361 OA
HETATM    7  C6  UNL     1      31.227   8.405  45.104  1.00  0.00     0.135 C 
HETATM    8  C7  UNL     1      32.470   8.162  45.361  1.00  0.00     0.041 C 
HETATM    9  C8  UNL     1      33.200   7.643  46.475  1.00  0.00     0.039 A 
HETATM   10  C9  UNL     1      34.227   8.592  46.612  1.00  0.00     0.141 A 
HETATM   11  N2  UNL     1      35.260   8.690  47.449  1.00  0.00    -0.224 NA
HETATM   12  C10 UNL     1      35.395   7.691  48.398  1.00  0.00     0.235 A 
HETATM   13  N3  UNL     1      34.448   6.754  48.333  1.00  0.00    -0.243 NA
HETATM   14  C11 UNL     1      33.445   6.704  47.485  1.00  0.00     0.080 A 
HETATM   15  N4  UNL     1      34.398   9.864  45.921  1.00  0.00    -0.350 N 
HETATM   16  C12 UNL     1      33.321  10.603  46.466  1.00  0.00     0.090 C 
HETATM   17  C13 UNL     1      32.292  11.117  47.077  1.00  0.00     0.020 C 
HETATM   18  C14 UNL     1      31.423  10.516  48.084  1.00  0.00     0.041 C 
HETATM   19  C15 UNL     1      30.889   9.621  48.964  1.00  0.00     0.111 C 
HETATM   20  F1  UNL     1      29.849   9.555  49.829  1.00  0.00    -0.209 F 
HETATM   21  C16 UNL     1      31.649   8.358  49.252  1.00  0.00     0.187 C 
HETATM   22  H14 UNL     1      35.157   9.989  45.255  1.00  0.00     0.166 HD
ENDROOT
BRANCH   1  23
HETATM   23  O1  UNL     1      33.372   4.403  48.112  1.00  0.00    -0.383 OA
HETATM   24  C1  UNL     1      33.050   3.290  47.391  1.00  0.00     0.202 C 
ENDBRANCH   1  23
TORSDOF 1
ENDMDL
MODEL 8
REMARK VINA RESULT:      -6.4      2.105      2.921
REMARK  1 active torsions:
REMARK  status: ('A' for Active; 'I' for Inactive)
REMARK    1  A    between atoms: O1_2  and  C2_3 
ROOT
HETATM    1  C2  UNL     1      21.023   2.108  51.656  1.00  0.00     0.191 C 
HETATM    2  C3  UNL     1      20.615   3.393  52.369  1.00  0.00     0.155 C 
HETATM    3  N1  UNL     1      20.900   4.487  51.476  1.00  0.00    -0.402 N 
HETATM    4  C4  UNL     1      20.034   4.520  50.398  1.00  0.00     0.144 C 
HETATM    5  C5  UNL     1      20.756   4.925  49.082  1.00  0.00     0.193 C 
HETATM    6  O2  UNL     1      21.786   4.019  48.952  1.00  0.00    -0.361 OA
HETATM    7  C6  UNL     1      22.530   3.624  47.951  1.00  0.00     0.135 C 
HETATM    8  C7  UNL     1      23.204   2.892  48.776  1.00  0.00     0.041 C 
HETATM    9  C8  UNL     1      23.161   2.631  50.180  1.00  0.00     0.039 A 
HETATM   10  C9  UNL     1      24.506   2.806  50.546  1.00  0.00     0.141 A 
HETATM   11  N2  UNL     1      25.147   2.691  51.709  1.00  0.00    -0.224 NA
HETATM   12  C10 UNL     1      24.388   2.339  52.812  1.00  0.00     0.235 A 
HETATM   13  N3  UNL     1      23.093   2.163  52.542  1.00  0.00    -0.243 NA
HETATM   14  C11 UNL     1      22.508   2.290  51.371  1.00  0.00     0.080 A 
HETATM   15  N4  UNL     1      25.618   3.300  49.744  1.00  0.00    -0.350 N 
HETATM   16  C12 UNL     1      25.240   4.655  49.584  1.00  0.00     0.090 C 
HETATM   17  C13 UNL     1      24.732   5.854  49.550  1.00  0.00     0.020 C 
HETATM   18  C14 UNL     1      23.512   6.357  50.175  1.00  0.00     0.041 C 
HETATM   19  C15 UNL     1      22.359   6.411  50.900  1.00  0.00     0.111 C 
HETATM   20  F1  UNL     1      21.404   7.320  51.210  1.00  0.00    -0.209 F 
HETATM   21  C16 UNL     1      21.996   5.235  51.760  1.00  0.00     0.187 C 
HETATM   22  H14 UNL     1      26.372   2.675  49.471  1.00  0.00     0.166 HD
ENDROOT
BRANCH   1  23
HETATM   23  O1  UNL     1      20.787   0.985  52.385  1.00  0.00    -0.383 OA
HETATM   24  C1  UNL     1      19.584   0.361  52.223  1.00  0.00     0.202 C 
ENDBRANCH   1  23
TORSDOF 1
ENDMDL
MODEL 9
REMARK VINA RESULT:      -6.3      3.090      5.450
REMARK  1 active torsions:
REMARK  status: ('A' for Active; 'I' for Inactive)
REMARK    1  A    between atoms: O1_2  and  C2_3 
ROOT
HETATM    1  C2  UNL     1      22.256   4.093  47.019  1.00  0.00     0.191 C 
HETATM    2  C3  UNL     1      21.234   5.093  47.551  1.00  0.00     0.155 C 
HETATM    3  N1  UNL     1      21.820   5.730  48.703  1.00  0.00    -0.402 N 
HETATM    4  C4  UNL     1      22.848   6.589  48.361  1.00  0.00     0.144 C 
HETATM    5  C5  UNL     1      24.020   6.531  49.380  1.00  0.00     0.193 C 
HETATM    6  O2  UNL     1      24.385   5.202  49.423  1.00  0.00    -0.361 OA
HETATM    7  C6  UNL     1      25.458   4.565  49.816  1.00  0.00     0.135 C 
HETATM    8  C7  UNL     1      24.852   3.450  49.571  1.00  0.00     0.041 C 
HETATM    9  C8  UNL     1      23.561   3.073  49.087  1.00  0.00     0.039 A 
HETATM   10  C9  UNL     1      23.170   2.109  50.032  1.00  0.00     0.141 A 
HETATM   11  N2  UNL     1      22.080   1.353  50.151  1.00  0.00    -0.224 NA
HETATM   12  C10 UNL     1      21.099   1.509  49.187  1.00  0.00     0.235 A 
HETATM   13  N3  UNL     1      21.398   2.417  48.256  1.00  0.00    -0.243 NA
HETATM   14  C11 UNL     1      22.493   3.141  48.184  1.00  0.00     0.080 A 
HETATM   15  N4  UNL     1      23.826   1.727  51.276  1.00  0.00    -0.350 N 
HETATM   16  C12 UNL     1      23.632   2.901  52.044  1.00  0.00     0.090 C 
HETATM   17  C13 UNL     1      23.353   4.050  52.588  1.00  0.00     0.020 C 
HETATM   18  C14 UNL     1      22.614   5.179  52.032  1.00  0.00     0.041 C 
HETATM   19  C15 UNL     1      21.892   5.956  51.175  1.00  0.00     0.111 C 
HETATM   20  F1  UNL     1      21.354   7.198  51.148  1.00  0.00    -0.209 F 
HETATM   21  C16 UNL     1      21.360   5.332  49.916  1.00  0.00     0.187 C 
HETATM   22  H14 UNL     1      24.255   0.810  51.370  1.00  0.00     0.166 HD
ENDROOT
BRANCH   1  23
HETATM   23  O1  UNL     1      21.838   3.430  45.908  1.00  0.00    -0.383 OA
HETATM   24  C1  UNL     1      21.311   4.166  44.887  1.00  0.00     0.202 C 
ENDBRANCH   1  23
TORSDOF 1
ENDMDL
