MODEL 1
REMARK VINA RESULT:      -7.5      0.000      0.000
REMARK  4 active torsions:
REMARK  status: ('A' for Active; 'I' for Inactive)
REMARK    1  A    between atoms: C5_5  and  C6_6 
REMARK    2  A    between atoms: C6_6  and  C7_7 
REMARK    3  A    between atoms: C6_6  and  C14_16 
REMARK       I    between atoms: C7_7  and  N1_9 
REMARK    4  A    between atoms: N1_9  and  C8_10 
ROOT
HETATM    1  C1  UNL     1      29.245  -2.243  53.158  1.00  0.00     0.021 C 
HETATM    2  C2  UNL     1      28.372  -1.333  53.168  1.00  0.00     0.022 C 
HETATM    3  C3  UNL     1      27.455  -0.223  53.287  1.00  0.00    -0.050 A 
HETATM    4  C4  UNL     1      26.448  -0.272  52.499  1.00  0.00     0.023 A 
HETATM    5  C5  UNL     1      25.504   0.814  52.594  1.00  0.00    -0.001 A 
HETATM    6  S1  UNL     1      26.171   1.779  53.799  1.00  0.00    -0.105 SA
HETATM    7  C16 UNL     1      27.511   0.891  54.148  1.00  0.00     0.057 A 
ENDROOT
BRANCH   5   8
HETATM    8  C6  UNL     1      24.210   1.271  51.961  1.00  0.00     0.151 C 
BRANCH   8   9
HETATM    9  C7  UNL     1      24.362   2.710  51.579  1.00  0.00     0.234 C 
HETATM   10  O1  UNL     1      23.609   3.562  52.168  1.00  0.00    -0.272 OA
HETATM   11  N1  UNL     1      25.286   3.141  50.613  1.00  0.00    -0.326 N 
HETATM   12  H6  UNL     1      25.829   2.334  50.239  1.00  0.00     0.169 HD
BRANCH  11  13
HETATM   13  C8  UNL     1      25.822   4.247  49.913  1.00  0.00     0.034 A 
HETATM   14  C9  UNL     1      26.970   3.918  49.296  1.00  0.00     0.029 A 
HETATM   15  C10 UNL     1      27.566   4.997  48.578  1.00  0.00     0.002 A 
HETATM   16  C11 UNL     1      26.951   6.265  48.561  1.00  0.00     0.000 A 
HETATM   17  C12 UNL     1      25.746   6.409  49.270  1.00  0.00     0.002 A 
HETATM   18  C13 UNL     1      25.131   5.425  49.972  1.00  0.00     0.029 A 
ENDBRANCH  11  13
ENDBRANCH   8   9
BRANCH   8  19
HETATM   19  C14 UNL     1      23.043   1.002  52.846  1.00  0.00     0.184 C 
HETATM   20  C15 UNL     1      21.856   0.461  52.070  1.00  0.00     0.046 C 
HETATM   21  F1  UNL     1      23.355   0.078  53.826  1.00  0.00    -0.249 F 
ENDBRANCH   8  19
ENDBRANCH   5   8
TORSDOF 4
ENDMDL
MODEL 2
REMARK VINA RESULT:      -7.4      2.415      5.629
REMARK  4 active torsions:
REMARK  status: ('A' for Active; 'I' for Inactive)
REMARK    1  A    between atoms: C5_5  and  C6_6 
REMARK    2  A    between atoms: C6_6  and  C7_7 
REMARK    3  A    between atoms: C6_6  and  C14_16 
REMARK       I    between atoms: C7_7  and  N1_9 
REMARK    4  A    between atoms: N1_9  and  C8_10 
ROOT
HETATM    1  C1  UNL     1      26.416   3.436  49.459  1.00  0.00     0.021 C 
HETATM    2  C2  UNL     1      25.567   2.981  50.274  1.00  0.00     0.022 C 
HETATM    3  C3  UNL     1      24.507   2.573  51.165  1.00  0.00    -0.050 A 
HETATM    4  C4  UNL     1      24.751   1.517  51.843  1.00  0.00     0.023 A 
HETATM    5  C5  UNL     1      23.719   1.082  52.753  1.00  0.00    -0.001 A 
HETATM    6  S1  UNL     1      22.517   2.238  52.526  1.00  0.00    -0.105 SA
HETATM    7  C16 UNL     1      23.254   3.177  51.395  1.00  0.00     0.057 A 
ENDROOT
BRANCH   5   8
HETATM    8  C6  UNL     1      23.454  -0.024  53.748  1.00  0.00     0.151 C 
BRANCH   8   9
HETATM    9  C7  UNL     1      24.773  -0.535  54.237  1.00  0.00     0.234 C 
HETATM   10  O1  UNL     1      24.781  -1.199  55.333  1.00  0.00    -0.272 OA
HETATM   11  N1  UNL     1      25.974  -0.309  53.545  1.00  0.00    -0.326 N 
HETATM   12  H6  UNL     1      25.799   0.232  52.673  1.00  0.00     0.169 HD
BRANCH  11  13
HETATM   13  C8  UNL     1      27.373  -0.521  53.523  1.00  0.00     0.034 A 
HETATM   14  C9  UNL     1      28.032   0.558  53.980  1.00  0.00     0.029 A 
HETATM   15  C10 UNL     1      29.450   0.410  53.973  1.00  0.00     0.002 A 
HETATM   16  C11 UNL     1      30.038  -0.786  53.516  1.00  0.00     0.000 A 
HETATM   17  C12 UNL     1      29.174  -1.805  53.077  1.00  0.00     0.002 A 
HETATM   18  C13 UNL     1      27.821  -1.726  53.057  1.00  0.00     0.029 A 
ENDBRANCH  11  13
ENDBRANCH   8   9
BRANCH   8  19
HETATM   19  C14 UNL     1      22.574  -1.078  53.172  1.00  0.00     0.184 C 
HETATM   20  C15 UNL     1      21.395  -1.388  54.077  1.00  0.00     0.046 C 
HETATM   21  F1  UNL     1      22.068  -0.697  51.944  1.00  0.00    -0.249 F 
ENDBRANCH   8  19
ENDBRANCH   5   8
TORSDOF 4
ENDMDL
MODEL 3
REMARK VINA RESULT:      -7.3      2.220      5.897
REMARK  4 active torsions:
REMARK  status: ('A' for Active; 'I' for Inactive)
REMARK    1  A    between atoms: C5_5  and  C6_6 
REMARK    2  A    between atoms: C6_6  and  C7_7 
REMARK    3  A    between atoms: C6_6  and  C14_16 
REMARK       I    between atoms: C7_7  and  N1_9 
REMARK    4  A    between atoms: N1_9  and  C8_10 
ROOT
HETATM    1  C1  UNL     1      28.591   6.179  47.870  1.00  0.00     0.021 C 
HETATM    2  C2  UNL     1      27.544   5.931  48.529  1.00  0.00     0.022 C 
HETATM    3  C3  UNL     1      26.316   5.794  49.275  1.00  0.00    -0.050 A 
HETATM    4  C4  UNL     1      26.031   4.597  49.627  1.00  0.00     0.023 A 
HETATM    5  C5  UNL     1      24.816   4.420  50.384  1.00  0.00    -0.001 A 
HETATM    6  S1  UNL     1      24.221   5.990  50.499  1.00  0.00    -0.105 SA
HETATM    7  C16 UNL     1      25.399   6.788  49.673  1.00  0.00     0.057 A 
ENDROOT
BRANCH   5   8
HETATM    8  C6  UNL     1      24.014   3.314  51.029  1.00  0.00     0.151 C 
BRANCH   8   9
HETATM    9  C7  UNL     1      24.836   2.728  52.134  1.00  0.00     0.234 C 
HETATM   10  O1  UNL     1      24.544   3.069  53.334  1.00  0.00    -0.272 OA
HETATM   11  N1  UNL     1      25.894   1.836  51.896  1.00  0.00    -0.326 N 
HETATM   12  H6  UNL     1      25.995   1.650  50.876  1.00  0.00     0.169 HD
BRANCH  11  13
HETATM   13  C8  UNL     1      26.914   1.044  52.475  1.00  0.00     0.034 A 
HETATM   14  C9  UNL     1      26.642  -0.266  52.342  1.00  0.00     0.029 A 
HETATM   15  C10 UNL     1      27.631  -1.118  52.916  1.00  0.00     0.002 A 
HETATM   16  C11 UNL     1      28.764  -0.568  53.547  1.00  0.00     0.000 A 
HETATM   17  C12 UNL     1      28.869   0.833  53.582  1.00  0.00     0.002 A 
HETATM   18  C13 UNL     1      27.964   1.696  53.058  1.00  0.00     0.029 A 
ENDBRANCH  11  13
ENDBRANCH   8   9
BRANCH   8  19
HETATM   19  C14 UNL     1      23.552   2.316  50.025  1.00  0.00     0.184 C 
HETATM   20  C15 UNL     1      22.340   1.542  50.511  1.00  0.00     0.046 C 
HETATM   21  F1  UNL     1      23.207   2.923  48.832  1.00  0.00    -0.249 F 
ENDBRANCH   8  19
ENDBRANCH   5   8
TORSDOF 4
ENDMDL
MODEL 4
REMARK VINA RESULT:      -7.3      2.035      5.437
REMARK  4 active torsions:
REMARK  status: ('A' for Active; 'I' for Inactive)
REMARK    1  A    between atoms: C5_5  and  C6_6 
REMARK    2  A    between atoms: C6_6  and  C7_7 
REMARK    3  A    between atoms: C6_6  and  C14_16 
REMARK       I    between atoms: C7_7  and  N1_9 
REMARK    4  A    between atoms: N1_9  and  C8_10 
ROOT
HETATM    1  C1  UNL     1      27.161   4.361  48.954  1.00  0.00     0.021 C 
HETATM    2  C2  UNL     1      26.235   4.033  49.746  1.00  0.00     0.022 C 
HETATM    3  C3  UNL     1      25.132   3.801  50.648  1.00  0.00    -0.050 A 
HETATM    4  C4  UNL     1      25.000   2.589  51.035  1.00  0.00     0.023 A 
HETATM    5  C5  UNL     1      23.915   2.318  51.946  1.00  0.00    -0.001 A 
HETATM    6  S1  UNL     1      23.208   3.833  52.138  1.00  0.00    -0.105 SA
HETATM    7  C16 UNL     1      24.194   4.718  51.164  1.00  0.00     0.057 A 
ENDROOT
BRANCH   5   8
HETATM    8  C6  UNL     1      23.302   1.155  52.692  1.00  0.00     0.151 C 
BRANCH   8   9
HETATM    9  C7  UNL     1      24.411   0.366  53.314  1.00  0.00     0.234 C 
HETATM   10  O1  UNL     1      24.092  -0.524  54.179  1.00  0.00    -0.272 OA
HETATM   11  N1  UNL     1      25.761   0.570  52.983  1.00  0.00    -0.326 N 
HETATM   12  H6  UNL     1      25.853   1.314  52.260  1.00  0.00     0.169 HD
BRANCH  11  13
HETATM   13  C8  UNL     1      27.099   0.173  53.216  1.00  0.00     0.034 A 
HETATM   14  C9  UNL     1      27.832   1.199  53.682  1.00  0.00     0.029 A 
HETATM   15  C10 UNL     1      29.197   0.864  53.928  1.00  0.00     0.002 A 
HETATM   16  C11 UNL     1      29.663  -0.443  53.682  1.00  0.00     0.000 A 
HETATM   17  C12 UNL     1      28.736  -1.380  53.194  1.00  0.00     0.002 A 
HETATM   18  C13 UNL     1      27.429  -1.124  52.939  1.00  0.00     0.029 A 
ENDBRANCH  11  13
ENDBRANCH   8   9
BRANCH   8  19
HETATM   19  C14 UNL     1      22.408   0.352  51.813  1.00  0.00     0.184 C 
HETATM   20  C15 UNL     1      21.013   0.217  52.397  1.00  0.00     0.046 C 
HETATM   21  F1  UNL     1      22.282   0.926  50.562  1.00  0.00    -0.249 F 
ENDBRANCH   8  19
ENDBRANCH   5   8
TORSDOF 4
ENDMDL
MODEL 5
REMARK VINA RESULT:      -7.2      2.150      5.509
REMARK  4 active torsions:
REMARK  status: ('A' for Active; 'I' for Inactive)
REMARK    1  A    between atoms: C5_5  and  C6_6 
REMARK    2  A    between atoms: C6_6  and  C7_7 
REMARK    3  A    between atoms: C6_6  and  C14_16 
REMARK       I    between atoms: C7_7  and  N1_9 
REMARK    4  A    between atoms: N1_9  and  C8_10 
ROOT
HETATM    1  C1  UNL     1      28.785  -2.449  52.917  1.00  0.00     0.021 C 
HETATM    2  C2  UNL     1      28.150  -1.360  52.957  1.00  0.00     0.022 C 
HETATM    3  C3  UNL     1      27.494  -0.086  53.133  1.00  0.00    -0.050 A 
HETATM    4  C4  UNL     1      26.689   0.238  52.193  1.00  0.00     0.023 A 
HETATM    5  C5  UNL     1      26.007   1.501  52.336  1.00  0.00    -0.001 A 
HETATM    6  S1  UNL     1      26.601   2.077  53.801  1.00  0.00    -0.105 SA
HETATM    7  C16 UNL     1      27.610   0.838  54.191  1.00  0.00     0.057 A 
ENDROOT
BRANCH   5   8
HETATM    8  C6  UNL     1      25.007   2.358  51.595  1.00  0.00     0.151 C 
BRANCH   8   9
HETATM    9  C7  UNL     1      23.708   1.617  51.542  1.00  0.00     0.234 C 
HETATM   10  O1  UNL     1      23.054   1.647  50.441  1.00  0.00    -0.272 OA
HETATM   11  N1  UNL     1      23.198   0.907  52.641  1.00  0.00    -0.326 N 
HETATM   12  H6  UNL     1      23.849   0.968  53.451  1.00  0.00     0.169 HD
BRANCH  11  13
HETATM   13  C8  UNL     1      22.140   0.105  53.131  1.00  0.00     0.034 A 
HETATM   14  C9  UNL     1      22.613  -0.936  53.839  1.00  0.00     0.029 A 
HETATM   15  C10 UNL     1      21.593  -1.790  54.354  1.00  0.00     0.002 A 
HETATM   16  C11 UNL     1      20.235  -1.507  54.104  1.00  0.00     0.000 A 
HETATM   17  C12 UNL     1      19.943  -0.364  53.339  1.00  0.00     0.002 A 
HETATM   18  C13 UNL     1      20.864   0.485  52.821  1.00  0.00     0.029 A 
ENDBRANCH  11  13
ENDBRANCH   8   9
BRANCH   8  19
HETATM   19  C14 UNL     1      25.523   2.770  50.261  1.00  0.00     0.184 C 
HETATM   20  C15 UNL     1      25.389   4.266  50.039  1.00  0.00     0.046 C 
HETATM   21  F1  UNL     1      26.858   2.445  50.114  1.00  0.00    -0.249 F 
ENDBRANCH   8  19
ENDBRANCH   5   8
TORSDOF 4
ENDMDL
MODEL 6
REMARK VINA RESULT:      -7.1      1.974      4.174
REMARK  4 active torsions:
REMARK  status: ('A' for Active; 'I' for Inactive)
REMARK    1  A    between atoms: C5_5  and  C6_6 
REMARK    2  A    between atoms: C6_6  and  C7_7 
REMARK    3  A    between atoms: C6_6  and  C14_16 
REMARK       I    between atoms: C7_7  and  N1_9 
REMARK    4  A    between atoms: N1_9  and  C8_10 
ROOT
HETATM    1  C1  UNL     1      20.142  -0.048  52.426  1.00  0.00     0.021 C 
HETATM    2  C2  UNL     1      21.281  -0.192  52.949  1.00  0.00     0.022 C 
HETATM    3  C3  UNL     1      22.517  -0.437  53.654  1.00  0.00    -0.050 A 
HETATM    4  C4  UNL     1      23.557   0.069  53.109  1.00  0.00     0.023 A 
HETATM    5  C5  UNL     1      24.810  -0.145  53.789  1.00  0.00    -0.001 A 
HETATM    6  S1  UNL     1      24.351  -1.051  55.130  1.00  0.00    -0.105 SA
HETATM    7  C16 UNL     1      22.733  -1.143  54.855  1.00  0.00     0.057 A 
ENDROOT
BRANCH   5   8
HETATM    8  C6  UNL     1      26.276   0.187  53.631  1.00  0.00     0.151 C 
BRANCH   8   9
HETATM    9  C7  UNL     1      26.384   1.605  53.165  1.00  0.00     0.234 C 
HETATM   10  O1  UNL     1      26.918   2.452  53.963  1.00  0.00    -0.272 OA
HETATM   11  N1  UNL     1      25.925   2.022  51.905  1.00  0.00    -0.326 N 
HETATM   12  H6  UNL     1      25.531   1.218  51.373  1.00  0.00     0.169 HD
BRANCH  11  13
HETATM   13  C8  UNL     1      25.772   3.109  51.012  1.00  0.00     0.034 A 
HETATM   14  C9  UNL     1      26.802   3.174  50.150  1.00  0.00     0.029 A 
HETATM   15  C10 UNL     1      26.711   4.258  49.228  1.00  0.00     0.002 A 
HETATM   16  C11 UNL     1      25.614   5.140  49.274  1.00  0.00     0.000 A 
HETATM   17  C12 UNL     1      24.633   4.903  50.253  1.00  0.00     0.002 A 
HETATM   18  C13 UNL     1      24.662   3.894  51.158  1.00  0.00     0.029 A 
ENDBRANCH  11  13
ENDBRANCH   8   9
BRANCH   8  19
HETATM   19  C14 UNL     1      26.967  -0.793  52.749  1.00  0.00     0.184 C 
HETATM   20  C15 UNL     1      28.416  -0.997  53.155  1.00  0.00     0.046 C 
HETATM   21  F1  UNL     1      26.348  -2.028  52.785  1.00  0.00    -0.249 F 
ENDBRANCH   8  19
ENDBRANCH   5   8
TORSDOF 4
ENDMDL
MODEL 7
REMARK VINA RESULT:      -7.1      2.334      3.128
REMARK  4 active torsions:
REMARK  status: ('A' for Active; 'I' for Inactive)
REMARK    1  A    between atoms: C5_5  and  C6_6 
REMARK    2  A    between atoms: C6_6  and  C7_7 
REMARK    3  A    between atoms: C6_6  and  C14_16 
REMARK       I    between atoms: C7_7  and  N1_9 
REMARK    4  A    between atoms: N1_9  and  C8_10 
ROOT
HETATM    1  C1  UNL     1      29.705  -1.367  53.414  1.00  0.00     0.021 C 
HETATM    2  C2  UNL     1      28.555  -0.850  53.456  1.00  0.00     0.022 C 
HETATM    3  C3  UNL     1      27.307  -0.127  53.528  1.00  0.00    -0.050 A 
HETATM    4  C4  UNL     1      26.261  -0.841  53.354  1.00  0.00     0.023 A 
HETATM    5  C5  UNL     1      24.994  -0.157  53.429  1.00  0.00    -0.001 A 
HETATM    6  S1  UNL     1      25.451   1.433  53.736  1.00  0.00    -0.105 SA
HETATM    7  C16 UNL     1      27.085   1.244  53.770  1.00  0.00     0.057 A 
ENDROOT
BRANCH   5   8
HETATM    8  C6  UNL     1      23.517  -0.454  53.311  1.00  0.00     0.151 C 
BRANCH   8   9
HETATM    9  C7  UNL     1      22.871   0.680  52.579  1.00  0.00     0.234 C 
HETATM   10  O1  UNL     1      21.976   1.353  53.202  1.00  0.00    -0.272 OA
HETATM   11  N1  UNL     1      23.210   1.017  51.259  1.00  0.00    -0.326 N 
HETATM   12  H6  UNL     1      23.958   0.387  50.900  1.00  0.00     0.169 HD
BRANCH  11  13
HETATM   13  C8  UNL     1      22.966   1.888  50.171  1.00  0.00     0.034 A 
HETATM   14  C9  UNL     1      21.910   1.475  49.449  1.00  0.00     0.029 A 
HETATM   15  C10 UNL     1      21.618   2.308  48.329  1.00  0.00     0.002 A 
HETATM   16  C11 UNL     1      22.407   3.446  48.065  1.00  0.00     0.000 A 
HETATM   17  C12 UNL     1      23.472   3.712  48.942  1.00  0.00     0.002 A 
HETATM   18  C13 UNL     1      23.802   2.959  50.021  1.00  0.00     0.029 A 
ENDBRANCH  11  13
ENDBRANCH   8   9
BRANCH   8  19
HETATM   19  C14 UNL     1      22.909  -0.740  54.640  1.00  0.00     0.184 C 
HETATM   20  C15 UNL     1      21.820  -1.794  54.550  1.00  0.00     0.046 C 
HETATM   21  F1  UNL     1      23.855  -1.194  55.540  1.00  0.00    -0.249 F 
ENDBRANCH   8  19
ENDBRANCH   5   8
TORSDOF 4
ENDMDL
MODEL 8
REMARK VINA RESULT:      -7.0      3.215      6.390
REMARK  4 active torsions:
REMARK  status: ('A' for Active; 'I' for Inactive)
REMARK    1  A    between atoms: C5_5  and  C6_6 
REMARK    2  A    between atoms: C6_6  and  C7_7 
REMARK    3  A    between atoms: C6_6  and  C14_16 
REMARK       I    between atoms: C7_7  and  N1_9 
REMARK    4  A    between atoms: N1_9  and  C8_10 
ROOT
HETATM    1  C1  UNL     1      28.111   5.321  48.375  1.00  0.00     0.021 C 
HETATM    2  C2  UNL     1      27.221   4.647  48.962  1.00  0.00     0.022 C 
HETATM    3  C3  UNL     1      26.311   3.823  49.723  1.00  0.00    -0.050 A 
HETATM    4  C4  UNL     1      25.088   3.894  49.358  1.00  0.00     0.023 A 
HETATM    5  C5  UNL     1      24.149   3.078  50.088  1.00  0.00    -0.001 A 
HETATM    6  S1  UNL     1      25.131   2.307  51.216  1.00  0.00    -0.105 SA
HETATM    7  C16 UNL     1      26.584   2.953  50.798  1.00  0.00     0.057 A 
ENDROOT
BRANCH   5   8
HETATM    8  C6  UNL     1      22.670   2.768  50.112  1.00  0.00     0.151 C 
BRANCH   8   9
HETATM    9  C7  UNL     1      22.310   2.326  51.496  1.00  0.00     0.234 C 
HETATM   10  O1  UNL     1      21.968   3.231  52.336  1.00  0.00    -0.272 OA
HETATM   11  N1  UNL     1      22.337   0.978  51.890  1.00  0.00    -0.326 N 
HETATM   12  H6  UNL     1      22.622   0.369  51.094  1.00  0.00     0.169 HD
BRANCH  11  13
HETATM   13  C8  UNL     1      22.126   0.060  52.945  1.00  0.00     0.034 A 
HETATM   14  C9  UNL     1      23.263  -0.162  53.627  1.00  0.00     0.029 A 
HETATM   15  C10 UNL     1      23.116  -1.089  54.700  1.00  0.00     0.002 A 
HETATM   16  C11 UNL     1      21.865  -1.680  54.964  1.00  0.00     0.000 A 
HETATM   17  C12 UNL     1      20.790  -1.316  54.134  1.00  0.00     0.002 A 
HETATM   18  C13 UNL     1      20.864  -0.444  53.099  1.00  0.00     0.029 A 
ENDBRANCH  11  13
ENDBRANCH   8   9
BRANCH   8  19
HETATM   19  C14 UNL     1      22.300   1.791  49.051  1.00  0.00     0.184 C 
HETATM   20  C15 UNL     1      20.797   1.723  48.843  1.00  0.00     0.046 C 
HETATM   21  F1  UNL     1      22.873   2.122  47.838  1.00  0.00    -0.249 F 
ENDBRANCH   8  19
ENDBRANCH   5   8
TORSDOF 4
ENDMDL
MODEL 9
REMARK VINA RESULT:      -6.9      2.928      6.032
REMARK  4 active torsions:
REMARK  status: ('A' for Active; 'I' for Inactive)
REMARK    1  A    between atoms: C5_5  and  C6_6 
REMARK    2  A    between atoms: C6_6  and  C7_7 
REMARK    3  A    between atoms: C6_6  and  C14_16 
REMARK       I    between atoms: C7_7  and  N1_9 
REMARK    4  A    between atoms: N1_9  and  C8_10 
ROOT
HETATM    1  C1  UNL     1      18.063  -0.795  52.785  1.00  0.00     0.021 C 
HETATM    2  C2  UNL     1      19.296  -0.533  52.835  1.00  0.00     0.022 C 
HETATM    3  C3  UNL     1      20.713  -0.320  53.014  1.00  0.00    -0.050 A 
HETATM    4  C4  UNL     1      21.260   0.425  52.130  1.00  0.00     0.023 A 
HETATM    5  C5  UNL     1      22.674   0.670  52.280  1.00  0.00    -0.001 A 
HETATM    6  S1  UNL     1      23.053  -0.200  53.669  1.00  0.00    -0.105 SA
HETATM    7  C16 UNL     1      21.567  -0.807  54.024  1.00  0.00     0.057 A 
ENDROOT
BRANCH   5   8
HETATM    8  C6  UNL     1      23.791   1.417  51.589  1.00  0.00     0.151 C 
BRANCH   8   9
HETATM    9  C7  UNL     1      24.989   1.395  52.486  1.00  0.00     0.234 C 
HETATM   10  O1  UNL     1      25.038   2.262  53.429  1.00  0.00    -0.272 OA
HETATM   11  N1  UNL     1      26.036   0.474  52.326  1.00  0.00    -0.326 N 
HETATM   12  H6  UNL     1      25.841  -0.168  51.528  1.00  0.00     0.169 HD
BRANCH  11  13
HETATM   13  C8  UNL     1      27.286   0.021  52.811  1.00  0.00     0.034 A 
HETATM   14  C9  UNL     1      28.058   1.054  53.190  1.00  0.00     0.029 A 
HETATM   15  C10 UNL     1      29.339   0.663  53.681  1.00  0.00     0.002 A 
HETATM   16  C11 UNL     1      29.693  -0.700  53.735  1.00  0.00     0.000 A 
HETATM   17  C12 UNL     1      28.741  -1.634  53.292  1.00  0.00     0.002 A 
HETATM   18  C13 UNL     1      27.510  -1.327  52.814  1.00  0.00     0.029 A 
ENDBRANCH  11  13
ENDBRANCH   8   9
BRANCH   8  19
HETATM   19  C14 UNL     1      23.365   2.785  51.184  1.00  0.00     0.184 C 
HETATM   20  C15 UNL     1      22.787   2.805  49.779  1.00  0.00     0.046 C 
HETATM   21  F1  UNL     1      22.401   3.287  52.037  1.00  0.00    -0.249 F 
ENDBRANCH   8  19
ENDBRANCH   5   8
TORSDOF 4
ENDMDL
